MODEL 1
REMARK VINA RESULT: -6.590327802      0.000      0.000
REMARK  8 active torsions:
REMARK  status: ('A' for Active; 'I' for Inactive)
REMARK    1  A    between atoms: C2_2  and  N1_3 
REMARK    2  A    between atoms: C2_2  and  C3_7 
REMARK       I    between atoms: C3_7  and  N2_9 
REMARK    3  A    between atoms: N2_9  and  N3_11 
REMARK    4  A    between atoms: C4_12  and  S1_13 
REMARK    5  A    between atoms: C5_19  and  N5_20 
REMARK       I    between atoms: N5_20  and  C6_22 
REMARK       I    between atoms: C6_22  and  N6_23 
REMARK       I    between atoms: C6_22  and  N7_27 
REMARK    6  A    between atoms: N7_27  and  N8_28 
REMARK    7  A    between atoms: C7_33  and  N10_34 
REMARK    8  A    between atoms: N10_34  and  N11_36 
ROOT
HETATM    1  N3  UNL     1      53.759 -12.469  13.164  1.00  0.00    -0.051 N 
HETATM    2  C4  UNL     1      52.906 -13.241  13.825  1.00  0.00     0.277 A 
HETATM    3  N4  UNL     1      52.924 -13.274  15.204  1.00  0.00    -0.161 N 
ATOM      4  H4  UNL     1      52.256 -13.879  15.682  1.00  0.00     0.186 HD
HETATM    5  C5  UNL     1      53.767 -12.557  15.943  1.00  0.00     0.697 A 
HETATM    6  N9  UNL     1      54.631 -11.769  15.298  1.00  0.00    -0.019 N 
ATOM      7  H9  UNL     1      55.293 -11.200  15.824  1.00  0.00     0.203 HD
HETATM    8  C7  UNL     1      54.626 -11.728  13.976  1.00  0.00     0.734 A 
ENDROOT
BRANCH   5   9
HETATM    9  N5  UNL     1      53.725 -12.643  17.219  1.00  0.00    -0.181 N 
HETATM   10  C6  UNL     1      53.613 -11.617  18.190  1.00  0.00     0.410 C 
HETATM   11  N6  UNL     1      54.709 -11.811  19.158  1.00  0.00    -0.042 N 
HETATM   12  N7  UNL     1      52.397 -11.787  19.012  1.00  0.00    -0.093 NA
ATOM     13  H63 UNL     1      54.722 -12.746  19.565  1.00  0.00     0.278 HD
ATOM     14  H62 UNL     1      55.630 -11.847  18.719  1.00  0.00     0.278 HD
ATOM     15  H61 UNL     1      54.629 -11.073  19.857  1.00  0.00     0.278 HD
ATOM     16  H5  UNL     1      53.780 -13.591  17.593  1.00  0.00     0.181 HD
BRANCH  12  17
HETATM   17  N8  UNL     1      51.317 -11.737  18.128  1.00  0.00    -0.345 N 
ATOM     18  H82 UNL     1      50.994 -10.913  17.622  1.00  0.00     0.172 HD
ATOM     19  H81 UNL     1      50.929 -12.679  18.097  1.00  0.00     0.172 HD
ENDBRANCH  12  17
ENDBRANCH   5   9
BRANCH   2  20
HETATM   20  S1  UNL     1      51.624 -14.156  13.055  1.00  0.00     0.175 S 
HETATM   21  O2  UNL     1      52.342 -14.939  11.905  1.00  0.00    -0.589 OA
HETATM   22  O3  UNL     1      51.092 -15.263  13.894  1.00  0.00    -0.589 OA
HETATM   23  O4  UNL     1      50.504 -13.218  12.283  1.00  0.00    -0.589 OA
ENDBRANCH   2  20
BRANCH   8  24
HETATM   24  N10 UNL     1      55.489 -10.951  13.413  1.00  0.00    -0.136 N 
ATOM     25  H10 UNL     1      55.809 -11.176  12.471  1.00  0.00     0.205 HD
BRANCH  24  26
HETATM   26  N11 UNL     1      56.001  -9.818  14.040  1.00  0.00    -0.331 N 
ATOM     27 2H11 UNL     1      56.967  -9.853  14.367  1.00  0.00     0.177 HD
ATOM     28 1H11 UNL     1      55.451  -8.970  14.180  1.00  0.00     0.177 HD
ENDBRANCH  24  26
ENDBRANCH   8  24
BRANCH   1  29
HETATM   29  N2  UNL     1      54.028 -12.404  11.832  1.00  0.00    -0.245 N 
HETATM   30  C3  UNL     1      53.493 -11.970  10.647  1.00  0.00     0.267 C 
HETATM   31  O1  UNL     1      52.389 -11.444  10.488  1.00  0.00    -0.269 OA
ATOM     32  H2  UNL     1      54.942 -12.822  11.654  1.00  0.00     0.191 HD
BRANCH  30  33
HETATM   33  C2  UNL     1      54.267 -12.110   9.344  1.00  0.00     0.272 C 
HETATM   34  C1  UNL     1      55.647 -11.572   9.472  1.00  0.00     0.050 C 
BRANCH  33  35
HETATM   35  N1  UNL     1      53.483 -11.579   8.295  1.00  0.00    -0.067 N 
ATOM     36  H13 UNL     1      53.274 -10.599   8.483  1.00  0.00     0.275 HD
ATOM     37  H12 UNL     1      54.052 -11.488   7.452  1.00  0.00     0.275 HD
ATOM     38  H11 UNL     1      52.622 -12.080   8.076  1.00  0.00     0.275 HD
ENDBRANCH  33  35
ENDBRANCH  30  33
ENDBRANCH   1  29
TORSDOF 8
ENDMDL
MODEL 2
REMARK VINA RESULT: -6.367862012      3.545      7.178
REMARK  8 active torsions:
REMARK  status: ('A' for Active; 'I' for Inactive)
REMARK    1  A    between atoms: C2_2  and  N1_3 
REMARK    2  A    between atoms: C2_2  and  C3_7 
REMARK       I    between atoms: C3_7  and  N2_9 
REMARK    3  A    between atoms: N2_9  and  N3_11 
REMARK    4  A    between atoms: C4_12  and  S1_13 
REMARK    5  A    between atoms: C5_19  and  N5_20 
REMARK       I    between atoms: N5_20  and  C6_22 
REMARK       I    between atoms: C6_22  and  N6_23 
REMARK       I    between atoms: C6_22  and  N7_27 
REMARK    6  A    between atoms: N7_27  and  N8_28 
REMARK    7  A    between atoms: C7_33  and  N10_34 
REMARK    8  A    between atoms: N10_34  and  N11_36 
ROOT
HETATM    1  N3  UNL     1      53.748 -11.578  17.215  1.00  0.00    -0.051 N 
HETATM    2  C4  UNL     1      54.341 -11.838  16.056  1.00  0.00     0.277 A 
HETATM    3  N4  UNL     1      53.598 -11.903  14.895  1.00  0.00    -0.161 N 
ATOM      4  H4  UNL     1      54.083 -12.106  14.021  1.00  0.00     0.186 HD
HETATM    5  C5  UNL     1      52.281 -11.715  14.857  1.00  0.00     0.697 A 
HETATM    6  N9  UNL     1      51.665 -11.448  16.010  1.00  0.00    -0.019 N 
ATOM      7  H9  UNL     1      50.658 -11.294  16.028  1.00  0.00     0.203 HD
HETATM    8  C7  UNL     1      52.364 -11.383  17.131  1.00  0.00     0.734 A 
ENDROOT
BRANCH   5   9
HETATM    9  N5  UNL     1      51.660 -11.795  13.740  1.00  0.00    -0.181 N 
HETATM   10  C6  UNL     1      52.049 -12.430  12.534  1.00  0.00     0.410 C 
HETATM   11  N6  UNL     1      51.919 -11.432  11.455  1.00  0.00    -0.042 N 
HETATM   12  N7  UNL     1      51.085 -13.481  12.147  1.00  0.00    -0.093 NA
ATOM     13  H63 UNL     1      50.989 -11.016  11.405  1.00  0.00     0.278 HD
ATOM     14  H62 UNL     1      52.438 -10.573  11.640  1.00  0.00     0.278 HD
ATOM     15  H61 UNL     1      52.199 -11.889  10.587  1.00  0.00     0.278 HD
ATOM     16  H5  UNL     1      50.751 -11.333  13.714  1.00  0.00     0.181 HD
BRANCH  12  17
HETATM   17  N8  UNL     1      51.069 -14.402  13.195  1.00  0.00    -0.345 N 
ATOM     18  H82 UNL     1      51.616 -15.261  13.248  1.00  0.00     0.172 HD
ATOM     19  H81 UNL     1      50.406 -14.042  13.882  1.00  0.00     0.172 HD
ENDBRANCH  12  17
ENDBRANCH   5   9
BRANCH   2  20
HETATM   20  S1  UNL     1      56.077 -11.979  15.862  1.00  0.00     0.175 S 
HETATM   21  O2  UNL     1      56.644 -10.644  16.453  1.00  0.00    -0.589 OA
HETATM   22  O3  UNL     1      56.698 -12.996  16.752  1.00  0.00    -0.589 OA
HETATM   23  O4  UNL     1      56.576 -11.981  14.287  1.00  0.00    -0.589 OA
ENDBRANCH   2  20
BRANCH   8  24
HETATM   24  N10 UNL     1      51.709 -11.126  18.214  1.00  0.00    -0.136 N 
ATOM     25  H10 UNL     1      51.867 -10.233  18.681  1.00  0.00     0.205 HD
BRANCH  24  26
HETATM   26  N11 UNL     1      50.796 -12.019  18.769  1.00  0.00    -0.331 N 
ATOM     27 2H11 UNL     1      49.872 -11.661  19.012  1.00  0.00     0.177 HD
ATOM     28 1H11 UNL     1      51.018 -13.000  18.938  1.00  0.00     0.177 HD
ENDBRANCH  24  26
ENDBRANCH   8  24
BRANCH   1  29
HETATM   29  N2  UNL     1      54.244 -11.629  18.481  1.00  0.00    -0.245 N 
HETATM   30  C3  UNL     1      54.191 -12.379  19.626  1.00  0.00     0.267 C 
HETATM   31  O1  UNL     1      53.511 -13.391  19.812  1.00  0.00    -0.269 OA
ATOM     32  H2  UNL     1      54.868 -10.836  18.627  1.00  0.00     0.191 HD
BRANCH  30  33
HETATM   33  C2  UNL     1      55.023 -12.001  20.844  1.00  0.00     0.272 C 
HETATM   34  C1  UNL     1      56.286 -11.323  20.450  1.00  0.00     0.050 C 
BRANCH  33  35
HETATM   35  N1  UNL     1      55.155 -13.140  21.670  1.00  0.00    -0.067 N 
ATOM     36  H13 UNL     1      54.232 -13.492  21.922  1.00  0.00     0.275 HD
ATOM     37  H12 UNL     1      55.510 -13.924  21.122  1.00  0.00     0.275 HD
ATOM     38  H11 UNL     1      55.721 -13.025  22.511  1.00  0.00     0.275 HD
ENDBRANCH  33  35
ENDBRANCH  30  33
ENDBRANCH   1  29
TORSDOF 8
ENDMDL
MODEL 3
REMARK VINA RESULT: -6.097229701      1.533      6.069
REMARK  8 active torsions:
REMARK  status: ('A' for Active; 'I' for Inactive)
REMARK    1  A    between atoms: C2_2  and  N1_3 
REMARK    2  A    between atoms: C2_2  and  C3_7 
REMARK       I    between atoms: C3_7  and  N2_9 
REMARK    3  A    between atoms: N2_9  and  N3_11 
REMARK    4  A    between atoms: C4_12  and  S1_13 
REMARK    5  A    between atoms: C5_19  and  N5_20 
REMARK       I    between atoms: N5_20  and  C6_22 
REMARK       I    between atoms: C6_22  and  N6_23 
REMARK       I    between atoms: C6_22  and  N7_27 
REMARK    6  A    between atoms: N7_27  and  N8_28 
REMARK    7  A    between atoms: C7_33  and  N10_34 
REMARK    8  A    between atoms: N10_34  and  N11_36 
ROOT
HETATM    1  N3  UNL     1      53.863 -12.184  13.779  1.00  0.00    -0.051 N 
HETATM    2  C4  UNL     1      53.255 -12.837  12.796  1.00  0.00     0.277 A 
HETATM    3  N4  UNL     1      53.816 -12.874  11.536  1.00  0.00    -0.161 N 
ATOM      4  H4  UNL     1      53.324 -13.383  10.802  1.00  0.00     0.186 HD
HETATM    5  C5  UNL     1      54.968 -12.281  11.230  1.00  0.00     0.697 A 
HETATM    6  N9  UNL     1      55.598 -11.623  12.205  1.00  0.00    -0.019 N 
ATOM      7  H9  UNL     1      56.485 -11.156  12.016  1.00  0.00     0.203 HD
HETATM    8  C7  UNL     1      55.072 -11.578  13.417  1.00  0.00     0.734 A 
ENDROOT
BRANCH   5   9
HETATM    9  N5  UNL     1      55.424 -12.358  10.036  1.00  0.00    -0.181 N 
HETATM   10  C6  UNL     1      54.935 -13.095   8.929  1.00  0.00     0.410 C 
HETATM   11  N6  UNL     1      56.063 -13.886   8.400  1.00  0.00    -0.042 N 
HETATM   12  N7  UNL     1      54.585 -12.204   7.803  1.00  0.00    -0.093 NA
ATOM     13  H63 UNL     1      56.878 -13.317   8.173  1.00  0.00     0.278 HD
ATOM     14  H62 UNL     1      56.506 -14.473   9.108  1.00  0.00     0.278 HD
ATOM     15  H61 UNL     1      55.712 -14.417   7.604  1.00  0.00     0.278 HD
ATOM     16  H5  UNL     1      56.263 -11.807   9.855  1.00  0.00     0.181 HD
BRANCH  12  17
HETATM   17  N8  UNL     1      53.599 -11.339   8.281  1.00  0.00    -0.345 N 
ATOM     18  H82 UNL     1      52.624 -11.580   8.460  1.00  0.00     0.172 HD
ATOM     19  H81 UNL     1      54.052 -10.434   8.412  1.00  0.00     0.172 HD
ENDBRANCH  12  17
ENDBRANCH   5   9
BRANCH   2  20
HETATM   20  S1  UNL     1      51.807 -13.801  13.017  1.00  0.00     0.175 S 
HETATM   21  O2  UNL     1      52.097 -15.123  12.231  1.00  0.00    -0.589 OA
HETATM   22  O3  UNL     1      51.630 -14.303  14.406  1.00  0.00    -0.589 OA
HETATM   23  O4  UNL     1      50.466 -13.168  12.290  1.00  0.00    -0.589 OA
ENDBRANCH   2  20
BRANCH   8  24
HETATM   24  N10 UNL     1      55.728 -10.921  14.315  1.00  0.00    -0.136 N 
ATOM     25  H10 UNL     1      56.011 -11.406  15.166  1.00  0.00     0.205 HD
BRANCH  24  26
HETATM   26  N11 UNL     1      56.065  -9.578  14.166  1.00  0.00    -0.331 N 
ATOM     27 2H11 UNL     1      56.217  -9.230  13.220  1.00  0.00     0.177 HD
ATOM     28 1H11 UNL     1      56.162  -8.944  14.960  1.00  0.00     0.177 HD
ENDBRANCH  24  26
ENDBRANCH   8  24
BRANCH   1  29
HETATM   29  N2  UNL     1      53.422 -11.880  15.030  1.00  0.00    -0.245 N 
HETATM   30  C3  UNL     1      52.367 -11.304  15.688  1.00  0.00     0.267 C 
HETATM   31  O1  UNL     1      51.367 -10.798  15.172  1.00  0.00    -0.269 OA
ATOM     32  H2  UNL     1      54.115 -12.187  15.713  1.00  0.00     0.191 HD
BRANCH  30  33
HETATM   33  C2  UNL     1      52.338 -11.236  17.207  1.00  0.00     0.272 C 
HETATM   34  C1  UNL     1      53.630 -11.678  17.795  1.00  0.00     0.050 C 
BRANCH  33  35
HETATM   35  N1  UNL     1      51.181 -11.905  17.667  1.00  0.00    -0.067 N 
ATOM     36  H13 UNL     1      51.134 -12.836  17.253  1.00  0.00     0.275 HD
ATOM     37  H12 UNL     1      51.291 -12.147  18.652  1.00  0.00     0.275 HD
ATOM     38  H11 UNL     1      50.294 -11.421  17.529  1.00  0.00     0.275 HD
ENDBRANCH  33  35
ENDBRANCH  30  33
ENDBRANCH   1  29
TORSDOF 8
ENDMDL
MODEL 4
REMARK VINA RESULT: -5.949307392      2.435      6.448
REMARK  8 active torsions:
REMARK  status: ('A' for Active; 'I' for Inactive)
REMARK    1  A    between atoms: C2_2  and  N1_3 
REMARK    2  A    between atoms: C2_2  and  C3_7 
REMARK       I    between atoms: C3_7  and  N2_9 
REMARK    3  A    between atoms: N2_9  and  N3_11 
REMARK    4  A    between atoms: C4_12  and  S1_13 
REMARK    5  A    between atoms: C5_19  and  N5_20 
REMARK       I    between atoms: N5_20  and  C6_22 
REMARK       I    between atoms: C6_22  and  N6_23 
REMARK       I    between atoms: C6_22  and  N7_27 
REMARK    6  A    between atoms: N7_27  and  N8_28 
REMARK    7  A    between atoms: C7_33  and  N10_34 
REMARK    8  A    between atoms: N10_34  and  N11_36 
ROOT
HETATM    1  N3  UNL     1      54.406 -11.551  15.419  1.00  0.00    -0.051 N 
HETATM    2  C4  UNL     1      54.019 -11.737  14.164  1.00  0.00     0.277 A 
HETATM    3  N4  UNL     1      54.945 -11.719  13.141  1.00  0.00    -0.161 N 
ATOM      4  H4  UNL     1      54.615 -11.863  12.187  1.00  0.00     0.186 HD
HETATM    5  C5  UNL     1      56.247 -11.521  13.336  1.00  0.00     0.697 A 
HETATM    6  N9  UNL     1      56.659 -11.338  14.592  1.00  0.00    -0.019 N 
ATOM      7  H9  UNL     1      57.648 -11.186  14.788  1.00  0.00     0.203 HD
HETATM    8  C7  UNL     1      55.782 -11.352  15.582  1.00  0.00     0.734 A 
ENDROOT
BRANCH   5   9
HETATM    9  N5  UNL     1      57.045 -11.515  12.335  1.00  0.00    -0.181 N 
HETATM   10  C6  UNL     1      56.953 -10.805  11.111  1.00  0.00     0.410 C 
HETATM   11  N6  UNL     1      57.109 -11.791  10.024  1.00  0.00    -0.042 N 
HETATM   12  N7  UNL     1      58.109  -9.905  10.925  1.00  0.00    -0.093 NA
ATOM     13  H63 UNL     1      57.964 -12.341  10.103  1.00  0.00     0.278 HD
ATOM     14  H62 UNL     1      56.448 -12.565  10.088  1.00  0.00     0.278 HD
ATOM     15  H61 UNL     1      57.042 -11.281   9.143  1.00  0.00     0.278 HD
ATOM     16  H5  UNL     1      57.870 -12.108  12.432  1.00  0.00     0.181 HD
BRANCH  12  17
HETATM   17  N8  UNL     1      58.090  -9.016  12.002  1.00  0.00    -0.345 N 
ATOM     18  H82 UNL     1      57.384  -8.979  12.737  1.00  0.00     0.172 HD
ATOM     19  H81 UNL     1      58.915  -8.425  11.899  1.00  0.00     0.172 HD
ENDBRANCH  12  17
ENDBRANCH   5   9
BRANCH   2  20
HETATM   20  S1  UNL     1      52.379 -12.151  13.702  1.00  0.00     0.175 S 
HETATM   21  O2  UNL     1      51.480 -11.331  14.687  1.00  0.00    -0.589 OA
HETATM   22  O3  UNL     1      51.972 -11.598  12.383  1.00  0.00    -0.589 OA
HETATM   23  O4  UNL     1      51.981 -13.728  13.990  1.00  0.00    -0.589 OA
ENDBRANCH   2  20
BRANCH   8  24
HETATM   24  N10 UNL     1      56.244 -11.162  16.773  1.00  0.00    -0.136 N 
ATOM     25  H10 UNL     1      55.721 -11.536  17.565  1.00  0.00     0.205 HD
BRANCH  24  26
HETATM   26  N11 UNL     1      57.426 -10.469  17.019  1.00  0.00    -0.331 N 
ATOM     27 2H11 UNL     1      57.859  -9.979  16.236  1.00  0.00     0.177 HD
ATOM     28 1H11 UNL     1      57.863 -10.436  17.940  1.00  0.00     0.177 HD
ENDBRANCH  24  26
ENDBRANCH   8  24
BRANCH   1  29
HETATM   29  N2  UNL     1      53.664 -11.368  16.545  1.00  0.00    -0.245 N 
HETATM   30  C3  UNL     1      53.424 -11.919  17.776  1.00  0.00     0.267 C 
HETATM   31  O1  UNL     1      53.925 -12.952  18.229  1.00  0.00    -0.269 OA
ATOM     32  H2  UNL     1      53.089 -10.533  16.433  1.00  0.00     0.191 HD
BRANCH  30  33
HETATM   33  C2  UNL     1      52.458 -11.262  18.750  1.00  0.00     0.272 C 
HETATM   34  C1  UNL     1      52.901 -11.438  20.157  1.00  0.00     0.050 C 
BRANCH  33  35
HETATM   35  N1  UNL     1      51.147 -11.696  18.447  1.00  0.00    -0.067 N 
ATOM     36  H13 UNL     1      50.913 -11.443  17.488  1.00  0.00     0.275 HD
ATOM     37  H12 UNL     1      51.129 -12.714  18.380  1.00  0.00     0.275 HD
ATOM     38  H11 UNL     1      50.409 -11.380  19.077  1.00  0.00     0.275 HD
ENDBRANCH  33  35
ENDBRANCH  30  33
ENDBRANCH   1  29
TORSDOF 8
ENDMDL
MODEL 5
REMARK VINA RESULT: -5.935793956      3.697      7.068
REMARK  8 active torsions:
REMARK  status: ('A' for Active; 'I' for Inactive)
REMARK    1  A    between atoms: C2_2  and  N1_3 
REMARK    2  A    between atoms: C2_2  and  C3_7 
REMARK       I    between atoms: C3_7  and  N2_9 
REMARK    3  A    between atoms: N2_9  and  N3_11 
REMARK    4  A    between atoms: C4_12  and  S1_13 
REMARK    5  A    between atoms: C5_19  and  N5_20 
REMARK       I    between atoms: N5_20  and  C6_22 
REMARK       I    between atoms: C6_22  and  N6_23 
REMARK       I    between atoms: C6_22  and  N7_27 
REMARK    6  A    between atoms: N7_27  and  N8_28 
REMARK    7  A    between atoms: C7_33  and  N10_34 
REMARK    8  A    between atoms: N10_34  and  N11_36 
ROOT
HETATM    1  N3  UNL     1      54.422 -11.430  16.931  1.00  0.00    -0.051 N 
HETATM    2  C4  UNL     1      54.820 -11.302  15.672  1.00  0.00     0.277 A 
HETATM    3  N4  UNL     1      53.917 -11.447  14.639  1.00  0.00    -0.161 N 
ATOM      4  H4  UNL     1      54.256 -11.345  13.682  1.00  0.00     0.186 HD
HETATM    5  C5  UNL     1      52.627 -11.714  14.827  1.00  0.00     0.697 A 
HETATM    6  N9  UNL     1      52.204 -11.841  16.086  1.00  0.00    -0.019 N 
ATOM      7  H9  UNL     1      51.222 -12.043  16.277  1.00  0.00     0.203 HD
HETATM    8  C7  UNL     1      53.058 -11.706  17.086  1.00  0.00     0.734 A 
ENDROOT
BRANCH   5   9
HETATM    9  N5  UNL     1      51.850 -11.837  13.817  1.00  0.00    -0.181 N 
HETATM   10  C6  UNL     1      52.071 -12.500  12.583  1.00  0.00     0.410 C 
HETATM   11  N6  UNL     1      51.761 -11.536  11.510  1.00  0.00    -0.042 N 
HETATM   12  N7  UNL     1      51.085 -13.579  12.370  1.00  0.00    -0.093 NA
ATOM     13  H63 UNL     1      50.825 -11.138  11.588  1.00  0.00     0.278 HD
ATOM     14  H62 UNL     1      52.282 -10.662  11.594  1.00  0.00     0.278 HD
ATOM     15  H61 UNL     1      51.921 -12.012  10.622  1.00  0.00     0.278 HD
ATOM     16  H5  UNL     1      50.937 -11.393  13.914  1.00  0.00     0.181 HD
BRANCH  12  17
HETATM   17  N8  UNL     1      51.244 -14.470  13.432  1.00  0.00    -0.345 N 
ATOM     18  H82 UNL     1      52.087 -14.591  13.994  1.00  0.00     0.172 HD
ATOM     19  H81 UNL     1      50.356 -14.964  13.527  1.00  0.00     0.172 HD
ENDBRANCH  12  17
ENDBRANCH   5   9
BRANCH   2  20
HETATM   20  S1  UNL     1      56.440 -10.816  15.209  1.00  0.00     0.175 S 
HETATM   21  O2  UNL     1      56.710  -9.519  16.044  1.00  0.00    -0.589 OA
HETATM   22  O3  UNL     1      57.504 -11.728  15.707  1.00  0.00    -0.589 OA
HETATM   23  O4  UNL     1      56.568 -10.330  13.635  1.00  0.00    -0.589 OA
ENDBRANCH   2  20
BRANCH   8  24
HETATM   24  N10 UNL     1      52.587 -11.846  18.280  1.00  0.00    -0.136 N 
ATOM     25  H10 UNL     1      53.239 -11.999  19.049  1.00  0.00     0.205 HD
BRANCH  24  26
HETATM   26  N11 UNL     1      51.224 -11.797  18.560  1.00  0.00    -0.331 N 
ATOM     27 2H11 UNL     1      50.744 -10.907  18.424  1.00  0.00     0.177 HD
ATOM     28 1H11 UNL     1      50.700 -12.608  18.892  1.00  0.00     0.177 HD
ENDBRANCH  24  26
ENDBRANCH   8  24
BRANCH   1  29
HETATM   29  N2  UNL     1      55.152 -11.492  18.077  1.00  0.00    -0.245 N 
HETATM   30  C3  UNL     1      56.013 -12.310  18.761  1.00  0.00     0.267 C 
HETATM   31  O1  UNL     1      56.380 -13.438  18.421  1.00  0.00    -0.269 OA
ATOM     32  H2  UNL     1      55.010 -10.634  18.611  1.00  0.00     0.191 HD
BRANCH  30  33
HETATM   33  C2  UNL     1      56.627 -11.868  20.081  1.00  0.00     0.272 C 
HETATM   34  C1  UNL     1      56.953 -13.032  20.945  1.00  0.00     0.050 C 
BRANCH  33  35
HETATM   35  N1  UNL     1      55.798 -10.876  20.654  1.00  0.00    -0.067 N 
ATOM     36  H13 UNL     1      54.960 -10.758  20.085  1.00  0.00     0.275 HD
ATOM     37  H12 UNL     1      55.387 -11.228  21.518  1.00  0.00     0.275 HD
ATOM     38  H11 UNL     1      56.231  -9.968  20.824  1.00  0.00     0.275 HD
ENDBRANCH  33  35
ENDBRANCH  30  33
ENDBRANCH   1  29
TORSDOF 8
ENDMDL
