MODEL 1
REMARK VINA RESULT: -6.487891301      0.000      0.000
REMARK  9 active torsions:
REMARK  status: ('A' for Active; 'I' for Inactive)
REMARK    1  A    between atoms: N1_1  and  N2_4 
REMARK    2  A    between atoms: C2_8  and  N4_9 
REMARK    3  A    between atoms: N4_9  and  C3_11 
REMARK    4  A    between atoms: C5_14  and  C6_15 
REMARK    5  A    between atoms: C6_15  and  O2_16 
REMARK    6  A    between atoms: C7_18  and  C8_19 
REMARK    7  A    between atoms: C8_19  and  O3_20 
REMARK    8  A    between atoms: C8_19  and  O4_22 
REMARK    9  A    between atoms: C9_27  and  C10_28 
ROOT
HETATM    1  C3  UNL     1      52.794 -13.306  14.091  1.00  0.00     0.201 C 
HETATM    2  C4  UNL     1      54.027 -12.684  14.723  1.00  0.00     0.160 C 
HETATM    3  O1  UNL     1      55.047 -12.780  14.138  1.00  0.00    -0.295 OA
HETATM    4  C5  UNL     1      54.128 -11.966  16.027  1.00  0.00     0.110 C 
HETATM    5  C7  UNL     1      52.834 -11.315  16.400  1.00  0.00     0.163 C 
HETATM    6  N5  UNL     1      51.686 -11.778  15.702  1.00  0.00    -0.328 N 
ATOM      7  H5  UNL     1      51.059 -12.481  16.092  1.00  0.00     0.176 HD
HETATM    8  N6  UNL     1      51.473 -11.202  14.445  1.00  0.00    -0.127 NA
HETATM    9  C9  UNL     1      52.144 -12.068  13.490  1.00  0.00     0.230 C 
ENDROOT
BRANCH   1  10
HETATM   10  N4  UNL     1      53.067 -14.213  13.046  1.00  0.00    -0.213 N 
ATOM     11  H4  UNL     1      53.097 -13.804  12.111  1.00  0.00     0.178 HD
BRANCH  10  12
HETATM   12  C2  UNL     1      53.305 -15.608  13.106  1.00  0.00     0.676 C 
HETATM   13  N3  UNL     1      53.570 -16.341  14.246  1.00  0.00    -0.187 N 
HETATM   14  C1  UNL     1      53.677 -17.590  14.466  1.00  0.00     0.219 C 
ATOM     15  H3  UNL     1      53.707 -15.767  15.078  1.00  0.00     0.185 HD
HETATM   16  N2  UNL     1      53.451 -18.370  13.287  1.00  0.00    -0.275 N 
HETATM   17  C11 UNL     1      53.488 -17.758  11.981  1.00  0.00     0.289 C 
HETATM   18  N7  UNL     1      53.242 -16.330  12.000  1.00  0.00    -0.208 N 
ATOM     19  H7  UNL     1      53.009 -15.863  11.124  1.00  0.00     0.179 HD
BRANCH  16  20
HETATM   20  N1  UNL     1      53.078 -19.749  13.440  1.00  0.00    -0.341 N 
ATOM     21  H12 UNL     1      52.118 -20.006  13.672  1.00  0.00     0.177 HD
ATOM     22  H11 UNL     1      53.809 -20.459  13.390  1.00  0.00     0.177 HD
ENDBRANCH  16  20
ENDBRANCH  10  12
ENDBRANCH   1  10
BRANCH   9  23
HETATM   23  C10 UNL     1      51.564 -12.174  12.176  1.00  0.00     0.197 C 
HETATM   24  O5  UNL     1      50.398 -12.632  11.952  1.00  0.00    -0.647 OA
HETATM   25  O6  UNL     1      52.297 -11.759  11.055  1.00  0.00    -0.647 OA
ENDBRANCH   9  23
BRANCH   4  26
HETATM   26  C6  UNL     1      55.147 -10.832  15.882  1.00  0.00     0.178 C 
BRANCH  26  27
HETATM   27  O2  UNL     1      54.822 -10.003  14.828  1.00  0.00    -0.400 OA
ATOM     28  H2  UNL     1      54.023  -9.520  15.005  1.00  0.00     0.209 HD
ENDBRANCH  26  27
ENDBRANCH   4  26
BRANCH   5  29
HETATM   29  C8  UNL     1      52.564 -11.431  17.887  1.00  0.00     0.278 C 
BRANCH  29  30
HETATM   30  O3  UNL     1      51.217 -11.693  18.173  1.00  0.00    -0.369 OA
ATOM     31  H3  UNL     1      51.058 -11.828  19.100  1.00  0.00     0.212 HD
ENDBRANCH  29  30
BRANCH  29  32
HETATM   32  O4  UNL     1      53.356 -12.506  18.324  1.00  0.00    -0.369 OA
ATOM     33  H4  UNL     1      54.041 -12.113  18.853  1.00  0.00     0.212 HD
ENDBRANCH  29  32
ENDBRANCH   5  29
TORSDOF 9
ENDMDL
MODEL 2
REMARK VINA RESULT: -6.476151138      1.030      1.225
REMARK  9 active torsions:
REMARK  status: ('A' for Active; 'I' for Inactive)
REMARK    1  A    between atoms: N1_1  and  N2_4 
REMARK    2  A    between atoms: C2_8  and  N4_9 
REMARK    3  A    between atoms: N4_9  and  C3_11 
REMARK    4  A    between atoms: C5_14  and  C6_15 
REMARK    5  A    between atoms: C6_15  and  O2_16 
REMARK    6  A    between atoms: C7_18  and  C8_19 
REMARK    7  A    between atoms: C8_19  and  O3_20 
REMARK    8  A    between atoms: C8_19  and  O4_22 
REMARK    9  A    between atoms: C9_27  and  C10_28 
ROOT
HETATM    1  C3  UNL     1      52.579 -13.510  14.631  1.00  0.00     0.201 C 
HETATM    2  C4  UNL     1      53.797 -13.033  15.403  1.00  0.00     0.160 C 
HETATM    3  O1  UNL     1      54.860 -13.319  14.977  1.00  0.00    -0.295 OA
HETATM    4  C5  UNL     1      53.832 -12.246  16.670  1.00  0.00     0.110 C 
HETATM    5  C7  UNL     1      52.617 -11.387  16.820  1.00  0.00     0.163 C 
HETATM    6  N5  UNL     1      51.515 -11.724  15.987  1.00  0.00    -0.328 N 
ATOM      7  H5  UNL     1      50.739 -12.298  16.317  1.00  0.00     0.176 HD
HETATM    8  N6  UNL     1      51.567 -11.215  14.685  1.00  0.00    -0.127 NA
HETATM    9  C9  UNL     1      52.217 -12.236  13.882  1.00  0.00     0.230 C 
ENDROOT
BRANCH   1  10
HETATM   10  N4  UNL     1      52.846 -14.519  13.683  1.00  0.00    -0.213 N 
ATOM     11  H4  UNL     1      52.761 -14.234  12.707  1.00  0.00     0.178 HD
BRANCH  10  12
HETATM   12  C2  UNL     1      53.216 -15.871  13.890  1.00  0.00     0.676 C 
HETATM   13  N3  UNL     1      53.696 -16.414  15.066  1.00  0.00    -0.187 N 
HETATM   14  C1  UNL     1      53.944 -17.609  15.430  1.00  0.00     0.219 C 
ATOM     15  H3  UNL     1      53.890 -15.719  15.788  1.00  0.00     0.185 HD
HETATM   16  N2  UNL     1      53.636 -18.562  14.408  1.00  0.00    -0.275 N 
HETATM   17  C11 UNL     1      53.442 -18.140  13.041  1.00  0.00     0.289 C 
HETATM   18  N7  UNL     1      53.072 -16.746  12.909  1.00  0.00    -0.208 N 
ATOM     19  H7  UNL     1      52.684 -16.425  12.022  1.00  0.00     0.179 HD
BRANCH  16  20
HETATM   20  N1  UNL     1      53.413 -19.929  14.792  1.00  0.00    -0.341 N 
ATOM     21  H12 UNL     1      53.532 -20.223  15.761  1.00  0.00     0.177 HD
ATOM     22  H11 UNL     1      53.211 -20.612  14.061  1.00  0.00     0.177 HD
ENDBRANCH  16  20
ENDBRANCH  10  12
ENDBRANCH   1  10
BRANCH   9  23
HETATM   23  C10 UNL     1      51.811 -12.349  12.504  1.00  0.00     0.197 C 
HETATM   24  O5  UNL     1      52.581 -12.115  11.520  1.00  0.00    -0.647 OA
HETATM   25  O6  UNL     1      50.500 -12.736  12.193  1.00  0.00    -0.647 OA
ENDBRANCH   9  23
BRANCH   4  26
HETATM   26  C6  UNL     1      55.025 -11.287  16.617  1.00  0.00     0.178 C 
BRANCH  26  27
HETATM   27  O2  UNL     1      55.742 -11.319  17.794  1.00  0.00    -0.400 OA
ATOM     28  H2  UNL     1      56.148 -10.478  17.972  1.00  0.00     0.209 HD
ENDBRANCH  26  27
ENDBRANCH   4  26
BRANCH   5  29
HETATM   29  C8  UNL     1      52.133 -11.355  18.256  1.00  0.00     0.278 C 
BRANCH  29  30
HETATM   30  O3  UNL     1      50.852 -11.902  18.408  1.00  0.00    -0.369 OA
ATOM     31  H3  UNL     1      50.366 -11.506  19.122  1.00  0.00     0.212 HD
ENDBRANCH  29  30
BRANCH  29  32
HETATM   32  O4  UNL     1      53.062 -12.125  18.976  1.00  0.00    -0.369 OA
ATOM     33  H4  UNL     1      53.399 -12.758  18.352  1.00  0.00     0.212 HD
ENDBRANCH  29  32
ENDBRANCH   5  29
TORSDOF 9
ENDMDL
MODEL 3
REMARK VINA RESULT: -6.354207233      0.324      1.024
REMARK  9 active torsions:
REMARK  status: ('A' for Active; 'I' for Inactive)
REMARK    1  A    between atoms: N1_1  and  N2_4 
REMARK    2  A    between atoms: C2_8  and  N4_9 
REMARK    3  A    between atoms: N4_9  and  C3_11 
REMARK    4  A    between atoms: C5_14  and  C6_15 
REMARK    5  A    between atoms: C6_15  and  O2_16 
REMARK    6  A    between atoms: C7_18  and  C8_19 
REMARK    7  A    between atoms: C8_19  and  O3_20 
REMARK    8  A    between atoms: C8_19  and  O4_22 
REMARK    9  A    between atoms: C9_27  and  C10_28 
ROOT
HETATM    1  C3  UNL     1      52.833 -13.279  14.025  1.00  0.00     0.201 C 
HETATM    2  C4  UNL     1      54.060 -12.644  14.656  1.00  0.00     0.160 C 
HETATM    3  O1  UNL     1      55.077 -12.712  14.061  1.00  0.00    -0.295 OA
HETATM    4  C5  UNL     1      54.159 -11.942  15.969  1.00  0.00     0.110 C 
HETATM    5  C7  UNL     1      52.857 -11.320  16.361  1.00  0.00     0.163 C 
HETATM    6  N5  UNL     1      51.711 -11.793  15.666  1.00  0.00    -0.328 N 
ATOM      7  H5  UNL     1      51.100 -12.513  16.051  1.00  0.00     0.176 HD
HETATM    8  N6  UNL     1      51.478 -11.205  14.419  1.00  0.00    -0.127 NA
HETATM    9  C9  UNL     1      52.156 -12.045  13.447  1.00  0.00     0.230 C 
ENDROOT
BRANCH   1  10
HETATM   10  N4  UNL     1      53.114 -14.166  12.966  1.00  0.00    -0.213 N 
ATOM     11  H4  UNL     1      53.340 -13.723  12.075  1.00  0.00     0.178 HD
BRANCH  10  12
HETATM   12  C2  UNL     1      53.127 -15.583  12.959  1.00  0.00     0.676 C 
HETATM   13  N3  UNL     1      52.935 -16.394  11.858  1.00  0.00    -0.187 N 
HETATM   14  C1  UNL     1      53.042 -17.651  11.679  1.00  0.00     0.219 C 
ATOM     15  H3  UNL     1      52.651 -15.886  11.020  1.00  0.00     0.185 HD
HETATM   16  N2  UNL     1      53.469 -18.332  12.863  1.00  0.00    -0.275 N 
HETATM   17  C11 UNL     1      53.396 -17.686  14.152  1.00  0.00     0.289 C 
HETATM   18  N7  UNL     1      53.380 -16.240  14.078  1.00  0.00    -0.208 N 
ATOM     19  H7  UNL     1      53.573 -15.705  14.925  1.00  0.00     0.179 HD
BRANCH  16  20
HETATM   20  N1  UNL     1      54.074 -19.628  12.726  1.00  0.00    -0.341 N 
ATOM     21  H12 UNL     1      54.171 -20.063  11.808  1.00  0.00     0.177 HD
ATOM     22  H11 UNL     1      54.332 -20.136  13.573  1.00  0.00     0.177 HD
ENDBRANCH  16  20
ENDBRANCH  10  12
ENDBRANCH   1  10
BRANCH   9  23
HETATM   23  C10 UNL     1      51.567 -12.144  12.136  1.00  0.00     0.197 C 
HETATM   24  O5  UNL     1      50.391 -12.577  11.920  1.00  0.00    -0.647 OA
HETATM   25  O6  UNL     1      52.303 -11.749  11.010  1.00  0.00    -0.647 OA
ENDBRANCH   9  23
BRANCH   4  26
HETATM   26  C6  UNL     1      55.156 -10.787  15.831  1.00  0.00     0.178 C 
BRANCH  26  27
HETATM   27  O2  UNL     1      54.801  -9.944  14.798  1.00  0.00    -0.400 OA
ATOM     28  H2  UNL     1      54.801  -9.037  15.080  1.00  0.00     0.209 HD
ENDBRANCH  26  27
ENDBRANCH   4  26
BRANCH   5  29
HETATM   29  C8  UNL     1      52.601 -11.460  17.849  1.00  0.00     0.278 C 
BRANCH  29  30
HETATM   30  O3  UNL     1      51.254 -11.710  18.144  1.00  0.00    -0.369 OA
ATOM     31  H3  UNL     1      50.665 -11.090  17.728  1.00  0.00     0.212 HD
ENDBRANCH  29  30
BRANCH  29  32
HETATM   32  O4  UNL     1      53.383 -12.554  18.256  1.00  0.00    -0.369 OA
ATOM     33  H4  UNL     1      54.008 -12.196  18.877  1.00  0.00     0.212 HD
ENDBRANCH  29  32
ENDBRANCH   5  29
TORSDOF 9
ENDMDL
MODEL 4
REMARK VINA RESULT: -6.247002600      2.723      6.104
REMARK  9 active torsions:
REMARK  status: ('A' for Active; 'I' for Inactive)
REMARK    1  A    between atoms: N1_1  and  N2_4 
REMARK    2  A    between atoms: C2_8  and  N4_9 
REMARK    3  A    between atoms: N4_9  and  C3_11 
REMARK    4  A    between atoms: C5_14  and  C6_15 
REMARK    5  A    between atoms: C6_15  and  O2_16 
REMARK    6  A    between atoms: C7_18  and  C8_19 
REMARK    7  A    between atoms: C8_19  and  O3_20 
REMARK    8  A    between atoms: C8_19  and  O4_22 
REMARK    9  A    between atoms: C9_27  and  C10_28 
ROOT
HETATM    1  C3  UNL     1      53.352 -12.308  15.240  1.00  0.00     0.201 C 
HETATM    2  C4  UNL     1      52.162 -12.152  14.310  1.00  0.00     0.160 C 
HETATM    3  O1  UNL     1      51.419 -11.259  14.518  1.00  0.00    -0.295 OA
HETATM    4  C5  UNL     1      51.784 -13.010  13.148  1.00  0.00     0.110 C 
HETATM    5  C7  UNL     1      52.981 -13.663  12.534  1.00  0.00     0.163 C 
HETATM    6  N5  UNL     1      54.156 -13.679  13.334  1.00  0.00    -0.328 N 
ATOM      7  H5  UNL     1      54.420 -14.488  13.897  1.00  0.00     0.176 HD
HETATM    8  N6  UNL     1      54.925 -12.512  13.296  1.00  0.00    -0.127 NA
HETATM    9  C9  UNL     1      54.445 -11.681  14.388  1.00  0.00     0.230 C 
ENDROOT
BRANCH   1  10
HETATM   10  N4  UNL     1      53.254 -11.577  16.442  1.00  0.00    -0.213 N 
ATOM     11  H4  UNL     1      53.015 -10.591  16.333  1.00  0.00     0.178 HD
BRANCH  10  12
HETATM   12  C2  UNL     1      53.440 -12.012  17.777  1.00  0.00     0.676 C 
HETATM   13  N3  UNL     1      54.143 -13.132  18.178  1.00  0.00    -0.187 N 
HETATM   14  C1  UNL     1      54.494 -13.570  19.321  1.00  0.00     0.219 C 
ATOM     15  H3  UNL     1      54.441 -13.726  17.404  1.00  0.00     0.185 HD
HETATM   16  N2  UNL     1      54.087 -12.701  20.383  1.00  0.00    -0.275 N 
HETATM   17  C11 UNL     1      53.085 -11.686  20.161  1.00  0.00     0.289 C 
HETATM   18  N7  UNL     1      52.948 -11.297  18.773  1.00  0.00    -0.208 N 
ATOM     19  H7  UNL     1      52.451 -10.433  18.555  1.00  0.00     0.179 HD
BRANCH  16  20
HETATM   20  N1  UNL     1      54.777 -12.787  21.640  1.00  0.00    -0.341 N 
ATOM     21  H12 UNL     1      54.380 -13.316  22.417  1.00  0.00     0.177 HD
ATOM     22  H11 UNL     1      55.632 -12.244  21.763  1.00  0.00     0.177 HD
ENDBRANCH  16  20
ENDBRANCH  10  12
ENDBRANCH   1  10
BRANCH   9  23
HETATM   23  C10 UNL     1      55.405 -10.824  15.035  1.00  0.00     0.197 C 
HETATM   24  O5  UNL     1      56.381 -11.254  15.729  1.00  0.00    -0.647 OA
HETATM   25  O6  UNL     1      55.289  -9.433  14.916  1.00  0.00    -0.647 OA
ENDBRANCH   9  23
BRANCH   4  26
HETATM   26  C6  UNL     1      51.182 -12.118  12.059  1.00  0.00     0.178 C 
BRANCH  26  27
HETATM   27  O2  UNL     1      52.045 -11.098  11.717  1.00  0.00    -0.400 OA
ATOM     28  H2  UNL     1      51.741 -10.635  10.945  1.00  0.00     0.209 HD
ENDBRANCH  26  27
ENDBRANCH   4  26
BRANCH   5  29
HETATM   29  C8  UNL     1      52.678 -15.087  12.108  1.00  0.00     0.278 C 
BRANCH  29  30
HETATM   30  O3  UNL     1      53.751 -15.960  12.338  1.00  0.00    -0.369 OA
ATOM     31  H3  UNL     1      54.258 -16.133  11.553  1.00  0.00     0.212 HD
ENDBRANCH  29  30
BRANCH  29  32
HETATM   32  O4  UNL     1      51.576 -15.479  12.887  1.00  0.00    -0.369 OA
ATOM     33  H4  UNL     1      51.023 -15.982  12.301  1.00  0.00     0.212 HD
ENDBRANCH  29  32
ENDBRANCH   5  29
TORSDOF 9
ENDMDL
MODEL 5
REMARK VINA RESULT: -6.049865220      2.814      6.198
REMARK  9 active torsions:
REMARK  status: ('A' for Active; 'I' for Inactive)
REMARK    1  A    between atoms: N1_1  and  N2_4 
REMARK    2  A    between atoms: C2_8  and  N4_9 
REMARK    3  A    between atoms: N4_9  and  C3_11 
REMARK    4  A    between atoms: C5_14  and  C6_15 
REMARK    5  A    between atoms: C6_15  and  O2_16 
REMARK    6  A    between atoms: C7_18  and  C8_19 
REMARK    7  A    between atoms: C8_19  and  O3_20 
REMARK    8  A    between atoms: C8_19  and  O4_22 
REMARK    9  A    between atoms: C9_27  and  C10_28 
ROOT
HETATM    1  C3  UNL     1      53.502 -12.193  15.411  1.00  0.00     0.201 C 
HETATM    2  C4  UNL     1      52.281 -12.195  14.508  1.00  0.00     0.160 C 
HETATM    3  O1  UNL     1      51.506 -11.315  14.637  1.00  0.00    -0.295 OA
HETATM    4  C5  UNL     1      51.911 -13.195  13.465  1.00  0.00     0.110 C 
HETATM    5  C7  UNL     1      53.118 -13.866  12.891  1.00  0.00     0.163 C 
HETATM    6  N5  UNL     1      54.314 -13.741  13.649  1.00  0.00    -0.328 N 
ATOM      7  H5  UNL     1      54.629 -14.468  14.292  1.00  0.00     0.176 HD
HETATM    8  N6  UNL     1      55.029 -12.555  13.454  1.00  0.00    -0.127 NA
HETATM    9  C9  UNL     1      54.543 -11.625  14.458  1.00  0.00     0.230 C 
ENDROOT
BRANCH   1  10
HETATM   10  N4  UNL     1      53.405 -11.333  16.524  1.00  0.00    -0.213 N 
ATOM     11  H4  UNL     1      52.997 -10.417  16.333  1.00  0.00     0.178 HD
BRANCH  10  12
HETATM   12  C2  UNL     1      53.791 -11.555  17.868  1.00  0.00     0.676 C 
HETATM   13  N3  UNL     1      52.941 -11.768  18.936  1.00  0.00    -0.187 N 
HETATM   14  C1  UNL     1      53.141 -12.099  20.149  1.00  0.00     0.219 C 
ATOM     15  H3  UNL     1      51.956 -11.632  18.708  1.00  0.00     0.185 HD
HETATM   16  N2  UNL     1      54.528 -12.310  20.432  1.00  0.00    -0.275 N 
HETATM   17  C11 UNL     1      55.546 -11.821  19.533  1.00  0.00     0.289 C 
HETATM   18  N7  UNL     1      55.075 -11.612  18.179  1.00  0.00    -0.208 N 
ATOM     19  H7  UNL     1      55.763 -11.505  17.434  1.00  0.00     0.179 HD
BRANCH  16  20
HETATM   20  N1  UNL     1      54.880 -13.114  21.570  1.00  0.00    -0.341 N 
ATOM     21  H12 UNL     1      54.662 -14.111  21.590  1.00  0.00     0.177 HD
ATOM     22  H11 UNL     1      55.280 -12.652  22.387  1.00  0.00     0.177 HD
ENDBRANCH  16  20
ENDBRANCH  10  12
ENDBRANCH   1  10
BRANCH   9  23
HETATM   23  C10 UNL     1      55.481 -10.660  14.972  1.00  0.00     0.197 C 
HETATM   24  O5  UNL     1      56.546 -10.973  15.594  1.00  0.00    -0.647 OA
HETATM   25  O6  UNL     1      55.240  -9.291  14.797  1.00  0.00    -0.647 OA
ENDBRANCH   9  23
BRANCH   4  26
HETATM   26  C6  UNL     1      51.240 -12.460  12.300  1.00  0.00     0.178 C 
BRANCH  26  27
HETATM   27  O2  UNL     1      51.949 -11.330  11.950  1.00  0.00    -0.400 OA
ATOM     28  H2  UNL     1      51.377 -10.666  11.583  1.00  0.00     0.209 HD
ENDBRANCH  26  27
ENDBRANCH   4  26
BRANCH   5  29
HETATM   29  C8  UNL     1      52.867 -15.340  12.640  1.00  0.00     0.278 C 
BRANCH  29  30
HETATM   30  O3  UNL     1      51.563 -15.731  12.974  1.00  0.00    -0.369 OA
ATOM     31  H3  UNL     1      50.919 -15.439  12.340  1.00  0.00     0.212 HD
ENDBRANCH  29  30
BRANCH  29  32
HETATM   32  O4  UNL     1      53.076 -15.521  11.263  1.00  0.00    -0.369 OA
ATOM     33  H4  UNL     1      54.018 -15.475  11.145  1.00  0.00     0.212 HD
ENDBRANCH  29  32
ENDBRANCH   5  29
TORSDOF 9
ENDMDL
