MODEL 1
REMARK VINA RESULT: -8.276117717      0.000      0.000
REMARK  3 active torsions:
REMARK  status: ('A' for Active; 'I' for Inactive)
REMARK    1  A    between atoms: N2_15  and  C11_16 
REMARK    2  A    between atoms: C11_16  and  C12_17 
REMARK    3  A    between atoms: C12_17  and  N3_18 
ROOT
HETATM    1  O1  UNL     1      -9.267  22.834  62.925  1.00  0.00    -0.273 OA
HETATM    2  C1  UNL     1     -10.070  21.900  62.746  1.00  0.00     0.221 C 
HETATM    3  C2  UNL     1      -9.940  20.612  63.499  1.00  0.00     0.123 C 
HETATM    4  C3  UNL     1     -11.438  20.274  63.640  1.00  0.00     0.065 C 
HETATM    5  C4  UNL     1     -11.527  18.857  64.081  1.00  0.00     0.021 C 
HETATM    6  C5  UNL     1     -12.888  18.372  64.426  1.00  0.00     0.001 C 
HETATM    7  C6  UNL     1     -13.474  18.875  65.698  1.00  0.00     0.002 C 
HETATM    8  C7  UNL     1     -12.513  19.049  66.832  1.00  0.00     0.020 C 
HETATM    9  C8  UNL     1     -12.118  20.458  67.110  1.00  0.00     0.122 C 
HETATM   10  N1  UNL     1     -12.144  21.325  65.960  1.00  0.00    -0.360 N 
ATOM     11  H1  UNL     1     -12.259  22.296  66.251  1.00  0.00     0.162 HD
HETATM   12  C9  UNL     1     -12.060  21.240  64.563  1.00  0.00     0.228 C 
HETATM   13  O2  UNL     1     -12.626  22.169  63.955  1.00  0.00    -0.273 OA
HETATM   14  C10 UNL     1     -11.887  20.525  62.223  1.00  0.00     0.145 C 
HETATM   15  N2  UNL     1     -11.191  21.794  61.896  1.00  0.00    -0.349 N 
ENDROOT
BRANCH  15  16
HETATM   16  C11 UNL     1     -11.611  22.721  60.875  1.00  0.00     0.156 C 
BRANCH  16  17
HETATM   17  C12 UNL     1     -10.884  22.659  59.589  1.00  0.00     0.292 C 
BRANCH  17  18
HETATM   18  N3  UNL     1     -11.309  21.660  58.640  1.00  0.00     0.094 N 
HETATM   19  C13 UNL     1     -10.951  22.199  57.325  1.00  0.00     0.298 C 
HETATM   20  C14 UNL     1      -9.517  21.872  57.056  1.00  0.00     0.198 C 
HETATM   21  O3  UNL     1      -9.468  20.515  56.746  1.00  0.00    -0.388 OA
HETATM   22  C15 UNL     1     -10.053  19.730  57.705  1.00  0.00     0.198 C 
HETATM   23  C16 UNL     1     -10.587  20.435  58.903  1.00  0.00     0.298 C 
ENDBRANCH  17  18
ENDBRANCH  16  17
ENDBRANCH  15  16
TORSDOF 3
ENDMDL
MODEL 2
REMARK VINA RESULT: -8.119336003      3.004      5.021
REMARK  3 active torsions:
REMARK  status: ('A' for Active; 'I' for Inactive)
REMARK    1  A    between atoms: N2_15  and  C11_16 
REMARK    2  A    between atoms: C11_16  and  C12_17 
REMARK    3  A    between atoms: C12_17  and  N3_18 
ROOT
HETATM    1  O1  UNL     1     -11.665  22.113  60.813  1.00  0.00    -0.273 OA
HETATM    2  C1  UNL     1     -11.548  22.232  62.046  1.00  0.00     0.221 C 
HETATM    3  C2  UNL     1     -12.674  21.879  62.968  1.00  0.00     0.123 C 
HETATM    4  C3  UNL     1     -11.845  21.341  64.151  1.00  0.00     0.065 C 
HETATM    5  C4  UNL     1     -12.762  21.233  65.316  1.00  0.00     0.021 C 
HETATM    6  C5  UNL     1     -12.196  20.586  66.527  1.00  0.00     0.001 C 
HETATM    7  C6  UNL     1     -11.993  19.114  66.465  1.00  0.00     0.002 C 
HETATM    8  C7  UNL     1     -13.036  18.345  65.715  1.00  0.00     0.020 C 
HETATM    9  C8  UNL     1     -12.627  17.894  64.356  1.00  0.00     0.122 C 
HETATM   10  N1  UNL     1     -11.658  18.741  63.710  1.00  0.00    -0.360 N 
ATOM     11  H1  UNL     1     -11.138  18.214  63.008  1.00  0.00     0.162 HD
HETATM   12  C9  UNL     1     -11.212  20.070  63.753  1.00  0.00     0.228 C 
HETATM   13  O2  UNL     1     -10.035  20.232  63.378  1.00  0.00    -0.273 OA
HETATM   14  C10 UNL     1     -10.816  22.438  64.256  1.00  0.00     0.145 C 
HETATM   15  N2  UNL     1     -10.464  22.673  62.834  1.00  0.00    -0.349 N 
ENDROOT
BRANCH  15  16
HETATM   16  C11 UNL     1      -9.228  23.260  62.380  1.00  0.00     0.156 C 
BRANCH  16  17
HETATM   17  C12 UNL     1      -9.180  24.738  62.331  1.00  0.00     0.292 C 
BRANCH  17  18
HETATM   18  N3  UNL     1      -8.849  25.427  63.553  1.00  0.00     0.094 N 
HETATM   19  C13 UNL     1      -7.882  24.561  64.235  1.00  0.00     0.298 C 
HETATM   20  C14 UNL     1      -6.522  24.849  63.682  1.00  0.00     0.198 C 
HETATM   21  O3  UNL     1      -6.124  26.071  64.218  1.00  0.00    -0.388 OA
HETATM   22  C15 UNL     1      -7.039  27.068  64.005  1.00  0.00     0.198 C 
HETATM   23  C16 UNL     1      -8.250  26.700  63.220  1.00  0.00     0.298 C 
ENDBRANCH  17  18
ENDBRANCH  16  17
ENDBRANCH  15  16
TORSDOF 3
ENDMDL
MODEL 3
REMARK VINA RESULT: -8.115236849      1.398      1.864
REMARK  3 active torsions:
REMARK  status: ('A' for Active; 'I' for Inactive)
REMARK    1  A    between atoms: N2_15  and  C11_16 
REMARK    2  A    between atoms: C11_16  and  C12_17 
REMARK    3  A    between atoms: C12_17  and  N3_18 
ROOT
HETATM    1  O1  UNL     1      -9.310  22.831  62.643  1.00  0.00    -0.273 OA
HETATM    2  C1  UNL     1     -10.070  21.861  62.468  1.00  0.00     0.221 C 
HETATM    3  C2  UNL     1      -9.947  20.622  63.301  1.00  0.00     0.123 C 
HETATM    4  C3  UNL     1     -11.439  20.239  63.368  1.00  0.00     0.065 C 
HETATM    5  C4  UNL     1     -11.511  18.846  63.883  1.00  0.00     0.021 C 
HETATM    6  C5  UNL     1     -12.875  18.333  64.171  1.00  0.00     0.001 C 
HETATM    7  C6  UNL     1     -13.556  18.885  65.372  1.00  0.00     0.002 C 
HETATM    8  C7  UNL     1     -12.676  19.155  66.552  1.00  0.00     0.020 C 
HETATM    9  C8  UNL     1     -12.346  20.591  66.773  1.00  0.00     0.122 C 
HETATM   10  N1  UNL     1     -12.326  21.392  65.576  1.00  0.00    -0.360 N 
ATOM     11  H1  UNL     1     -12.490  22.373  65.802  1.00  0.00     0.162 HD
HETATM   12  C9  UNL     1     -12.150  21.232  64.193  1.00  0.00     0.228 C 
HETATM   13  O2  UNL     1     -12.705  22.106  63.499  1.00  0.00    -0.273 OA
HETATM   14  C10 UNL     1     -11.805  20.396  61.914  1.00  0.00     0.145 C 
HETATM   15  N2  UNL     1     -11.130  21.668  61.557  1.00  0.00    -0.349 N 
ENDROOT
BRANCH  15  16
HETATM   16  C11 UNL     1     -11.514  22.522  60.461  1.00  0.00     0.156 C 
BRANCH  16  17
HETATM   17  C12 UNL     1     -10.820  22.295  59.175  1.00  0.00     0.292 C 
BRANCH  17  18
HETATM   18  N3  UNL     1     -11.287  23.042  58.034  1.00  0.00     0.094 N 
HETATM   19  C13 UNL     1     -11.365  22.068  56.941  1.00  0.00     0.298 C 
HETATM   20  C14 UNL     1     -12.677  21.357  57.037  1.00  0.00     0.198 C 
HETATM   21  O3  UNL     1     -13.649  22.250  56.592  1.00  0.00    -0.388 OA
HETATM   22  C15 UNL     1     -13.611  23.450  57.253  1.00  0.00     0.198 C 
HETATM   23  C16 UNL     1     -12.596  23.578  58.335  1.00  0.00     0.298 C 
ENDBRANCH  17  18
ENDBRANCH  16  17
ENDBRANCH  15  16
TORSDOF 3
ENDMDL
MODEL 4
REMARK VINA RESULT: -8.072414594      0.852      1.124
REMARK  3 active torsions:
REMARK  status: ('A' for Active; 'I' for Inactive)
REMARK    1  A    between atoms: N2_15  and  C11_16 
REMARK    2  A    between atoms: C11_16  and  C12_17 
REMARK    3  A    between atoms: C12_17  and  N3_18 
ROOT
HETATM    1  O1  UNL     1      -9.329  22.939  62.703  1.00  0.00    -0.273 OA
HETATM    2  C1  UNL     1     -10.072  21.960  62.507  1.00  0.00     0.221 C 
HETATM    3  C2  UNL     1      -9.922  20.702  63.307  1.00  0.00     0.123 C 
HETATM    4  C3  UNL     1     -11.406  20.291  63.373  1.00  0.00     0.065 C 
HETATM    5  C4  UNL     1     -11.449  18.884  63.852  1.00  0.00     0.021 C 
HETATM    6  C5  UNL     1     -12.802  18.339  64.135  1.00  0.00     0.001 C 
HETATM    7  C6  UNL     1     -13.486  18.847  65.355  1.00  0.00     0.002 C 
HETATM    8  C7  UNL     1     -12.602  19.103  66.536  1.00  0.00     0.020 C 
HETATM    9  C8  UNL     1     -12.296  20.539  66.792  1.00  0.00     0.122 C 
HETATM   10  N1  UNL     1     -12.299  21.370  65.615  1.00  0.00    -0.360 N 
ATOM     11  H1  UNL     1     -12.479  22.342  65.868  1.00  0.00     0.162 HD
HETATM   12  C9  UNL     1     -12.129  21.249  64.228  1.00  0.00     0.228 C 
HETATM   13  O2  UNL     1     -12.704  22.130  63.560  1.00  0.00    -0.273 OA
HETATM   14  C10 UNL     1     -11.784  20.478  61.926  1.00  0.00     0.145 C 
HETATM   15  N2  UNL     1     -11.135  21.771  61.598  1.00  0.00    -0.349 N 
ENDROOT
BRANCH  15  16
HETATM   16  C11 UNL     1     -11.541  22.646  60.527  1.00  0.00     0.156 C 
BRANCH  16  17
HETATM   17  C12 UNL     1     -10.539  22.903  59.471  1.00  0.00     0.292 C 
BRANCH  17  18
HETATM   18  N3  UNL     1     -10.891  22.530  58.124  1.00  0.00     0.094 N 
HETATM   19  C13 UNL     1      -9.936  21.482  57.750  1.00  0.00     0.298 C 
HETATM   20  C14 UNL     1     -10.445  20.175  58.266  1.00  0.00     0.198 C 
HETATM   21  O3  UNL     1     -11.500  19.801  57.437  1.00  0.00    -0.388 OA
HETATM   22  C15 UNL     1     -12.459  20.774  57.326  1.00  0.00     0.198 C 
HETATM   23  C16 UNL     1     -12.242  22.013  58.124  1.00  0.00     0.298 C 
ENDBRANCH  17  18
ENDBRANCH  16  17
ENDBRANCH  15  16
TORSDOF 3
ENDMDL
MODEL 5
REMARK VINA RESULT: -8.012199320      1.302      1.713
REMARK  3 active torsions:
REMARK  status: ('A' for Active; 'I' for Inactive)
REMARK    1  A    between atoms: N2_15  and  C11_16 
REMARK    2  A    between atoms: C11_16  and  C12_17 
REMARK    3  A    between atoms: C12_17  and  N3_18 
ROOT
HETATM    1  O1  UNL     1      -9.334  22.921  62.693  1.00  0.00    -0.273 OA
HETATM    2  C1  UNL     1     -10.091  21.949  62.522  1.00  0.00     0.221 C 
HETATM    3  C2  UNL     1      -9.926  20.690  63.318  1.00  0.00     0.123 C 
HETATM    4  C3  UNL     1     -11.411  20.291  63.432  1.00  0.00     0.065 C 
HETATM    5  C4  UNL     1     -11.451  18.886  63.913  1.00  0.00     0.021 C 
HETATM    6  C5  UNL     1     -12.799  18.352  64.239  1.00  0.00     0.001 C 
HETATM    7  C6  UNL     1     -13.439  18.867  65.480  1.00  0.00     0.002 C 
HETATM    8  C7  UNL     1     -12.516  19.116  66.632  1.00  0.00     0.020 C 
HETATM    9  C8  UNL     1     -12.190  20.549  66.877  1.00  0.00     0.122 C 
HETATM   10  N1  UNL     1     -12.223  21.379  65.700  1.00  0.00    -0.360 N 
ATOM     11  H1  UNL     1     -12.387  22.353  65.958  1.00  0.00     0.162 HD
HETATM   12  C9  UNL     1     -12.099  21.257  64.309  1.00  0.00     0.228 C 
HETATM   13  O2  UNL     1     -12.687  22.142  63.658  1.00  0.00    -0.273 OA
HETATM   14  C10 UNL     1     -11.833  20.481  61.997  1.00  0.00     0.145 C 
HETATM   15  N2  UNL     1     -11.184  21.769  61.648  1.00  0.00    -0.349 N 
ENDROOT
BRANCH  15  16
HETATM   16  C11 UNL     1     -11.617  22.646  60.589  1.00  0.00     0.156 C 
BRANCH  16  17
HETATM   17  C12 UNL     1     -10.819  22.620  59.345  1.00  0.00     0.292 C 
BRANCH  17  18
HETATM   18  N3  UNL     1     -11.523  22.346  58.117  1.00  0.00     0.094 N 
HETATM   19  C13 UNL     1     -12.559  23.379  58.027  1.00  0.00     0.298 C 
HETATM   20  C14 UNL     1     -11.950  24.605  57.426  1.00  0.00     0.198 C 
HETATM   21  O3  UNL     1     -11.792  24.348  56.066  1.00  0.00    -0.388 OA
HETATM   22  C15 UNL     1     -11.092  23.196  55.821  1.00  0.00     0.198 C 
HETATM   23  C16 UNL     1     -10.593  22.457  57.015  1.00  0.00     0.298 C 
ENDBRANCH  17  18
ENDBRANCH  16  17
ENDBRANCH  15  16
TORSDOF 3
ENDMDL
