MODEL 1
REMARK VINA RESULT: -9.042946843      0.000      0.000
REMARK  6 active torsions:
REMARK  status: ('A' for Active; 'I' for Inactive)
REMARK    1  A    between atoms: C2_2  and  C3_3 
REMARK    2  A    between atoms: C3_3  and  C4_5 
REMARK    3  A    between atoms: C4_5  and  C5_6 
REMARK    4  A    between atoms: C15_18  and  C17_20 
REMARK    5  A    between atoms: C17_20  and  C18_21 
REMARK    6  A    between atoms: C18_21  and  C19_22 
ROOT
HETATM    1  C5  UNL     1     -11.051  -7.509   7.872  1.00  0.00    -0.003 C 
HETATM    2  C6  UNL     1     -11.383  -6.745   9.075  1.00  0.00     0.008 C 
HETATM    3  C7  UNL     1     -12.733  -6.090   9.133  1.00  0.00     0.034 C 
HETATM    4  C8  UNL     1     -13.817  -7.068   9.074  1.00  0.00     0.060 A 
HETATM    5  N1  UNL     1     -14.518  -7.670  10.076  1.00  0.00    -0.398 N 
ATOM      6  H1  UNL     1     -15.253  -7.652  10.783  1.00  0.00     0.155 HD
HETATM    7  C9  UNL     1     -13.433  -8.360   9.381  1.00  0.00     0.057 A 
HETATM    8  C10 UNL     1     -12.811  -9.255  10.319  1.00  0.00     0.041 C 
HETATM    9  C11 UNL     1     -13.339  -8.608   7.919  1.00  0.00    -0.004 C 
HETATM   10  C12 UNL     1     -13.870 -10.030   7.706  1.00  0.00     0.019 C 
HETATM   11  C13 UNL     1     -12.076  -8.346   7.227  1.00  0.00    -0.003 C 
HETATM   12  C14 UNL     1     -11.448  -9.673   6.746  1.00  0.00     0.011 C 
HETATM   13  C15 UNL     1     -14.309  -7.479   7.692  1.00  0.00    -0.006 C 
HETATM   14  C16 UNL     1     -15.772  -8.002   7.708  1.00  0.00     0.019 C 
ENDROOT
BRANCH  13  15
HETATM   15  C17 UNL     1     -14.186  -6.554   6.580  1.00  0.00     0.016 C 
BRANCH  15  16
HETATM   16  C18 UNL     1     -15.056  -6.788   5.396  1.00  0.00     0.028 C 
BRANCH  16  17
HETATM   17  C19 UNL     1     -16.095  -5.792   5.084  1.00  0.00    -0.025 C 
HETATM   18  C20 UNL     1     -17.324  -6.147   4.659  1.00  0.00    -0.091 C 
HETATM   19  C21 UNL     1     -18.357  -5.123   4.352  1.00  0.00     0.042 C 
HETATM   20  C22 UNL     1     -17.671  -7.569   4.492  1.00  0.00     0.042 C 
ENDBRANCH  16  17
ENDBRANCH  15  16
ENDBRANCH  13  15
BRANCH   1  21
HETATM   21  C4  UNL     1      -9.783  -8.308   8.201  1.00  0.00     0.083 C 
BRANCH  21  22
HETATM   22  C3  UNL     1      -8.595  -7.750   7.498  1.00  0.00     0.127 C 
HETATM   23  O1  UNL     1      -8.626  -6.657   6.968  1.00  0.00    -0.298 OA
BRANCH  22  24
HETATM   24  C2  UNL     1      -7.306  -8.487   7.397  1.00  0.00     0.074 C 
HETATM   25  C1  UNL     1      -6.780  -8.536   6.003  1.00  0.00     0.013 C 
ENDBRANCH  22  24
ENDBRANCH  21  22
ENDBRANCH   1  21
TORSDOF 6
ENDMDL
MODEL 2
REMARK VINA RESULT: -8.627139203      1.987      6.500
REMARK  6 active torsions:
REMARK  status: ('A' for Active; 'I' for Inactive)
REMARK    1  A    between atoms: C2_2  and  C3_3 
REMARK    2  A    between atoms: C3_3  and  C4_5 
REMARK    3  A    between atoms: C4_5  and  C5_6 
REMARK    4  A    between atoms: C15_18  and  C17_20 
REMARK    5  A    between atoms: C17_20  and  C18_21 
REMARK    6  A    between atoms: C18_21  and  C19_22 
ROOT
HETATM    1  C5  UNL     1     -13.915  -8.469   6.015  1.00  0.00    -0.003 C 
HETATM    2  C6  UNL     1     -13.739  -9.742   6.715  1.00  0.00     0.008 C 
HETATM    3  C7  UNL     1     -12.512  -9.906   7.566  1.00  0.00     0.034 C 
HETATM    4  C8  UNL     1     -12.473  -8.939   8.659  1.00  0.00     0.060 A 
HETATM    5  N1  UNL     1     -12.887  -9.053   9.953  1.00  0.00    -0.398 N 
ATOM      6  H1  UNL     1     -12.741  -9.377  10.909  1.00  0.00     0.155 HD
HETATM    7  C9  UNL     1     -13.696  -8.361   8.950  1.00  0.00     0.057 A 
HETATM    8  C10 UNL     1     -15.078  -8.549   9.298  1.00  0.00     0.041 C 
HETATM    9  C11 UNL     1     -13.271  -7.204   8.120  1.00  0.00    -0.004 C 
HETATM   10  C12 UNL     1     -13.794  -5.961   8.847  1.00  0.00     0.019 C 
HETATM   11  C13 UNL     1     -13.560  -7.207   6.685  1.00  0.00    -0.003 C 
HETATM   12  C14 UNL     1     -14.606  -6.121   6.351  1.00  0.00     0.011 C 
HETATM   13  C15 UNL     1     -11.836  -7.585   8.371  1.00  0.00    -0.006 C 
HETATM   14  C16 UNL     1     -11.299  -6.890   9.652  1.00  0.00     0.019 C 
ENDROOT
BRANCH  13  15
HETATM   15  C17 UNL     1     -10.809  -7.477   7.350  1.00  0.00     0.016 C 
BRANCH  15  16
HETATM   16  C18 UNL     1      -9.447  -7.072   7.790  1.00  0.00     0.028 C 
BRANCH  16  17
HETATM   17  C19 UNL     1      -8.326  -7.256   6.853  1.00  0.00    -0.025 C 
HETATM   18  C20 UNL     1      -7.532  -8.345   6.890  1.00  0.00    -0.091 C 
HETATM   19  C21 UNL     1      -6.407  -8.509   5.933  1.00  0.00     0.042 C 
HETATM   20  C22 UNL     1      -7.767  -9.404   7.888  1.00  0.00     0.042 C 
ENDBRANCH  16  17
ENDBRANCH  15  16
ENDBRANCH  13  15
BRANCH   1  21
HETATM   21  C4  UNL     1     -15.358  -8.456   5.494  1.00  0.00     0.083 C 
BRANCH  21  22
HETATM   22  C3  UNL     1     -15.399  -8.235   4.023  1.00  0.00     0.127 C 
HETATM   23  O1  UNL     1     -14.587  -8.751   3.280  1.00  0.00    -0.298 OA
BRANCH  22  24
HETATM   24  C2  UNL     1     -16.425  -7.376   3.371  1.00  0.00     0.074 C 
HETATM   25  C1  UNL     1     -17.805  -7.658   3.860  1.00  0.00     0.013 C 
ENDBRANCH  22  24
ENDBRANCH  21  22
ENDBRANCH   1  21
TORSDOF 6
ENDMDL
MODEL 3
REMARK VINA RESULT: -7.616827894      1.984      3.444
REMARK  6 active torsions:
REMARK  status: ('A' for Active; 'I' for Inactive)
REMARK    1  A    between atoms: C2_2  and  C3_3 
REMARK    2  A    between atoms: C3_3  and  C4_5 
REMARK    3  A    between atoms: C4_5  and  C5_6 
REMARK    4  A    between atoms: C15_18  and  C17_20 
REMARK    5  A    between atoms: C17_20  and  C18_21 
REMARK    6  A    between atoms: C18_21  and  C19_22 
ROOT
HETATM    1  C5  UNL     1     -12.586  -6.646   8.833  1.00  0.00    -0.003 C 
HETATM    2  C6  UNL     1     -13.857  -7.118   9.383  1.00  0.00     0.008 C 
HETATM    3  C7  UNL     1     -14.937  -7.499   8.412  1.00  0.00     0.034 C 
HETATM    4  C8  UNL     1     -14.534  -8.611   7.555  1.00  0.00     0.060 A 
HETATM    5  N1  UNL     1     -14.748  -9.950   7.690  1.00  0.00    -0.398 N 
ATOM      6  H1  UNL     1     -15.352 -10.768   7.606  1.00  0.00     0.155 HD
HETATM    7  C9  UNL     1     -13.466  -9.343   8.041  1.00  0.00     0.057 A 
HETATM    8  C10 UNL     1     -12.903 -10.103   9.124  1.00  0.00     0.041 C 
HETATM    9  C11 UNL     1     -12.595  -8.541   7.143  1.00  0.00    -0.004 C 
HETATM   10  C12 UNL     1     -11.551  -9.520   6.598  1.00  0.00     0.019 C 
HETATM   11  C13 UNL     1     -12.021  -7.287   7.634  1.00  0.00    -0.003 C 
HETATM   12  C14 UNL     1     -10.490  -7.424   7.781  1.00  0.00     0.011 C 
HETATM   13  C15 UNL     1     -13.792  -8.268   6.270  1.00  0.00    -0.006 C 
HETATM   14  C16 UNL     1     -13.938  -9.366   5.181  1.00  0.00     0.019 C 
ENDROOT
BRANCH  13  15
HETATM   15  C17 UNL     1     -14.016  -6.983   5.632  1.00  0.00     0.016 C 
BRANCH  15  16
HETATM   16  C18 UNL     1     -15.017  -6.933   4.531  1.00  0.00     0.028 C 
BRANCH  16  17
HETATM   17  C19 UNL     1     -16.081  -5.917   4.600  1.00  0.00    -0.025 C 
HETATM   18  C20 UNL     1     -17.357  -6.191   4.263  1.00  0.00    -0.091 C 
HETATM   19  C21 UNL     1     -18.414  -5.149   4.342  1.00  0.00     0.042 C 
HETATM   20  C22 UNL     1     -17.732  -7.542   3.807  1.00  0.00     0.042 C 
ENDBRANCH  16  17
ENDBRANCH  15  16
ENDBRANCH  13  15
BRANCH   1  21
HETATM   21  C4  UNL     1     -11.588  -6.630   9.998  1.00  0.00     0.083 C 
BRANCH  21  22
HETATM   22  C3  UNL     1     -12.016  -5.682  11.063  1.00  0.00     0.127 C 
HETATM   23  O1  UNL     1     -11.509  -5.697  12.168  1.00  0.00    -0.298 OA
BRANCH  22  24
HETATM   24  C2  UNL     1     -13.081  -4.666  10.849  1.00  0.00     0.074 C 
HETATM   25  C1  UNL     1     -12.555  -3.393  10.279  1.00  0.00     0.013 C 
ENDBRANCH  22  24
ENDBRANCH  21  22
ENDBRANCH   1  21
TORSDOF 6
ENDMDL
MODEL 4
REMARK VINA RESULT: -7.497407392      1.910      6.592
REMARK  6 active torsions:
REMARK  status: ('A' for Active; 'I' for Inactive)
REMARK    1  A    between atoms: C2_2  and  C3_3 
REMARK    2  A    between atoms: C3_3  and  C4_5 
REMARK    3  A    between atoms: C4_5  and  C5_6 
REMARK    4  A    between atoms: C15_18  and  C17_20 
REMARK    5  A    between atoms: C17_20  and  C18_21 
REMARK    6  A    between atoms: C18_21  and  C19_22 
ROOT
HETATM    1  C5  UNL     1     -14.113  -6.735   6.078  1.00  0.00    -0.003 C 
HETATM    2  C6  UNL     1     -14.591  -7.979   5.474  1.00  0.00     0.008 C 
HETATM    3  C7  UNL     1     -13.760  -9.214   5.673  1.00  0.00     0.034 C 
HETATM    4  C8  UNL     1     -13.645  -9.574   7.083  1.00  0.00     0.060 A 
HETATM    5  N1  UNL     1     -14.379 -10.443   7.834  1.00  0.00    -0.398 N 
ATOM      6  H1  UNL     1     -14.603 -11.392   8.133  1.00  0.00     0.155 HD
HETATM    7  C9  UNL     1     -14.605  -9.000   7.896  1.00  0.00     0.057 A 
HETATM    8  C10 UNL     1     -16.001  -8.787   8.166  1.00  0.00     0.041 C 
HETATM    9  C11 UNL     1     -13.598  -7.964   8.240  1.00  0.00    -0.004 C 
HETATM   10  C12 UNL     1     -13.796  -7.674   9.731  1.00  0.00     0.019 C 
HETATM   11  C13 UNL     1     -13.503  -6.756   7.418  1.00  0.00    -0.003 C 
HETATM   12  C14 UNL     1     -13.964  -5.524   8.227  1.00  0.00     0.011 C 
HETATM   13  C15 UNL     1     -12.509  -8.938   7.875  1.00  0.00    -0.006 C 
HETATM   14  C16 UNL     1     -12.093  -9.783   9.111  1.00  0.00     0.019 C 
ENDROOT
BRANCH  13  15
HETATM   15  C17 UNL     1     -11.295  -8.533   7.191  1.00  0.00     0.016 C 
BRANCH  15  16
HETATM   16  C18 UNL     1     -10.133  -8.141   8.034  1.00  0.00     0.028 C 
BRANCH  16  17
HETATM   17  C19 UNL     1      -8.859  -7.829   7.365  1.00  0.00    -0.025 C 
HETATM   18  C20 UNL     1      -7.813  -8.680   7.380  1.00  0.00    -0.091 C 
HETATM   19  C21 UNL     1      -6.537  -8.343   6.697  1.00  0.00     0.042 C 
HETATM   20  C22 UNL     1      -7.918  -9.974   8.079  1.00  0.00     0.042 C 
ENDBRANCH  16  17
ENDBRANCH  15  16
ENDBRANCH  13  15
BRANCH   1  21
HETATM   21  C4  UNL     1     -15.274  -5.737   5.993  1.00  0.00     0.083 C 
BRANCH  21  22
HETATM   22  C3  UNL     1     -15.349  -5.108   4.646  1.00  0.00     0.127 C 
HETATM   23  O1  UNL     1     -14.357  -4.680   4.089  1.00  0.00    -0.298 OA
BRANCH  22  24
HETATM   24  C2  UNL     1     -16.628  -4.962   3.901  1.00  0.00     0.074 C 
HETATM   25  C1  UNL     1     -17.824  -5.085   4.783  1.00  0.00     0.013 C 
ENDBRANCH  22  24
ENDBRANCH  21  22
ENDBRANCH   1  21
TORSDOF 6
ENDMDL
MODEL 5
REMARK VINA RESULT: -7.146153958      2.098      6.419
REMARK  6 active torsions:
REMARK  status: ('A' for Active; 'I' for Inactive)
REMARK    1  A    between atoms: C2_2  and  C3_3 
REMARK    2  A    between atoms: C3_3  and  C4_5 
REMARK    3  A    between atoms: C4_5  and  C5_6 
REMARK    4  A    between atoms: C15_18  and  C17_20 
REMARK    5  A    between atoms: C17_20  and  C18_21 
REMARK    6  A    between atoms: C18_21  and  C19_22 
ROOT
HETATM    1  C5  UNL     1     -14.072  -7.794   5.787  1.00  0.00    -0.003 C 
HETATM    2  C6  UNL     1     -13.790  -9.225   5.911  1.00  0.00     0.008 C 
HETATM    3  C7  UNL     1     -12.485  -9.626   6.537  1.00  0.00     0.034 C 
HETATM    4  C8  UNL     1     -12.377  -9.164   7.918  1.00  0.00     0.060 A 
HETATM    5  N1  UNL     1     -12.665  -9.802   9.087  1.00  0.00    -0.398 N 
ATOM      6  H1  UNL     1     -12.420 -10.465   9.823  1.00  0.00     0.155 HD
HETATM    7  C9  UNL     1     -13.585  -8.829   8.501  1.00  0.00     0.057 A 
HETATM    8  C10 UNL     1     -14.923  -9.230   8.845  1.00  0.00     0.041 C 
HETATM    9  C11 UNL     1     -13.278  -7.414   8.169  1.00  0.00    -0.004 C 
HETATM   10  C12 UNL     1     -13.772  -6.593   9.364  1.00  0.00     0.019 C 
HETATM   11  C13 UNL     1     -13.699  -6.875   6.875  1.00  0.00    -0.003 C 
HETATM   12  C14 UNL     1     -14.806  -5.817   7.074  1.00  0.00     0.011 C 
HETATM   13  C15 UNL     1     -11.814  -7.766   8.144  1.00  0.00    -0.006 C 
HETATM   14  C16 UNL     1     -11.184  -7.593   9.553  1.00  0.00     0.019 C 
ENDROOT
BRANCH  13  15
HETATM   15  C17 UNL     1     -10.891  -7.199   7.178  1.00  0.00     0.016 C 
BRANCH  15  16
HETATM   16  C18 UNL     1      -9.556  -6.770   7.678  1.00  0.00     0.028 C 
BRANCH  16  17
HETATM   17  C19 UNL     1      -8.377  -7.036   6.837  1.00  0.00    -0.025 C 
HETATM   18  C20 UNL     1      -7.722  -8.214   6.872  1.00  0.00    -0.091 C 
HETATM   19  C21 UNL     1      -6.534  -8.460   6.014  1.00  0.00     0.042 C 
HETATM   20  C22 UNL     1      -8.176  -9.291   7.770  1.00  0.00     0.042 C 
ENDBRANCH  16  17
ENDBRANCH  15  16
ENDBRANCH  13  15
BRANCH   1  21
HETATM   21  C4  UNL     1     -15.557  -7.674   5.420  1.00  0.00     0.083 C 
BRANCH  21  22
HETATM   22  C3  UNL     1     -15.737  -6.958   4.127  1.00  0.00     0.127 C 
HETATM   23  O1  UNL     1     -15.379  -7.448   3.074  1.00  0.00    -0.298 OA
BRANCH  22  24
HETATM   24  C2  UNL     1     -16.360  -5.610   4.041  1.00  0.00     0.074 C 
HETATM   25  C1  UNL     1     -15.353  -4.510   4.033  1.00  0.00     0.013 C 
ENDBRANCH  22  24
ENDBRANCH  21  22
ENDBRANCH   1  21
TORSDOF 6
ENDMDL
