MODEL 1
REMARK VINA RESULT: -5.170088172      0.000      0.000
REMARK  14 active torsions:
REMARK  status: ('A' for Active; 'I' for Inactive)
REMARK    1  A    between atoms: N1_2  and  C2_3 
REMARK    2  A    between atoms: N1_2  and  C3_5 
REMARK    3  A    between atoms: C4_8  and  N3_9 
REMARK    4  A    between atoms: C6_16  and  C7_17 
REMARK    5  A    between atoms: C7_17  and  N7_21 
REMARK    6  A    between atoms: N7_21  and  C8_23 
REMARK    7  A    between atoms: C8_23  and  C9_24 
REMARK    8  A    between atoms: C9_24  and  C10_25 
REMARK    9  A    between atoms: C10_25  and  C11_26 
REMARK   10  A    between atoms: C11_26  and  N8_27 
REMARK   11  A    between atoms: C11_26  and  C14_38 
REMARK   12  A    between atoms: N8_27  and  C12_29 
REMARK   13  A    between atoms: C14_38  and  O2_39 
REMARK   14  A    between atoms: C14_38  and  O3_41 
ROOT
HETATM    1  N7  UNL     1      57.569  11.354  29.493  1.00  0.00    -0.376 N 
ATOM      2  H7  UNL     1      57.239  11.959  28.741  1.00  0.00     0.161 HD
ENDROOT
BRANCH   1   3
HETATM    3  C7  UNL     1      56.871  10.101  29.764  1.00  0.00     0.112 C 
HETATM    4  N6  UNL     1      56.486   9.987  30.909  1.00  0.00    -0.385 N 
ATOM      5  H62 UNL     1      55.998   9.111  31.099  1.00  0.00     0.157 HD
ATOM      6  H61 UNL     1      56.625  10.687  31.636  1.00  0.00     0.157 HD
BRANCH   3   7
HETATM    7  C6  UNL     1      56.669   9.090  28.714  1.00  0.00     0.094 A 
HETATM    8  C3  UNL     1      57.729   8.353  28.283  1.00  0.00     0.142 A 
HETATM    9  N2  UNL     1      57.502   7.422  27.286  1.00  0.00    -0.176 N 
HETATM   10  C4  UNL     1      56.294   7.225  26.747  1.00  0.00     0.678 A 
ATOM     11  H2  UNL     1      58.286   6.863  26.949  1.00  0.00     0.186 HD
HETATM   12  N4  UNL     1      55.239   7.926  27.149  1.00  0.00    -0.178 N 
HETATM   13  C5  UNL     1      55.428   8.860  28.134  1.00  0.00     0.149 A 
ATOM     14  H4  UNL     1      54.318   7.774  26.737  1.00  0.00     0.185 HD
HETATM   15  N5  UNL     1      54.300   9.592  28.574  1.00  0.00    -0.081 NA
BRANCH   8  16
HETATM   16  N1  UNL     1      59.058   8.439  28.780  1.00  0.00    -0.314 N 
HETATM   17  C1  UNL     1      59.391   7.765  30.030  1.00  0.00     0.160 C 
BRANCH  16  18
HETATM   18  C2  UNL     1      60.113   9.103  28.095  1.00  0.00     0.356 C 
HETATM   19  O1  UNL     1      59.907  10.197  27.518  1.00  0.00    -0.283 OA
ENDBRANCH  16  18
ENDBRANCH   8  16
BRANCH  10  20
HETATM   20  N3  UNL     1      56.151   6.325  25.815  1.00  0.00    -0.234 N 
ATOM     21  H32 UNL     1      56.672   5.450  25.876  1.00  0.00     0.174 HD
ATOM     22  H31 UNL     1      55.522   6.512  25.034  1.00  0.00     0.174 HD
ENDBRANCH  10  20
ENDBRANCH   3   7
ENDBRANCH   1   3
BRANCH   1  23
HETATM   23  C8  UNL     1      58.711  11.750  30.266  1.00  0.00     0.121 C 
BRANCH  23  24
HETATM   24  C9  UNL     1      58.716  13.120  30.824  1.00  0.00     0.022 C 
BRANCH  24  25
HETATM   25  C10 UNL     1      58.977  13.221  32.270  1.00  0.00     0.032 C 
BRANCH  25  26
HETATM   26  C11 UNL     1      59.633  14.515  32.744  1.00  0.00     0.138 C 
BRANCH  26  27
HETATM   27  N8  UNL     1      58.657  15.517  32.911  1.00  0.00    -0.363 N 
ATOM     28  H8  UNL     1      58.997  16.467  32.762  1.00  0.00     0.161 HD
BRANCH  27  29
HETATM   29  C12 UNL     1      57.282  15.430  33.252  1.00  0.00     0.160 A 
HETATM   30  N9  UNL     1      56.667  14.688  34.181  1.00  0.00    -0.267 N 
HETATM   31  N10 UNL     1      55.384  14.955  34.160  1.00  0.00    -0.223 N 
ATOM     32  H9  UNL     1      57.123  14.022  34.805  1.00  0.00     0.190 HD
HETATM   33  N11 UNL     1      55.118  15.866  33.233  1.00  0.00    -0.165 N 
ATOM     34  H10 UNL     1      54.689  14.525  34.769  1.00  0.00     0.210 HD
HETATM   35 CL1  UNL     1      53.551  16.551  32.817  1.00  0.00     0.038 Cl
HETATM   36  C13 UNL     1      56.276  16.185  32.646  1.00  0.00     0.185 A 
HETATM   37 CL2  UNL     1      56.443  17.349  31.320  1.00  0.00    -0.057 Cl
ENDBRANCH  27  29
ENDBRANCH  26  27
BRANCH  26  38
HETATM   38  C14 UNL     1      60.750  14.759  31.782  1.00  0.00     0.276 C 
BRANCH  38  39
HETATM   39  O2  UNL     1      60.955  16.032  31.362  1.00  0.00    -0.369 OA
ATOM     40  H2  UNL     1      61.374  16.157  30.519  1.00  0.00     0.212 HD
ENDBRANCH  38  39
BRANCH  38  41
HETATM   41  O3  UNL     1      61.938  14.360  32.452  1.00  0.00    -0.369 OA
ATOM     42  H3  UNL     1      62.658  14.679  31.922  1.00  0.00     0.212 HD
ENDBRANCH  38  41
ENDBRANCH  26  38
ENDBRANCH  25  26
ENDBRANCH  24  25
ENDBRANCH  23  24
ENDBRANCH   1  23
TORSDOF 14
ENDMDL
MODEL 2
REMARK VINA RESULT: -4.764067210      1.274      1.586
REMARK  14 active torsions:
REMARK  status: ('A' for Active; 'I' for Inactive)
REMARK    1  A    between atoms: N1_2  and  C2_3 
REMARK    2  A    between atoms: N1_2  and  C3_5 
REMARK    3  A    between atoms: C4_8  and  N3_9 
REMARK    4  A    between atoms: C6_16  and  C7_17 
REMARK    5  A    between atoms: C7_17  and  N7_21 
REMARK    6  A    between atoms: N7_21  and  C8_23 
REMARK    7  A    between atoms: C8_23  and  C9_24 
REMARK    8  A    between atoms: C9_24  and  C10_25 
REMARK    9  A    between atoms: C10_25  and  C11_26 
REMARK   10  A    between atoms: C11_26  and  N8_27 
REMARK   11  A    between atoms: C11_26  and  C14_38 
REMARK   12  A    between atoms: N8_27  and  C12_29 
REMARK   13  A    between atoms: C14_38  and  O2_39 
REMARK   14  A    between atoms: C14_38  and  O3_41 
ROOT
HETATM    1  N7  UNL     1      57.632  11.425  29.585  1.00  0.00    -0.376 N 
ATOM      2  H7  UNL     1      57.239  12.058  28.889  1.00  0.00     0.161 HD
ENDROOT
BRANCH   1   3
HETATM    3  C7  UNL     1      56.962  10.157  29.861  1.00  0.00     0.112 C 
HETATM    4  N6  UNL     1      56.622  10.019  31.017  1.00  0.00    -0.385 N 
ATOM      5  H62 UNL     1      56.154   9.133  31.211  1.00  0.00     0.157 HD
ATOM      6  H61 UNL     1      56.779  10.709  31.751  1.00  0.00     0.157 HD
BRANCH   3   7
HETATM    7  C6  UNL     1      56.736   9.160  28.803  1.00  0.00     0.094 A 
HETATM    8  C3  UNL     1      57.784   8.423  28.343  1.00  0.00     0.142 A 
HETATM    9  N2  UNL     1      57.534   7.506  27.339  1.00  0.00    -0.176 N 
HETATM   10  C4  UNL     1      56.315   7.322  26.820  1.00  0.00     0.678 A 
ATOM     11  H2  UNL     1      58.309   6.947  26.981  1.00  0.00     0.186 HD
HETATM   12  N4  UNL     1      55.272   8.024  27.249  1.00  0.00    -0.178 N 
HETATM   13  C5  UNL     1      55.483   8.945  28.242  1.00  0.00     0.149 A 
ATOM     14  H4  UNL     1      54.342   7.882  26.853  1.00  0.00     0.185 HD
HETATM   15  N5  UNL     1      54.368   9.677  28.712  1.00  0.00    -0.081 NA
BRANCH   8  16
HETATM   16  N1  UNL     1      59.122   8.496  28.817  1.00  0.00    -0.314 N 
HETATM   17  C1  UNL     1      59.455   7.880  30.097  1.00  0.00     0.160 C 
BRANCH  16  18
HETATM   18  C2  UNL     1      60.185   9.091  28.083  1.00  0.00     0.356 C 
HETATM   19  O1  UNL     1      60.204   9.033  26.830  1.00  0.00    -0.283 OA
ENDBRANCH  16  18
ENDBRANCH   8  16
BRANCH  10  20
HETATM   20  N3  UNL     1      56.150   6.435  25.880  1.00  0.00    -0.234 N 
ATOM     21  H32 UNL     1      56.829   6.373  25.121  1.00  0.00     0.174 HD
ATOM     22  H31 UNL     1      55.340   5.816  25.915  1.00  0.00     0.174 HD
ENDBRANCH  10  20
ENDBRANCH   3   7
ENDBRANCH   1   3
BRANCH   1  23
HETATM   23  C8  UNL     1      58.834  11.795  30.276  1.00  0.00     0.121 C 
BRANCH  23  24
HETATM   24  C9  UNL     1      58.738  12.876  31.281  1.00  0.00     0.022 C 
BRANCH  24  25
HETATM   25  C10 UNL     1      59.781  13.913  31.208  1.00  0.00     0.032 C 
BRANCH  25  26
HETATM   26  C11 UNL     1      60.374  14.363  32.539  1.00  0.00     0.138 C 
BRANCH  26  27
HETATM   27  N8  UNL     1      59.865  15.628  32.892  1.00  0.00    -0.363 N 
ATOM     28  H8  UNL     1      60.522  16.222  33.397  1.00  0.00     0.161 HD
BRANCH  27  29
HETATM   29  C12 UNL     1      58.594  16.218  32.662  1.00  0.00     0.160 A 
HETATM   30  N9  UNL     1      58.262  17.314  31.969  1.00  0.00    -0.267 N 
HETATM   31  N10 UNL     1      56.961  17.461  32.003  1.00  0.00    -0.223 N 
ATOM     32  H9  UNL     1      58.916  17.935  31.492  1.00  0.00     0.190 HD
HETATM   33  N11 UNL     1      56.403  16.485  32.706  1.00  0.00    -0.165 N 
ATOM     34  H10 UNL     1      56.449  18.220  31.553  1.00  0.00     0.210 HD
HETATM   35 CL1  UNL     1      54.693  16.242  33.042  1.00  0.00     0.038 Cl
HETATM   36  C13 UNL     1      57.391  15.690  33.134  1.00  0.00     0.185 A 
HETATM   37 CL2  UNL     1      57.157  14.250  34.139  1.00  0.00    -0.057 Cl
ENDBRANCH  27  29
ENDBRANCH  26  27
BRANCH  26  38
HETATM   38  C14 UNL     1      61.852  14.207  32.379  1.00  0.00     0.276 C 
BRANCH  38  39
HETATM   39  O2  UNL     1      62.622  14.308  33.490  1.00  0.00    -0.369 OA
ATOM     40  H2  UNL     1      63.252  15.017  33.528  1.00  0.00     0.212 HD
ENDBRANCH  38  39
BRANCH  38  41
HETATM   41  O3  UNL     1      62.053  12.896  31.867  1.00  0.00    -0.369 OA
ATOM     42  H3  UNL     1      62.641  12.992  31.128  1.00  0.00     0.212 HD
ENDBRANCH  38  41
ENDBRANCH  26  38
ENDBRANCH  25  26
ENDBRANCH  24  25
ENDBRANCH  23  24
ENDBRANCH   1  23
TORSDOF 14
ENDMDL
MODEL 3
REMARK VINA RESULT: -4.161889055      2.051      3.267
REMARK  14 active torsions:
REMARK  status: ('A' for Active; 'I' for Inactive)
REMARK    1  A    between atoms: N1_2  and  C2_3 
REMARK    2  A    between atoms: N1_2  and  C3_5 
REMARK    3  A    between atoms: C4_8  and  N3_9 
REMARK    4  A    between atoms: C6_16  and  C7_17 
REMARK    5  A    between atoms: C7_17  and  N7_21 
REMARK    6  A    between atoms: N7_21  and  C8_23 
REMARK    7  A    between atoms: C8_23  and  C9_24 
REMARK    8  A    between atoms: C9_24  and  C10_25 
REMARK    9  A    between atoms: C10_25  and  C11_26 
REMARK   10  A    between atoms: C11_26  and  N8_27 
REMARK   11  A    between atoms: C11_26  and  C14_38 
REMARK   12  A    between atoms: N8_27  and  C12_29 
REMARK   13  A    between atoms: C14_38  and  O2_39 
REMARK   14  A    between atoms: C14_38  and  O3_41 
ROOT
HETATM    1  N7  UNL     1      57.852  11.379  30.600  1.00  0.00    -0.376 N 
ATOM      2  H7  UNL     1      57.102  11.349  31.291  1.00  0.00     0.161 HD
ENDROOT
BRANCH   1   3
HETATM    3  C7  UNL     1      57.632  10.804  29.277  1.00  0.00     0.112 C 
HETATM    4  N6  UNL     1      58.343   9.855  29.025  1.00  0.00    -0.385 N 
ATOM      5  H62 UNL     1      58.190   9.452  28.101  1.00  0.00     0.157 HD
ATOM      6  H61 UNL     1      59.042   9.473  29.663  1.00  0.00     0.157 HD
BRANCH   3   7
HETATM    7  C6  UNL     1      56.624  11.355  28.357  1.00  0.00     0.094 A 
HETATM    8  C3  UNL     1      55.470  10.666  28.139  1.00  0.00     0.142 A 
HETATM    9  N2  UNL     1      54.553  11.210  27.259  1.00  0.00    -0.176 N 
HETATM   10  C4  UNL     1      54.760  12.372  26.631  1.00  0.00     0.678 A 
ATOM     11  H2  UNL     1      53.684  10.705  27.082  1.00  0.00     0.186 HD
HETATM   12  N4  UNL     1      55.875  13.069  26.825  1.00  0.00    -0.178 N 
HETATM   13  C5  UNL     1      56.808  12.559  27.689  1.00  0.00     0.149 A 
ATOM     14  H4  UNL     1      56.031  13.957  26.346  1.00  0.00     0.185 HD
HETATM   15  N5  UNL     1      57.985  13.313  27.910  1.00  0.00    -0.081 NA
BRANCH   8  16
HETATM   16  N1  UNL     1      55.108   9.437  28.753  1.00  0.00    -0.314 N 
HETATM   17  C1  UNL     1      55.051   8.228  27.939  1.00  0.00     0.160 C 
BRANCH  16  18
HETATM   18  C2  UNL     1      54.848   9.299  30.145  1.00  0.00     0.356 C 
HETATM   19  O1  UNL     1      55.786   9.080  30.948  1.00  0.00    -0.283 OA
ENDBRANCH  16  18
ENDBRANCH   8  16
BRANCH  10  20
HETATM   20  N3  UNL     1      53.849  12.829  25.819  1.00  0.00    -0.234 N 
ATOM     21  H32 UNL     1      53.672  12.346  24.938  1.00  0.00     0.174 HD
ATOM     22  H31 UNL     1      53.329  13.668  26.075  1.00  0.00     0.174 HD
ENDBRANCH  10  20
ENDBRANCH   3   7
ENDBRANCH   1   3
BRANCH   1  23
HETATM   23  C8  UNL     1      59.105  11.987  30.947  1.00  0.00     0.121 C 
BRANCH  23  24
HETATM   24  C9  UNL     1      59.133  12.860  32.140  1.00  0.00     0.022 C 
BRANCH  24  25
HETATM   25  C10 UNL     1      58.781  14.272  31.908  1.00  0.00     0.032 C 
BRANCH  25  26
HETATM   26  C11 UNL     1      59.307  15.272  32.933  1.00  0.00     0.138 C 
BRANCH  26  27
HETATM   27  N8  UNL     1      58.239  16.015  33.474  1.00  0.00    -0.363 N 
ATOM     28  H8  UNL     1      58.502  16.933  33.832  1.00  0.00     0.161 HD
BRANCH  27  29
HETATM   29  C12 UNL     1      56.860  15.705  33.603  1.00  0.00     0.160 A 
HETATM   30  N9  UNL     1      56.231  14.913  34.481  1.00  0.00    -0.267 N 
HETATM   31  N10 UNL     1      54.943  14.950  34.241  1.00  0.00    -0.223 N 
ATOM     32  H9  UNL     1      56.681  14.369  35.217  1.00  0.00     0.190 HD
HETATM   33  N11 UNL     1      54.686  15.752  33.217  1.00  0.00    -0.165 N 
ATOM     34  H10 UNL     1      54.238  14.435  34.768  1.00  0.00     0.210 HD
HETATM   35 CL1  UNL     1      53.119  16.131  32.513  1.00  0.00     0.038 Cl
HETATM   36  C13 UNL     1      55.857  16.241  32.793  1.00  0.00     0.185 A 
HETATM   37 CL2  UNL     1      56.046  17.349  31.423  1.00  0.00    -0.057 Cl
ENDBRANCH  27  29
ENDBRANCH  26  27
BRANCH  26  38
HETATM   38  C14 UNL     1      60.405  16.005  32.234  1.00  0.00     0.276 C 
BRANCH  38  39
HETATM   39  O2  UNL     1      60.923  15.446  31.113  1.00  0.00    -0.369 OA
ATOM     40  H2  UNL     1      61.315  16.026  30.471  1.00  0.00     0.212 HD
ENDBRANCH  38  39
BRANCH  38  41
HETATM   41  O3  UNL     1      59.855  17.255  31.844  1.00  0.00    -0.369 OA
ATOM     42  H3  UNL     1      59.307  17.076  31.090  1.00  0.00     0.212 HD
ENDBRANCH  38  41
ENDBRANCH  26  38
ENDBRANCH  25  26
ENDBRANCH  24  25
ENDBRANCH  23  24
ENDBRANCH   1  23
TORSDOF 14
ENDMDL
MODEL 4
REMARK VINA RESULT: -3.799941768      1.410      2.534
REMARK  14 active torsions:
REMARK  status: ('A' for Active; 'I' for Inactive)
REMARK    1  A    between atoms: N1_2  and  C2_3 
REMARK    2  A    between atoms: N1_2  and  C3_5 
REMARK    3  A    between atoms: C4_8  and  N3_9 
REMARK    4  A    between atoms: C6_16  and  C7_17 
REMARK    5  A    between atoms: C7_17  and  N7_21 
REMARK    6  A    between atoms: N7_21  and  C8_23 
REMARK    7  A    between atoms: C8_23  and  C9_24 
REMARK    8  A    between atoms: C9_24  and  C10_25 
REMARK    9  A    between atoms: C10_25  and  C11_26 
REMARK   10  A    between atoms: C11_26  and  N8_27 
REMARK   11  A    between atoms: C11_26  and  C14_38 
REMARK   12  A    between atoms: N8_27  and  C12_29 
REMARK   13  A    between atoms: C14_38  and  O2_39 
REMARK   14  A    between atoms: C14_38  and  O3_41 
ROOT
HETATM    1  N7  UNL     1      58.559  10.753  29.606  1.00  0.00    -0.376 N 
ATOM      2  H7  UNL     1      59.465  10.524  29.196  1.00  0.00     0.161 HD
ENDROOT
BRANCH   1   3
HETATM    3  C7  UNL     1      57.558   9.703  29.766  1.00  0.00     0.112 C 
HETATM    4  N6  UNL     1      57.038   9.678  30.862  1.00  0.00    -0.385 N 
ATOM      5  H62 UNL     1      56.339   8.944  30.975  1.00  0.00     0.157 HD
ATOM      6  H61 UNL     1      57.263  10.320  31.621  1.00  0.00     0.157 HD
BRANCH   3   7
HETATM    7  C6  UNL     1      57.234   8.776  28.671  1.00  0.00     0.094 A 
HETATM    8  C3  UNL     1      56.026   8.871  28.049  1.00  0.00     0.142 A 
HETATM    9  N2  UNL     1      55.754   7.975  27.033  1.00  0.00    -0.176 N 
HETATM   10  C4  UNL     1      56.626   7.037  26.647  1.00  0.00     0.678 A 
ATOM     11  H2  UNL     1      54.852   8.030  26.558  1.00  0.00     0.186 HD
HETATM   12  N4  UNL     1      57.814   6.921  27.232  1.00  0.00    -0.178 N 
HETATM   13  C5  UNL     1      58.117   7.791  28.245  1.00  0.00     0.149 A 
ATOM     14  H4  UNL     1      58.479   6.206  26.935  1.00  0.00     0.185 HD
HETATM   15  N5  UNL     1      59.390   7.679  28.853  1.00  0.00    -0.081 NA
BRANCH   8  16
HETATM   16  N1  UNL     1      55.017   9.829  28.338  1.00  0.00    -0.314 N 
HETATM   17  C1  UNL     1      55.008  11.091  27.606  1.00  0.00     0.160 C 
BRANCH  16  18
HETATM   18  C2  UNL     1      53.965   9.607  29.269  1.00  0.00     0.356 C 
HETATM   19  O1  UNL     1      54.157   8.905  30.291  1.00  0.00    -0.283 OA
ENDBRANCH  16  18
ENDBRANCH   8  16
BRANCH  10  20
HETATM   20  N3  UNL     1      56.305   6.229  25.676  1.00  0.00    -0.234 N 
ATOM     21  H32 UNL     1      56.910   6.159  24.858  1.00  0.00     0.174 HD
ATOM     22  H31 UNL     1      55.448   5.680  25.747  1.00  0.00     0.174 HD
ENDBRANCH  10  20
ENDBRANCH   3   7
ENDBRANCH   1   3
BRANCH   1  23
HETATM   23  C8  UNL     1      58.292  12.103  30.014  1.00  0.00     0.121 C 
BRANCH  23  24
HETATM   24  C9  UNL     1      59.316  12.783  30.835  1.00  0.00     0.022 C 
BRANCH  24  25
HETATM   25  C10 UNL     1      58.877  13.223  32.171  1.00  0.00     0.032 C 
BRANCH  25  26
HETATM   26  C11 UNL     1      59.558  14.472  32.723  1.00  0.00     0.138 C 
BRANCH  26  27
HETATM   27  N8  UNL     1      58.608  15.496  32.910  1.00  0.00    -0.363 N 
ATOM     28  H8  UNL     1      58.972  16.439  32.779  1.00  0.00     0.161 HD
BRANCH  27  29
HETATM   29  C12 UNL     1      57.231  15.437  33.250  1.00  0.00     0.160 A 
HETATM   30  N9  UNL     1      56.601  14.718  34.188  1.00  0.00    -0.267 N 
HETATM   31  N10 UNL     1      55.324  15.009  34.161  1.00  0.00    -0.223 N 
ATOM     32  H9  UNL     1      57.044  14.052  34.821  1.00  0.00     0.190 HD
HETATM   33  N11 UNL     1      55.075  15.912  33.222  1.00  0.00    -0.165 N 
ATOM     34  H10 UNL     1      54.620  14.598  34.775  1.00  0.00     0.210 HD
HETATM   35 CL1  UNL     1      53.521  16.619  32.795  1.00  0.00     0.038 Cl
HETATM   36  C13 UNL     1      56.239  16.203  32.632  1.00  0.00     0.185 A 
HETATM   37 CL2  UNL     1      56.429  17.346  31.292  1.00  0.00    -0.057 Cl
ENDBRANCH  27  29
ENDBRANCH  26  27
BRANCH  26  38
HETATM   38  C14 UNL     1      60.709  14.725  31.805  1.00  0.00     0.276 C 
BRANCH  38  39
HETATM   39  O2  UNL     1      60.909  15.996  31.379  1.00  0.00    -0.369 OA
ATOM     40  H2  UNL     1      61.542  16.136  30.685  1.00  0.00     0.212 HD
ENDBRANCH  38  39
BRANCH  38  41
HETATM   41  O3  UNL     1      61.875  14.353  32.528  1.00  0.00    -0.369 OA
ATOM     42  H3  UNL     1      61.967  13.416  32.410  1.00  0.00     0.212 HD
ENDBRANCH  38  41
ENDBRANCH  26  38
ENDBRANCH  25  26
ENDBRANCH  24  25
ENDBRANCH  23  24
ENDBRANCH   1  23
TORSDOF 14
ENDMDL
MODEL 5
REMARK VINA RESULT: -3.768826582      2.424      3.615
REMARK  14 active torsions:
REMARK  status: ('A' for Active; 'I' for Inactive)
REMARK    1  A    between atoms: N1_2  and  C2_3 
REMARK    2  A    between atoms: N1_2  and  C3_5 
REMARK    3  A    between atoms: C4_8  and  N3_9 
REMARK    4  A    between atoms: C6_16  and  C7_17 
REMARK    5  A    between atoms: C7_17  and  N7_21 
REMARK    6  A    between atoms: N7_21  and  C8_23 
REMARK    7  A    between atoms: C8_23  and  C9_24 
REMARK    8  A    between atoms: C9_24  and  C10_25 
REMARK    9  A    between atoms: C10_25  and  C11_26 
REMARK   10  A    between atoms: C11_26  and  N8_27 
REMARK   11  A    between atoms: C11_26  and  C14_38 
REMARK   12  A    between atoms: N8_27  and  C12_29 
REMARK   13  A    between atoms: C14_38  and  O2_39 
REMARK   14  A    between atoms: C14_38  and  O3_41 
ROOT
HETATM    1  N7  UNL     1      57.688  11.030  30.489  1.00  0.00    -0.376 N 
ATOM      2  H7  UNL     1      57.029  10.875  31.252  1.00  0.00     0.161 HD
ENDROOT
BRANCH   1   3
HETATM    3  C7  UNL     1      57.389  10.499  29.163  1.00  0.00     0.112 C 
HETATM    4  N6  UNL     1      57.993   9.484  28.889  1.00  0.00    -0.385 N 
ATOM      5  H62 UNL     1      57.784   9.112  27.962  1.00  0.00     0.157 HD
ATOM      6  H61 UNL     1      58.657   9.023  29.510  1.00  0.00     0.157 HD
BRANCH   3   7
HETATM    7  C6  UNL     1      56.430  11.164  28.267  1.00  0.00     0.094 A 
HETATM    8  C3  UNL     1      55.216  10.592  28.042  1.00  0.00     0.142 A 
HETATM    9  N2  UNL     1      54.347  11.241  27.184  1.00  0.00    -0.176 N 
HETATM   10  C4  UNL     1      54.657  12.394  26.583  1.00  0.00     0.678 A 
ATOM     11  H2  UNL     1      53.434  10.824  27.003  1.00  0.00     0.186 HD
HETATM   12  N4  UNL     1      55.833  12.980  26.784  1.00  0.00    -0.178 N 
HETATM   13  C5  UNL     1      56.721  12.363  27.627  1.00  0.00     0.149 A 
ATOM     14  H4  UNL     1      56.068  13.861  26.326  1.00  0.00     0.185 HD
HETATM   15  N5  UNL     1      57.964  12.998  27.856  1.00  0.00    -0.081 NA
BRANCH   8  16
HETATM   16  N1  UNL     1      54.745   9.386  28.629  1.00  0.00    -0.314 N 
HETATM   17  C1  UNL     1      54.619   9.306  30.080  1.00  0.00     0.160 C 
BRANCH  16  18
HETATM   18  C2  UNL     1      54.328   8.254  27.874  1.00  0.00     0.356 C 
HETATM   19  O1  UNL     1      53.578   8.395  26.879  1.00  0.00    -0.283 OA
ENDBRANCH  16  18
ENDBRANCH   8  16
BRANCH  10  20
HETATM   20  N3  UNL     1      53.787  12.954  25.791  1.00  0.00    -0.234 N 
ATOM     21  H32 UNL     1      53.177  12.370  25.219  1.00  0.00     0.174 HD
ATOM     22  H31 UNL     1      53.732  13.973  25.752  1.00  0.00     0.174 HD
ENDBRANCH  10  20
ENDBRANCH   3   7
ENDBRANCH   1   3
BRANCH   1  23
HETATM   23  C8  UNL     1      58.894  11.768  30.739  1.00  0.00     0.121 C 
BRANCH  23  24
HETATM   24  C9  UNL     1      58.798  12.954  31.617  1.00  0.00     0.022 C 
BRANCH  24  25
HETATM   25  C10 UNL     1      59.851  13.969  31.438  1.00  0.00     0.032 C 
BRANCH  25  26
HETATM   26  C11 UNL     1      60.462  14.535  32.716  1.00  0.00     0.138 C 
BRANCH  26  27
HETATM   27  N8  UNL     1      59.908  15.799  32.998  1.00  0.00    -0.363 N 
ATOM     28  H8  UNL     1      60.528  16.429  33.506  1.00  0.00     0.161 HD
BRANCH  27  29
HETATM   29  C12 UNL     1      58.633  16.345  32.695  1.00  0.00     0.160 A 
HETATM   30  N9  UNL     1      58.301  17.398  31.938  1.00  0.00    -0.267 N 
HETATM   31  N10 UNL     1      56.997  17.515  31.919  1.00  0.00    -0.223 N 
ATOM     32  H9  UNL     1      58.958  18.011  31.454  1.00  0.00     0.190 HD
HETATM   33  N11 UNL     1      56.436  16.561  32.648  1.00  0.00    -0.165 N 
ATOM     34  H10 UNL     1      56.484  18.238  31.413  1.00  0.00     0.210 HD
HETATM   35 CL1  UNL     1      54.721  16.292  32.935  1.00  0.00     0.038 Cl
HETATM   36  C13 UNL     1      57.425  15.812  33.149  1.00  0.00     0.185 A 
HETATM   37 CL2  UNL     1      57.188  14.417  34.215  1.00  0.00    -0.057 Cl
ENDBRANCH  27  29
ENDBRANCH  26  27
BRANCH  26  38
HETATM   38  C14 UNL     1      61.940  14.431  32.520  1.00  0.00     0.276 C 
BRANCH  38  39
HETATM   39  O2  UNL     1      62.717  14.316  33.624  1.00  0.00    -0.369 OA
ATOM     40  H2  UNL     1      63.212  13.513  33.735  1.00  0.00     0.212 HD
ENDBRANCH  38  39
BRANCH  38  41
HETATM   41  O3  UNL     1      62.150  13.252  31.754  1.00  0.00    -0.369 OA
ATOM     42  H3  UNL     1      63.059  13.276  31.481  1.00  0.00     0.212 HD
ENDBRANCH  38  41
ENDBRANCH  26  38
ENDBRANCH  25  26
ENDBRANCH  24  25
ENDBRANCH  23  24
ENDBRANCH   1  23
TORSDOF 14
ENDMDL
