MODEL 1
REMARK VINA RESULT: -7.293185727      0.000      0.000
REMARK  11 active torsions:
REMARK  status: ('A' for Active; 'I' for Inactive)
REMARK    1  A    between atoms: S1_2  and  C2_3 
REMARK    2  A    between atoms: C2_3  and  C3_4 
REMARK    3  A    between atoms: C3_4  and  C4_5 
REMARK    4  A    between atoms: C7_10  and  N2_11 
REMARK    5  A    between atoms: N2_11  and  C8_13 
REMARK    6  A    between atoms: C8_13  and  O1_14 
REMARK    7  A    between atoms: C8_13  and  N3_16 
REMARK    8  A    between atoms: N3_16  and  C9_19 
REMARK    9  A    between atoms: C9_19  and  C10_20 
REMARK   10  A    between atoms: C12_29  and  S2_30 
REMARK   11  A    between atoms: C14_37  and  N10_38 
ROOT
HETATM    1  C8  UNL     1    -127.292  32.774 126.525  1.00  0.00     0.440 C 
ENDROOT
BRANCH   1   2
HETATM    2  N2  UNL     1    -126.712  32.053 125.456  1.00  0.00    -0.174 N 
ATOM      3  H2  UNL     1    -126.079  31.298 125.717  1.00  0.00     0.182 HD
BRANCH   2   4
HETATM    4  C7  UNL     1    -126.885  32.231 124.205  1.00  0.00     0.683 A 
HETATM    5  N1  UNL     1    -127.057  33.503 123.747  1.00  0.00    -0.195 N 
HETATM    6  C5  UNL     1    -127.260  33.788 122.449  1.00  0.00     0.032 A 
ATOM      7  H1  UNL     1    -127.031  34.271 124.417  1.00  0.00     0.184 HD
HETATM    8  C4  UNL     1    -127.311  32.810 121.490  1.00  0.00     0.009 A 
HETATM    9  C6  UNL     1    -127.409  35.217 122.044  1.00  0.00     0.069 C 
HETATM   10  C14 UNL     1    -127.137  31.510 121.955  1.00  0.00     0.122 A 
HETATM   11  N9  UNL     1    -126.932  31.270 123.274  1.00  0.00    -0.177 N 
ATOM     12  H9  UNL     1    -126.808  30.304 123.574  1.00  0.00     0.186 HD
BRANCH   8  13
HETATM   13  C3  UNL     1    -127.543  33.037 120.040  1.00  0.00     0.054 C 
BRANCH  13  14
HETATM   14  C2  UNL     1    -128.817  33.805 119.796  1.00  0.00     0.078 C 
BRANCH  14  15
HETATM   15  S1  UNL     1    -128.550  35.407 119.023  1.00  0.00    -0.173 SA
HETATM   16  C1  UNL     1    -128.890  35.294 117.233  1.00  0.00     0.089 C 
ENDBRANCH  14  15
ENDBRANCH  13  14
ENDBRANCH   8  13
BRANCH  10  17
HETATM   17  N10 UNL     1    -127.163  30.567 121.073  1.00  0.00    -0.385 N 
ATOM     18 2H10 UNL     1    -128.033  30.171 120.718  1.00  0.00     0.157 HD
ATOM     19 1H10 UNL     1    -126.262  30.216 120.747  1.00  0.00     0.157 HD
ENDBRANCH  10  17
ENDBRANCH   2   4
ENDBRANCH   1   2
BRANCH   1  20
HETATM   20  O1  UNL     1    -126.630  32.623 127.754  1.00  0.00    -0.354 OA
ATOM     21  H1  UNL     1    -125.808  32.150 127.702  1.00  0.00     0.214 HD
ENDBRANCH   1  20
BRANCH   1  22
HETATM   22  N3  UNL     1    -128.657  32.293 126.762  1.00  0.00    -0.027 N 
ATOM     23  H32 UNL     1    -129.351  32.968 126.440  1.00  0.00     0.282 HD
ATOM     24  H31 UNL     1    -128.892  31.517 126.145  1.00  0.00     0.282 HD
BRANCH  22  25
HETATM   25  C9  UNL     1    -128.862  31.950 128.133  1.00  0.00     0.293 C 
BRANCH  25  26
HETATM   26  C10 UNL     1    -130.259  31.342 128.247  1.00  0.00     0.328 C 
HETATM   27  N4  UNL     1    -131.214  32.367 128.007  1.00  0.00    -0.302 N 
HETATM   28  N5  UNL     1    -132.541  31.992 128.001  1.00  0.00    -0.276 N 
ATOM     29  H4  UNL     1    -130.931  33.334 127.846  1.00  0.00     0.182 HD
HETATM   30  C11 UNL     1    -133.129  30.792 127.506  1.00  0.00     0.204 C 
ATOM     31  H5  UNL     1    -133.191  32.666 128.406  1.00  0.00     0.189 HD
HETATM   32  N6  UNL     1    -134.457  30.897 126.978  1.00  0.00    -0.062 NA
HETATM   33  N7  UNL     1    -132.612  29.618 127.463  1.00  0.00    -0.327 N 
HETATM   34  C12 UNL     1    -131.285  29.232 127.911  1.00  0.00     0.352 C 
ATOM     35  H7  UNL     1    -133.194  28.877 127.072  1.00  0.00     0.165 HD
HETATM   36  N8  UNL     1    -130.350  30.195 127.360  1.00  0.00    -0.021 N 
ATOM     37  H82 UNL     1    -130.592  30.465 126.406  1.00  0.00     0.283 HD
ATOM     38  H81 UNL     1    -129.438  29.782 127.169  1.00  0.00     0.283 HD
BRANCH  34  39
HETATM   39  S2  UNL     1    -130.883  27.528 127.562  1.00  0.00    -0.120 SA
HETATM   40  C13 UNL     1    -132.130  26.484 128.402  1.00  0.00     0.093 C 
ENDBRANCH  34  39
ENDBRANCH  25  26
ENDBRANCH  22  25
ENDBRANCH   1  22
TORSDOF 11
ENDMDL
MODEL 2
REMARK VINA RESULT: -7.149294110      0.890      1.676
REMARK  11 active torsions:
REMARK  status: ('A' for Active; 'I' for Inactive)
REMARK    1  A    between atoms: S1_2  and  C2_3 
REMARK    2  A    between atoms: C2_3  and  C3_4 
REMARK    3  A    between atoms: C3_4  and  C4_5 
REMARK    4  A    between atoms: C7_10  and  N2_11 
REMARK    5  A    between atoms: N2_11  and  C8_13 
REMARK    6  A    between atoms: C8_13  and  O1_14 
REMARK    7  A    between atoms: C8_13  and  N3_16 
REMARK    8  A    between atoms: N3_16  and  C9_19 
REMARK    9  A    between atoms: C9_19  and  C10_20 
REMARK   10  A    between atoms: C12_29  and  S2_30 
REMARK   11  A    between atoms: C14_37  and  N10_38 
ROOT
HETATM    1  C8  UNL     1    -127.255  32.826 127.035  1.00  0.00     0.440 C 
ENDROOT
BRANCH   1   2
HETATM    2  N2  UNL     1    -126.465  32.358 125.960  1.00  0.00    -0.174 N 
ATOM      3  H2  UNL     1    -125.604  31.875 126.215  1.00  0.00     0.182 HD
BRANCH   2   4
HETATM    4  C7  UNL     1    -126.699  32.465 124.711  1.00  0.00     0.683 A 
HETATM    5  N1  UNL     1    -126.862  31.328 123.980  1.00  0.00    -0.195 N 
HETATM    6  C5  UNL     1    -127.097  31.340 122.656  1.00  0.00     0.032 A 
ATOM      7  H1  UNL     1    -126.804  30.428 124.457  1.00  0.00     0.184 HD
HETATM    8  C4  UNL     1    -127.186  32.508 121.945  1.00  0.00     0.009 A 
HETATM    9  C6  UNL     1    -127.290  30.038 121.951  1.00  0.00     0.069 C 
HETATM   10  C14 UNL     1    -127.018  33.672 122.689  1.00  0.00     0.122 A 
HETATM   11  N9  UNL     1    -126.785  33.611 124.024  1.00  0.00    -0.177 N 
ATOM     12  H9  UNL     1    -126.668  34.487 124.533  1.00  0.00     0.186 HD
BRANCH   8  13
HETATM   13  C3  UNL     1    -127.430  32.610 120.483  1.00  0.00     0.054 C 
BRANCH  13  14
HETATM   14  C2  UNL     1    -128.690  33.382 120.184  1.00  0.00     0.078 C 
BRANCH  14  15
HETATM   15  S1  UNL     1    -128.633  34.266 118.619  1.00  0.00    -0.173 SA
HETATM   16  C1  UNL     1    -128.646  36.065 118.923  1.00  0.00     0.089 C 
ENDBRANCH  14  15
ENDBRANCH  13  14
ENDBRANCH   8  13
BRANCH  10  17
HETATM   17  N10 UNL     1    -127.113  34.791 122.051  1.00  0.00    -0.385 N 
ATOM     18 2H10 UNL     1    -127.340  35.671 122.515  1.00  0.00     0.157 HD
ATOM     19 1H10 UNL     1    -126.962  34.760 121.042  1.00  0.00     0.157 HD
ENDBRANCH  10  17
ENDBRANCH   2   4
ENDBRANCH   1   2
BRANCH   1  20
HETATM   20  O1  UNL     1    -126.633  32.743 128.292  1.00  0.00    -0.354 OA
ATOM     21  H1  UNL     1    -126.572  31.862 128.642  1.00  0.00     0.214 HD
ENDBRANCH   1  20
BRANCH   1  22
HETATM   22  N3  UNL     1    -128.467  32.007 127.152  1.00  0.00    -0.027 N 
ATOM     23  H32 UNL     1    -129.180  32.301 126.485  1.00  0.00     0.282 HD
ATOM     24  H31 UNL     1    -128.311  31.060 126.809  1.00  0.00     0.282 HD
BRANCH  22  25
HETATM   25  C9  UNL     1    -128.971  32.003 128.488  1.00  0.00     0.293 C 
BRANCH  25  26
HETATM   26  C10 UNL     1    -130.366  31.381 128.446  1.00  0.00     0.328 C 
HETATM   27  N4  UNL     1    -131.306  32.411 128.172  1.00  0.00    -0.302 N 
HETATM   28  N5  UNL     1    -132.623  32.028 128.030  1.00  0.00    -0.276 N 
ATOM     29  H4  UNL     1    -131.021  33.386 128.085  1.00  0.00     0.182 HD
HETATM   30  C11 UNL     1    -133.152  30.850 127.426  1.00  0.00     0.204 C 
ATOM     31  H5  UNL     1    -133.314  32.676 128.408  1.00  0.00     0.189 HD
HETATM   32  N6  UNL     1    -134.429  30.972 126.787  1.00  0.00    -0.062 NA
HETATM   33  N7  UNL     1    -132.620  29.683 127.372  1.00  0.00    -0.327 N 
HETATM   34  C12 UNL     1    -131.334  29.284 127.918  1.00  0.00     0.352 C 
ATOM     35  H7  UNL     1    -133.157  28.959 126.895  1.00  0.00     0.165 HD
HETATM   36  N8  UNL     1    -130.365  30.279 127.500  1.00  0.00    -0.021 N 
ATOM     37  H82 UNL     1    -130.523  30.594 126.543  1.00  0.00     0.283 HD
ATOM     38  H81 UNL     1    -129.435  29.882 127.371  1.00  0.00     0.283 HD
BRANCH  34  39
HETATM   39  S2  UNL     1    -130.885  27.602 127.523  1.00  0.00    -0.120 SA
HETATM   40  C13 UNL     1    -132.035  26.497 128.420  1.00  0.00     0.093 C 
ENDBRANCH  34  39
ENDBRANCH  25  26
ENDBRANCH  22  25
ENDBRANCH   1  22
TORSDOF 11
ENDMDL
MODEL 3
REMARK VINA RESULT: -7.029726395      1.335      1.463
REMARK  11 active torsions:
REMARK  status: ('A' for Active; 'I' for Inactive)
REMARK    1  A    between atoms: S1_2  and  C2_3 
REMARK    2  A    between atoms: C2_3  and  C3_4 
REMARK    3  A    between atoms: C3_4  and  C4_5 
REMARK    4  A    between atoms: C7_10  and  N2_11 
REMARK    5  A    between atoms: N2_11  and  C8_13 
REMARK    6  A    between atoms: C8_13  and  O1_14 
REMARK    7  A    between atoms: C8_13  and  N3_16 
REMARK    8  A    between atoms: N3_16  and  C9_19 
REMARK    9  A    between atoms: C9_19  and  C10_20 
REMARK   10  A    between atoms: C12_29  and  S2_30 
REMARK   11  A    between atoms: C14_37  and  N10_38 
ROOT
HETATM    1  C8  UNL     1    -127.218  32.522 127.532  1.00  0.00     0.440 C 
ENDROOT
BRANCH   1   2
HETATM    2  N2  UNL     1    -126.475  33.103 126.479  1.00  0.00    -0.174 N 
ATOM      3  H2  UNL     1    -125.696  33.700 126.758  1.00  0.00     0.182 HD
BRANCH   2   4
HETATM    4  C7  UNL     1    -126.658  32.972 125.224  1.00  0.00     0.683 A 
HETATM    5  N1  UNL     1    -126.909  34.087 124.483  1.00  0.00    -0.195 N 
HETATM    6  C5  UNL     1    -127.130  34.046 123.158  1.00  0.00     0.032 A 
ATOM      7  H1  UNL     1    -126.931  34.992 124.955  1.00  0.00     0.184 HD
HETATM    8  C4  UNL     1    -127.119  32.869 122.456  1.00  0.00     0.009 A 
HETATM    9  C6  UNL     1    -127.368  35.329 122.432  1.00  0.00     0.069 C 
HETATM   10  C14 UNL     1    -126.864  31.728 123.210  1.00  0.00     0.122 A 
HETATM   11  N9  UNL     1    -126.645  31.818 124.546  1.00  0.00    -0.177 N 
ATOM     12  H9  UNL     1    -126.461  30.958 125.062  1.00  0.00     0.186 HD
BRANCH   8  13
HETATM   13  C3  UNL     1    -127.364  32.735 120.996  1.00  0.00     0.054 C 
BRANCH  13  14
HETATM   14  C2  UNL     1    -128.605  33.479 120.572  1.00  0.00     0.078 C 
BRANCH  14  15
HETATM   15  S1  UNL     1    -128.526  34.098 118.885  1.00  0.00    -0.173 SA
HETATM   16  C1  UNL     1    -128.618  35.920 118.890  1.00  0.00     0.089 C 
ENDBRANCH  14  15
ENDBRANCH  13  14
ENDBRANCH   8  13
BRANCH  10  17
HETATM   17  N10 UNL     1    -126.831  30.604 122.574  1.00  0.00    -0.385 N 
ATOM     18 2H10 UNL     1    -127.443  29.823 122.809  1.00  0.00     0.157 HD
ATOM     19 1H10 UNL     1    -126.148  30.521 121.821  1.00  0.00     0.157 HD
ENDBRANCH  10  17
ENDBRANCH   2   4
ENDBRANCH   1   2
BRANCH   1  20
HETATM   20  O1  UNL     1    -126.813  31.224 127.882  1.00  0.00    -0.354 OA
ATOM     21  H1  UNL     1    -127.390  30.784 128.495  1.00  0.00     0.214 HD
ENDBRANCH   1  20
BRANCH   1  22
HETATM   22  N3  UNL     1    -128.624  32.390 127.130  1.00  0.00    -0.027 N 
ATOM     23  H32 UNL     1    -128.960  33.235 126.668  1.00  0.00     0.282 HD
ATOM     24  H31 UNL     1    -128.730  31.733 126.358  1.00  0.00     0.282 HD
BRANCH  22  25
HETATM   25  C9  UNL     1    -129.455  32.034 128.236  1.00  0.00     0.293 C 
BRANCH  25  26
HETATM   26  C10 UNL     1    -130.599  31.182 127.690  1.00  0.00     0.328 C 
HETATM   27  N4  UNL     1    -130.891  31.619 126.369  1.00  0.00    -0.302 N 
HETATM   28  N5  UNL     1    -131.860  30.920 125.682  1.00  0.00    -0.276 N 
ATOM     29  H4  UNL     1    -130.406  32.413 125.949  1.00  0.00     0.182 HD
HETATM   30  C11 UNL     1    -132.132  29.520 125.696  1.00  0.00     0.204 C 
ATOM     31  H5  UNL     1    -132.466  31.480 125.082  1.00  0.00     0.189 HD
HETATM   32  N6  UNL     1    -132.644  28.952 124.484  1.00  0.00    -0.062 NA
HETATM   33  N7  UNL     1    -131.965  28.692 126.663  1.00  0.00    -0.327 N 
HETATM   34  C12 UNL     1    -131.449  28.991 127.988  1.00  0.00     0.352 C 
ATOM     35  H7  UNL     1    -132.222  27.722 126.481  1.00  0.00     0.165 HD
HETATM   36  N8  UNL     1    -130.245  29.780 127.810  1.00  0.00    -0.021 N 
ATOM     37  H82 UNL     1    -129.684  29.455 127.022  1.00  0.00     0.283 HD
ATOM     38  H81 UNL     1    -129.563  29.616 128.551  1.00  0.00     0.283 HD
BRANCH  34  39
HETATM   39  S2  UNL     1    -131.243  27.544 129.013  1.00  0.00    -0.120 SA
HETATM   40  C13 UNL     1    -132.634  26.411 128.656  1.00  0.00     0.093 C 
ENDBRANCH  34  39
ENDBRANCH  25  26
ENDBRANCH  22  25
ENDBRANCH   1  22
TORSDOF 11
ENDMDL
MODEL 4
REMARK VINA RESULT: -7.015314676      0.945      1.140
REMARK  11 active torsions:
REMARK  status: ('A' for Active; 'I' for Inactive)
REMARK    1  A    between atoms: S1_2  and  C2_3 
REMARK    2  A    between atoms: C2_3  and  C3_4 
REMARK    3  A    between atoms: C3_4  and  C4_5 
REMARK    4  A    between atoms: C7_10  and  N2_11 
REMARK    5  A    between atoms: N2_11  and  C8_13 
REMARK    6  A    between atoms: C8_13  and  O1_14 
REMARK    7  A    between atoms: C8_13  and  N3_16 
REMARK    8  A    between atoms: N3_16  and  C9_19 
REMARK    9  A    between atoms: C9_19  and  C10_20 
REMARK   10  A    between atoms: C12_29  and  S2_30 
REMARK   11  A    between atoms: C14_37  and  N10_38 
ROOT
HETATM    1  C8  UNL     1    -127.335  32.412 126.844  1.00  0.00     0.440 C 
ENDROOT
BRANCH   1   2
HETATM    2  N2  UNL     1    -127.187  32.006 125.498  1.00  0.00    -0.174 N 
ATOM      3  H2  UNL     1    -127.090  31.003 125.341  1.00  0.00     0.182 HD
BRANCH   2   4
HETATM    4  C7  UNL     1    -127.161  32.741 124.455  1.00  0.00     0.683 A 
HETATM    5  N1  UNL     1    -127.036  34.088 124.612  1.00  0.00    -0.195 N 
HETATM    6  C5  UNL     1    -127.014  34.943 123.575  1.00  0.00     0.032 A 
ATOM      7  H1  UNL     1    -126.957  34.464 125.557  1.00  0.00     0.184 HD
HETATM    8  C4  UNL     1    -127.119  34.513 122.278  1.00  0.00     0.009 A 
HETATM    9  C6  UNL     1    -126.846  36.400 123.851  1.00  0.00     0.069 C 
HETATM   10  C14 UNL     1    -127.247  33.137 122.114  1.00  0.00     0.122 A 
HETATM   11  N9  UNL     1    -127.263  32.313 123.191  1.00  0.00    -0.177 N 
ATOM     12  H9  UNL     1    -127.358  31.310 123.028  1.00  0.00     0.186 HD
BRANCH   8  13
HETATM   13  C3  UNL     1    -127.115  35.390 121.077  1.00  0.00     0.054 C 
BRANCH  13  14
HETATM   14  C2  UNL     1    -128.487  35.488 120.459  1.00  0.00     0.078 C 
BRANCH  14  15
HETATM   15  S1  UNL     1    -128.552  34.881 118.767  1.00  0.00    -0.173 SA
HETATM   16  C1  UNL     1    -128.910  36.262 117.628  1.00  0.00     0.089 C 
ENDBRANCH  14  15
ENDBRANCH  13  14
ENDBRANCH   8  13
BRANCH  10  17
HETATM   17  N10 UNL     1    -127.332  32.700 120.902  1.00  0.00    -0.385 N 
ATOM     18 2H10 UNL     1    -127.063  31.751 120.641  1.00  0.00     0.157 HD
ATOM     19 1H10 UNL     1    -127.671  33.355 120.198  1.00  0.00     0.157 HD
ENDBRANCH  10  17
ENDBRANCH   2   4
ENDBRANCH   1   2
BRANCH   1  20
HETATM   20  O1  UNL     1    -126.778  31.528 127.782  1.00  0.00    -0.354 OA
ATOM     21  H1  UNL     1    -125.904  31.226 127.566  1.00  0.00     0.214 HD
ENDBRANCH   1  20
BRANCH   1  22
HETATM   22  N3  UNL     1    -128.760  32.485 127.184  1.00  0.00    -0.027 N 
ATOM     23  H32 UNL     1    -129.114  33.438 127.104  1.00  0.00     0.282 HD
ATOM     24  H31 UNL     1    -129.337  32.041 126.470  1.00  0.00     0.282 HD
BRANCH  22  25
HETATM   25  C9  UNL     1    -129.020  31.939 128.478  1.00  0.00     0.293 C 
BRANCH  25  26
HETATM   26  C10 UNL     1    -130.413  31.315 128.438  1.00  0.00     0.328 C 
HETATM   27  N4  UNL     1    -131.352  32.336 128.126  1.00  0.00    -0.302 N 
HETATM   28  N5  UNL     1    -132.667  31.948 127.979  1.00  0.00    -0.276 N 
ATOM     29  H4  UNL     1    -131.066  33.309 128.015  1.00  0.00     0.182 HD
HETATM   30  C11 UNL     1    -133.188  30.754 127.402  1.00  0.00     0.204 C 
ATOM     31  H5  UNL     1    -133.362  32.606 128.332  1.00  0.00     0.189 HD
HETATM   32  N6  UNL     1    -134.458  30.857 126.746  1.00  0.00    -0.062 NA
HETATM   33  N7  UNL     1    -132.655  29.586 127.385  1.00  0.00    -0.327 N 
HETATM   34  C12 UNL     1    -131.375  29.203 127.955  1.00  0.00     0.352 C 
ATOM     35  H7  UNL     1    -133.187  28.849 126.921  1.00  0.00     0.165 HD
HETATM   36  N8  UNL     1    -130.402  30.188 127.522  1.00  0.00    -0.021 N 
ATOM     37  H82 UNL     1    -130.550  30.477 126.555  1.00  0.00     0.283 HD
ATOM     38  H81 UNL     1    -129.470  29.789 127.414  1.00  0.00     0.283 HD
BRANCH  34  39
HETATM   39  S2  UNL     1    -130.920  27.512 127.611  1.00  0.00    -0.120 SA
HETATM   40  C13 UNL     1    -132.159  26.432 128.415  1.00  0.00     0.093 C 
ENDBRANCH  34  39
ENDBRANCH  25  26
ENDBRANCH  22  25
ENDBRANCH   1  22
TORSDOF 11
ENDMDL
MODEL 5
REMARK VINA RESULT: -6.991876009      1.283      2.092
REMARK  11 active torsions:
REMARK  status: ('A' for Active; 'I' for Inactive)
REMARK    1  A    between atoms: S1_2  and  C2_3 
REMARK    2  A    between atoms: C2_3  and  C3_4 
REMARK    3  A    between atoms: C3_4  and  C4_5 
REMARK    4  A    between atoms: C7_10  and  N2_11 
REMARK    5  A    between atoms: N2_11  and  C8_13 
REMARK    6  A    between atoms: C8_13  and  O1_14 
REMARK    7  A    between atoms: C8_13  and  N3_16 
REMARK    8  A    between atoms: N3_16  and  C9_19 
REMARK    9  A    between atoms: C9_19  and  C10_20 
REMARK   10  A    between atoms: C12_29  and  S2_30 
REMARK   11  A    between atoms: C14_37  and  N10_38 
ROOT
HETATM    1  C8  UNL     1    -127.948  31.690 125.638  1.00  0.00     0.440 C 
ENDROOT
BRANCH   1   2
HETATM    2  N2  UNL     1    -127.010  32.548 125.020  1.00  0.00    -0.174 N 
ATOM      3  H2  UNL     1    -126.073  32.550 125.422  1.00  0.00     0.182 HD
BRANCH   2   4
HETATM    4  C7  UNL     1    -127.192  33.320 124.021  1.00  0.00     0.683 A 
HETATM    5  N1  UNL     1    -127.552  32.767 122.829  1.00  0.00    -0.195 N 
HETATM    6  C5  UNL     1    -127.751  33.498 121.719  1.00  0.00     0.032 A 
ATOM      7  H1  UNL     1    -127.674  31.756 122.777  1.00  0.00     0.184 HD
HETATM    8  C4  UNL     1    -127.604  34.860 121.710  1.00  0.00     0.009 A 
HETATM    9  C6  UNL     1    -128.171  32.800 120.468  1.00  0.00     0.069 C 
HETATM   10  C14 UNL     1    -127.236  35.428 122.926  1.00  0.00     0.122 A 
HETATM   11  N9  UNL     1    -127.047  34.651 124.021  1.00  0.00    -0.177 N 
ATOM     12  H9  UNL     1    -126.778  35.106 124.894  1.00  0.00     0.186 HD
BRANCH   8  13
HETATM   13  C3  UNL     1    -127.793  35.739 120.526  1.00  0.00     0.054 C 
BRANCH  13  14
HETATM   14  C2  UNL     1    -128.503  35.018 119.409  1.00  0.00     0.078 C 
BRANCH  14  15
HETATM   15  S1  UNL     1    -128.863  36.070 117.994  1.00  0.00    -0.173 SA
HETATM   16  C1  UNL     1    -128.182  35.320 116.477  1.00  0.00     0.089 C 
ENDBRANCH  14  15
ENDBRANCH  13  14
ENDBRANCH   8  13
BRANCH  10  17
HETATM   17  N10 UNL     1    -127.104  36.713 122.954  1.00  0.00    -0.385 N 
ATOM     18 2H10 UNL     1    -127.822  37.346 122.602  1.00  0.00     0.157 HD
ATOM     19 1H10 UNL     1    -126.232  37.078 123.336  1.00  0.00     0.157 HD
ENDBRANCH  10  17
ENDBRANCH   2   4
ENDBRANCH   1   2
BRANCH   1  20
HETATM   20  O1  UNL     1    -128.831  31.057 124.748  1.00  0.00    -0.354 OA
ATOM     21  H1  UNL     1    -128.836  30.109 124.807  1.00  0.00     0.214 HD
ENDBRANCH   1  20
BRANCH   1  22
HETATM   22  N3  UNL     1    -128.805  32.463 126.543  1.00  0.00    -0.027 N 
ATOM     23  H32 UNL     1    -128.539  33.448 126.558  1.00  0.00     0.282 HD
ATOM     24  H31 UNL     1    -129.749  32.560 126.171  1.00  0.00     0.282 HD
BRANCH  22  25
HETATM   25  C9  UNL     1    -128.817  31.907 127.859  1.00  0.00     0.293 C 
BRANCH  25  26
HETATM   26  C10 UNL     1    -130.206  31.316 128.090  1.00  0.00     0.328 C 
HETATM   27  N4  UNL     1    -131.170  32.336 127.862  1.00  0.00    -0.302 N 
HETATM   28  N5  UNL     1    -132.496  31.971 127.960  1.00  0.00    -0.276 N 
ATOM     29  H4  UNL     1    -130.894  33.292 127.638  1.00  0.00     0.182 HD
HETATM   30  C11 UNL     1    -133.121  30.753 127.562  1.00  0.00     0.204 C 
ATOM     31  H5  UNL     1    -133.116  32.668 128.373  1.00  0.00     0.189 HD
HETATM   32  N6  UNL     1    -134.479  30.842 127.115  1.00  0.00    -0.062 NA
HETATM   33  N7  UNL     1    -132.612  29.574 127.542  1.00  0.00    -0.327 N 
HETATM   34  C12 UNL     1    -131.261  29.200 127.923  1.00  0.00     0.352 C 
ATOM     35  H7  UNL     1    -133.222  28.820 127.225  1.00  0.00     0.165 HD
HETATM   36  N8  UNL     1    -130.360  30.129 127.268  1.00  0.00    -0.021 N 
ATOM     37  H82 UNL     1    -130.660  30.354 126.319  1.00  0.00     0.283 HD
ATOM     38  H81 UNL     1    -129.463  29.700 127.038  1.00  0.00     0.283 HD
BRANCH  34  39
HETATM   39  S2  UNL     1    -130.890  27.479 127.632  1.00  0.00    -0.120 SA
HETATM   40  C13 UNL     1    -132.172  26.486 128.480  1.00  0.00     0.093 C 
ENDBRANCH  34  39
ENDBRANCH  25  26
ENDBRANCH  22  25
ENDBRANCH   1  22
TORSDOF 11
ENDMDL
