MODEL 1
REMARK VINA RESULT: -8.087484656      0.000      0.000
REMARK  17 active torsions:
REMARK  status: ('A' for Active; 'I' for Inactive)
REMARK    1  A    between atoms: C2_2  and  C3_3 
REMARK    2  A    between atoms: C3_3  and  C4_4 
REMARK    3  A    between atoms: C4_4  and  C5_5 
REMARK    4  A    between atoms: C5_5  and  C6_6 
REMARK    5  A    between atoms: C5_5  and  N2_13 
REMARK    6  A    between atoms: C6_6  and  N1_7 
REMARK    7  A    between atoms: C6_6  and  O1_11 
REMARK       I    between atoms: N2_13  and  C8_15 
REMARK    8  A    between atoms: C8_15  and  C9_17 
REMARK    9  A    between atoms: N3_22  and  C14_23 
REMARK   10  A    between atoms: C14_23  and  C15_24 
REMARK   11  A    between atoms: C15_24  and  C16_25 
REMARK   12  A    between atoms: C16_25  and  C17_26 
REMARK   13  A    between atoms: C17_26  and  C18_27 
REMARK   14  A    between atoms: C18_27  and  N4_28 
REMARK   15  A    between atoms: C18_27  and  C25_37 
REMARK       I    between atoms: N4_28  and  C19_29 
REMARK   16  A    between atoms: C19_29  and  C20_31 
REMARK   17  A    between atoms: C20_31  and  C21_33 
ROOT
HETATM    1  C9  UNL     1      20.401  33.272  15.355  1.00  0.00     0.064 C 
HETATM    2  C10 UNL     1      21.338  34.454  15.576  1.00  0.00     0.027 C 
HETATM    3  C11 UNL     1      20.470  32.363  16.631  1.00  0.00     0.022 C 
HETATM    4  C12 UNL     1      21.894  32.058  16.991  1.00  0.00     0.031 C 
HETATM    5  C13 UNL     1      22.618  31.809  15.683  1.00  0.00     0.272 C 
HETATM    6  N3  UNL     1      21.593  31.244  14.777  1.00  0.00     0.089 N 
HETATM    7  C26 UNL     1      20.832  32.420  14.234  1.00  0.00     0.291 C 
ENDROOT
BRANCH   1   8
HETATM    8  C8  UNL     1      19.037  33.809  15.321  1.00  0.00     0.230 C 
HETATM    9  N2  UNL     1      18.254  34.308  16.403  1.00  0.00    -0.347 N 
HETATM   10  C7  UNL     1      18.826  34.544  17.677  1.00  0.00     0.153 C 
HETATM   11  O2  UNL     1      18.435  33.834  14.186  1.00  0.00    -0.272 OA
BRANCH   9  12
HETATM   12  C5  UNL     1      16.844  34.682  16.178  1.00  0.00     0.142 C 
BRANCH  12  13
HETATM   13  C4  UNL     1      16.021  33.526  16.849  1.00  0.00     0.030 C 
BRANCH  13  14
HETATM   14  C3  UNL     1      15.887  32.286  16.108  1.00  0.00     0.002 C 
BRANCH  14  15
HETATM   15  C2  UNL     1      16.800  31.135  16.342  1.00  0.00    -0.004 C 
HETATM   16  C1  UNL     1      17.432  30.712  14.990  1.00  0.00     0.005 C 
ENDBRANCH  14  15
ENDBRANCH  13  14
ENDBRANCH  12  13
BRANCH  12  17
HETATM   17  C6  UNL     1      16.474  35.940  16.679  1.00  0.00     0.339 C 
BRANCH  17  18
HETATM   18  N1  UNL     1      15.536  36.217  17.758  1.00  0.00    -0.051 N 
ATOM     19  H13 UNL     1      14.608  36.031  17.377  1.00  0.00     0.277 HD
ATOM     20  H12 UNL     1      15.665  35.470  18.440  1.00  0.00     0.277 HD
ATOM     21  H11 UNL     1      15.452  37.079  18.295  1.00  0.00     0.277 HD
ENDBRANCH  17  18
BRANCH  17  22
HETATM   22  O1  UNL     1      16.952  37.070  16.205  1.00  0.00    -0.368 OA
ATOM     23  H1  UNL     1      16.886  37.317  15.290  1.00  0.00     0.212 HD
ENDBRANCH  17  22
ENDBRANCH  12  17
ENDBRANCH   9  12
ENDBRANCH   1   8
BRANCH   6  24
HETATM   24  C14 UNL     1      22.240  30.571  13.671  1.00  0.00     0.272 C 
BRANCH  24  25
HETATM   25  C15 UNL     1      22.030  29.088  13.851  1.00  0.00     0.030 C 
BRANCH  25  26
HETATM   26  C16 UNL     1      23.046  28.300  12.984  1.00  0.00     0.005 C 
BRANCH  26  27
HETATM   27  C17 UNL     1      22.410  27.815  11.740  1.00  0.00     0.049 C 
BRANCH  27  28
HETATM   28  C18 UNL     1      21.878  26.392  11.770  1.00  0.00     0.256 C 
BRANCH  28  29
HETATM   29  N4  UNL     1      20.570  26.222  11.412  1.00  0.00    -0.394 NA
HETATM   30  C19 UNL     1      19.236  26.047  11.047  1.00  0.00     0.358 C 
HETATM   31  O3  UNL     1      18.654  24.950  10.906  1.00  0.00    -0.248 OA
BRANCH  30  32
HETATM   32  C20 UNL     1      18.405  27.256  10.791  1.00  0.00     0.238 C 
HETATM   33  O4  UNL     1      18.116  27.549   9.582  1.00  0.00    -0.285 OA
BRANCH  32  34
HETATM   34  C21 UNL     1      17.895  28.154  11.822  1.00  0.00     0.020 C 
HETATM   35  C22 UNL     1      17.577  27.531  13.140  1.00  0.00     0.023 C 
HETATM   36  C23 UNL     1      18.955  29.238  12.089  1.00  0.00     0.023 C 
HETATM   37  C24 UNL     1      16.618  28.854  11.294  1.00  0.00     0.023 C 
ENDBRANCH  32  34
ENDBRANCH  30  32
ENDBRANCH  28  29
BRANCH  28  38
HETATM   38  C25 UNL     1      22.708  25.446  10.979  1.00  0.00     0.267 C 
HETATM   39  N5  UNL     1      24.017  25.146  11.391  1.00  0.00    -0.059 NA
HETATM   40  O5  UNL     1      22.313  24.898   9.946  1.00  0.00    -0.273 OA
ENDBRANCH  28  38
ENDBRANCH  27  28
ENDBRANCH  26  27
ENDBRANCH  25  26
ENDBRANCH  24  25
ENDBRANCH   6  24
TORSDOF 17
ENDMDL
MODEL 2
REMARK VINA RESULT: -7.964607224      1.933      9.255
REMARK  17 active torsions:
REMARK  status: ('A' for Active; 'I' for Inactive)
REMARK    1  A    between atoms: C2_2  and  C3_3 
REMARK    2  A    between atoms: C3_3  and  C4_4 
REMARK    3  A    between atoms: C4_4  and  C5_5 
REMARK    4  A    between atoms: C5_5  and  C6_6 
REMARK    5  A    between atoms: C5_5  and  N2_13 
REMARK    6  A    between atoms: C6_6  and  N1_7 
REMARK    7  A    between atoms: C6_6  and  O1_11 
REMARK       I    between atoms: N2_13  and  C8_15 
REMARK    8  A    between atoms: C8_15  and  C9_17 
REMARK    9  A    between atoms: N3_22  and  C14_23 
REMARK   10  A    between atoms: C14_23  and  C15_24 
REMARK   11  A    between atoms: C15_24  and  C16_25 
REMARK   12  A    between atoms: C16_25  and  C17_26 
REMARK   13  A    between atoms: C17_26  and  C18_27 
REMARK   14  A    between atoms: C18_27  and  N4_28 
REMARK   15  A    between atoms: C18_27  and  C25_37 
REMARK       I    between atoms: N4_28  and  C19_29 
REMARK   16  A    between atoms: C19_29  and  C20_31 
REMARK   17  A    between atoms: C20_31  and  C21_33 
ROOT
HETATM    1  C9  UNL     1      19.152  28.601  12.144  1.00  0.00     0.064 C 
HETATM    2  C10 UNL     1      17.788  28.711  11.472  1.00  0.00     0.027 C 
HETATM    3  C11 UNL     1      18.915  28.226  13.648  1.00  0.00     0.022 C 
HETATM    4  C12 UNL     1      17.910  29.148  14.274  1.00  0.00     0.031 C 
HETATM    5  C13 UNL     1      18.215  30.534  13.740  1.00  0.00     0.272 C 
HETATM    6  N3  UNL     1      19.675  30.540  13.498  1.00  0.00     0.089 N 
HETATM    7  C26 UNL     1      19.872  29.885  12.160  1.00  0.00     0.291 C 
ENDROOT
BRANCH   1   8
HETATM    8  C8  UNL     1      19.829  27.445  11.548  1.00  0.00     0.230 C 
HETATM    9  N2  UNL     1      21.179  27.022  11.721  1.00  0.00    -0.347 N 
HETATM   10  C7  UNL     1      22.007  27.596  12.718  1.00  0.00     0.153 C 
HETATM   11  O2  UNL     1      19.149  26.703  10.749  1.00  0.00    -0.272 OA
BRANCH   9  12
HETATM   12  C5  UNL     1      21.706  25.898  10.922  1.00  0.00     0.142 C 
BRANCH  12  13
HETATM   13  C4  UNL     1      23.173  25.699  11.447  1.00  0.00     0.030 C 
BRANCH  13  14
HETATM   14  C3  UNL     1      24.144  25.156  10.518  1.00  0.00     0.002 C 
BRANCH  14  15
HETATM   15  C2  UNL     1      24.114  25.496   9.070  1.00  0.00    -0.004 C 
HETATM   16  C1  UNL     1      23.711  24.234   8.264  1.00  0.00     0.005 C 
ENDBRANCH  14  15
ENDBRANCH  13  14
ENDBRANCH  12  13
BRANCH  12  17
HETATM   17  C6  UNL     1      20.962  24.711  11.001  1.00  0.00     0.339 C 
BRANCH  17  18
HETATM   18  N1  UNL     1      20.484  24.049  12.207  1.00  0.00    -0.051 N 
ATOM     19  H13 UNL     1      21.064  23.217  12.319  1.00  0.00     0.277 HD
ATOM     20  H12 UNL     1      20.770  24.644  12.985  1.00  0.00     0.277 HD
ATOM     21  H11 UNL     1      19.529  23.756  12.412  1.00  0.00     0.277 HD
ENDBRANCH  17  18
BRANCH  17  22
HETATM   22  O1  UNL     1      20.596  24.022   9.941  1.00  0.00    -0.368 OA
ATOM     23  H1  UNL     1      20.933  23.155   9.746  1.00  0.00     0.212 HD
ENDBRANCH  17  22
ENDBRANCH  12  17
ENDBRANCH   9  12
ENDBRANCH   1   8
BRANCH   6  24
HETATM   24  C14 UNL     1      20.147  31.905  13.409  1.00  0.00     0.272 C 
BRANCH  24  25
HETATM   25  C15 UNL     1      21.610  31.909  13.777  1.00  0.00     0.030 C 
BRANCH  25  26
HETATM   26  C16 UNL     1      21.769  32.035  15.315  1.00  0.00     0.005 C 
BRANCH  26  27
HETATM   27  C17 UNL     1      22.058  33.434  15.699  1.00  0.00     0.049 C 
BRANCH  27  28
HETATM   28  C18 UNL     1      20.858  34.290  16.068  1.00  0.00     0.256 C 
BRANCH  28  29
HETATM   29  N4  UNL     1      19.735  33.623  16.470  1.00  0.00    -0.394 NA
HETATM   30  C19 UNL     1      18.590  32.941  16.880  1.00  0.00     0.358 C 
HETATM   31  O3  UNL     1      18.461  31.700  16.943  1.00  0.00    -0.248 OA
BRANCH  30  32
HETATM   32  C20 UNL     1      17.395  33.734  17.280  1.00  0.00     0.238 C 
HETATM   33  O4  UNL     1      17.425  34.356  18.396  1.00  0.00    -0.285 OA
BRANCH  32  34
HETATM   34  C21 UNL     1      16.169  33.853  16.497  1.00  0.00     0.020 C 
HETATM   35  C22 UNL     1      15.581  32.577  15.996  1.00  0.00     0.023 C 
HETATM   36  C23 UNL     1      15.094  34.520  17.377  1.00  0.00     0.023 C 
HETATM   37  C24 UNL     1      16.434  34.778  15.283  1.00  0.00     0.023 C 
ENDBRANCH  32  34
ENDBRANCH  30  32
ENDBRANCH  28  29
BRANCH  28  38
HETATM   38  C25 UNL     1      21.177  35.329  17.082  1.00  0.00     0.267 C 
HETATM   39  N5  UNL     1      21.179  35.002  18.448  1.00  0.00    -0.059 NA
HETATM   40  O5  UNL     1      21.440  36.500  16.793  1.00  0.00    -0.273 OA
ENDBRANCH  28  38
ENDBRANCH  27  28
ENDBRANCH  26  27
ENDBRANCH  25  26
ENDBRANCH  24  25
ENDBRANCH   6  24
TORSDOF 17
ENDMDL
MODEL 3
REMARK VINA RESULT: -7.910490163      1.842      3.059
REMARK  17 active torsions:
REMARK  status: ('A' for Active; 'I' for Inactive)
REMARK    1  A    between atoms: C2_2  and  C3_3 
REMARK    2  A    between atoms: C3_3  and  C4_4 
REMARK    3  A    between atoms: C4_4  and  C5_5 
REMARK    4  A    between atoms: C5_5  and  C6_6 
REMARK    5  A    between atoms: C5_5  and  N2_13 
REMARK    6  A    between atoms: C6_6  and  N1_7 
REMARK    7  A    between atoms: C6_6  and  O1_11 
REMARK       I    between atoms: N2_13  and  C8_15 
REMARK    8  A    between atoms: C8_15  and  C9_17 
REMARK    9  A    between atoms: N3_22  and  C14_23 
REMARK   10  A    between atoms: C14_23  and  C15_24 
REMARK   11  A    between atoms: C15_24  and  C16_25 
REMARK   12  A    between atoms: C16_25  and  C17_26 
REMARK   13  A    between atoms: C17_26  and  C18_27 
REMARK   14  A    between atoms: C18_27  and  N4_28 
REMARK   15  A    between atoms: C18_27  and  C25_37 
REMARK       I    between atoms: N4_28  and  C19_29 
REMARK   16  A    between atoms: C19_29  and  C20_31 
REMARK   17  A    between atoms: C20_31  and  C21_33 
ROOT
HETATM    1  C9  UNL     1      19.121  31.844  15.011  1.00  0.00     0.064 C 
HETATM    2  C10 UNL     1      18.913  30.833  16.133  1.00  0.00     0.027 C 
HETATM    3  C11 UNL     1      17.939  31.680  13.994  1.00  0.00     0.022 C 
HETATM    4  C12 UNL     1      17.769  30.241  13.604  1.00  0.00     0.031 C 
HETATM    5  C13 UNL     1      19.167  29.678  13.440  1.00  0.00     0.272 C 
HETATM    6  N3  UNL     1      19.994  30.822  12.996  1.00  0.00     0.089 N 
HETATM    7  C26 UNL     1      20.349  31.581  14.243  1.00  0.00     0.291 C 
ENDROOT
BRANCH   1   8
HETATM    8  C8  UNL     1      18.956  33.176  15.602  1.00  0.00     0.230 C 
HETATM    9  N2  UNL     1      19.767  33.817  16.585  1.00  0.00    -0.347 N 
HETATM   10  C7  UNL     1      21.019  33.277  16.970  1.00  0.00     0.153 C 
HETATM   11  O2  UNL     1      17.953  33.879  15.215  1.00  0.00    -0.272 OA
BRANCH   9  12
HETATM   12  C5  UNL     1      19.350  35.116  17.146  1.00  0.00     0.142 C 
BRANCH  12  13
HETATM   13  C4  UNL     1      18.497  34.741  18.410  1.00  0.00     0.030 C 
BRANCH  13  14
HETATM   14  C3  UNL     1      17.115  35.179  18.435  1.00  0.00     0.002 C 
BRANCH  14  15
HETATM   15  C2  UNL     1      15.996  34.248  18.128  1.00  0.00    -0.004 C 
HETATM   16  C1  UNL     1      14.890  35.024  17.368  1.00  0.00     0.005 C 
ENDBRANCH  14  15
ENDBRANCH  13  14
ENDBRANCH  12  13
BRANCH  12  17
HETATM   17  C6  UNL     1      20.401  35.989  17.471  1.00  0.00     0.339 C 
BRANCH  17  18
HETATM   18  N1  UNL     1      21.202  36.784  16.551  1.00  0.00    -0.051 N 
ATOM     19  H13 UNL     1      22.139  36.381  16.576  1.00  0.00     0.277 HD
ATOM     20  H12 UNL     1      20.868  36.551  15.616  1.00  0.00     0.277 HD
ATOM     21  H11 UNL     1      21.330  37.795  16.561  1.00  0.00     0.277 HD
ENDBRANCH  17  18
BRANCH  17  22
HETATM   22  O1  UNL     1      20.806  36.196  18.706  1.00  0.00    -0.368 OA
ATOM     23  H1  UNL     1      20.295  36.680  19.344  1.00  0.00     0.212 HD
ENDBRANCH  17  22
ENDBRANCH  12  17
ENDBRANCH   9  12
ENDBRANCH   1   8
BRANCH   6  24
HETATM   24  C14 UNL     1      21.217  30.334  12.396  1.00  0.00     0.272 C 
BRANCH  24  25
HETATM   25  C15 UNL     1      22.114  29.855  13.511  1.00  0.00     0.030 C 
BRANCH  25  26
HETATM   26  C16 UNL     1      22.751  28.494  13.130  1.00  0.00     0.005 C 
BRANCH  26  27
HETATM   27  C17 UNL     1      22.096  27.924  11.932  1.00  0.00     0.049 C 
BRANCH  27  28
HETATM   28  C18 UNL     1      21.984  26.409  11.887  1.00  0.00     0.256 C 
BRANCH  28  29
HETATM   29  N4  UNL     1      20.792  25.898  11.458  1.00  0.00    -0.394 NA
HETATM   30  C19 UNL     1      19.575  25.376  11.022  1.00  0.00     0.358 C 
HETATM   31  O3  UNL     1      18.776  24.707  11.711  1.00  0.00    -0.248 OA
BRANCH  30  32
HETATM   32  C20 UNL     1      19.163  25.616   9.610  1.00  0.00     0.238 C 
HETATM   33  O4  UNL     1      19.853  25.081   8.678  1.00  0.00    -0.285 OA
BRANCH  32  34
HETATM   34  C21 UNL     1      18.027  26.434   9.198  1.00  0.00     0.020 C 
HETATM   35  C22 UNL     1      17.672  27.571  10.097  1.00  0.00     0.023 C 
HETATM   36  C23 UNL     1      18.343  27.043   7.819  1.00  0.00     0.023 C 
HETATM   37  C24 UNL     1      16.781  25.526   9.046  1.00  0.00     0.023 C 
ENDBRANCH  32  34
ENDBRANCH  30  32
ENDBRANCH  28  29
BRANCH  28  38
HETATM   38  C25 UNL     1      23.077  25.771  11.108  1.00  0.00     0.267 C 
HETATM   39  N5  UNL     1      24.308  25.490  11.723  1.00  0.00    -0.059 NA
HETATM   40  O5  UNL     1      22.973  25.470   9.915  1.00  0.00    -0.273 OA
ENDBRANCH  28  38
ENDBRANCH  27  28
ENDBRANCH  26  27
ENDBRANCH  25  26
ENDBRANCH  24  25
ENDBRANCH   6  24
TORSDOF 17
ENDMDL
MODEL 4
REMARK VINA RESULT: -7.815678968      1.918      3.241
REMARK  17 active torsions:
REMARK  status: ('A' for Active; 'I' for Inactive)
REMARK    1  A    between atoms: C2_2  and  C3_3 
REMARK    2  A    between atoms: C3_3  and  C4_4 
REMARK    3  A    between atoms: C4_4  and  C5_5 
REMARK    4  A    between atoms: C5_5  and  C6_6 
REMARK    5  A    between atoms: C5_5  and  N2_13 
REMARK    6  A    between atoms: C6_6  and  N1_7 
REMARK    7  A    between atoms: C6_6  and  O1_11 
REMARK       I    between atoms: N2_13  and  C8_15 
REMARK    8  A    between atoms: C8_15  and  C9_17 
REMARK    9  A    between atoms: N3_22  and  C14_23 
REMARK   10  A    between atoms: C14_23  and  C15_24 
REMARK   11  A    between atoms: C15_24  and  C16_25 
REMARK   12  A    between atoms: C16_25  and  C17_26 
REMARK   13  A    between atoms: C17_26  and  C18_27 
REMARK   14  A    between atoms: C18_27  and  N4_28 
REMARK   15  A    between atoms: C18_27  and  C25_37 
REMARK       I    between atoms: N4_28  and  C19_29 
REMARK   16  A    between atoms: C19_29  and  C20_31 
REMARK   17  A    between atoms: C20_31  and  C21_33 
ROOT
HETATM    1  C9  UNL     1      18.950  32.430  15.311  1.00  0.00     0.064 C 
HETATM    2  C10 UNL     1      18.838  31.426  16.453  1.00  0.00     0.027 C 
HETATM    3  C11 UNL     1      17.749  32.180  14.336  1.00  0.00     0.022 C 
HETATM    4  C12 UNL     1      17.651  30.728  13.971  1.00  0.00     0.031 C 
HETATM    5  C13 UNL     1      19.074  30.245  13.770  1.00  0.00     0.272 C 
HETATM    6  N3  UNL     1      19.818  31.429  13.283  1.00  0.00     0.089 N 
HETATM    7  C26 UNL     1      20.167  32.227  14.507  1.00  0.00     0.291 C 
ENDROOT
BRANCH   1   8
HETATM    8  C8  UNL     1      18.726  33.759  15.888  1.00  0.00     0.230 C 
HETATM    9  N2  UNL     1      19.484  34.430  16.892  1.00  0.00    -0.347 N 
HETATM   10  C7  UNL     1      20.740  33.931  17.320  1.00  0.00     0.153 C 
HETATM   11  O2  UNL     1      17.714  34.428  15.465  1.00  0.00    -0.272 OA
BRANCH   9  12
HETATM   12  C5  UNL     1      19.011  35.719  17.432  1.00  0.00     0.142 C 
BRANCH  12  13
HETATM   13  C4  UNL     1      18.218  35.330  18.731  1.00  0.00     0.030 C 
BRANCH  13  14
HETATM   14  C3  UNL     1      16.787  35.568  18.734  1.00  0.00     0.002 C 
BRANCH  14  15
HETATM   15  C2  UNL     1      15.822  34.523  18.300  1.00  0.00    -0.004 C 
HETATM   16  C1  UNL     1      14.836  35.142  17.275  1.00  0.00     0.005 C 
ENDBRANCH  14  15
ENDBRANCH  13  14
ENDBRANCH  12  13
BRANCH  12  17
HETATM   17  C6  UNL     1      20.018  36.658  17.702  1.00  0.00     0.339 C 
BRANCH  17  18
HETATM   18  N1  UNL     1      20.879  37.327  16.737  1.00  0.00    -0.051 N 
ATOM     19  H13 UNL     1      21.835  37.096  17.006  1.00  0.00     0.277 HD
ATOM     20  H12 UNL     1      20.754  36.829  15.856  1.00  0.00     0.277 HD
ATOM     21  H11 UNL     1      20.886  38.320  16.501  1.00  0.00     0.277 HD
ENDBRANCH  17  18
BRANCH  17  22
HETATM   22  O1  UNL     1      20.319  37.058  18.918  1.00  0.00    -0.368 OA
ATOM     23  H1  UNL     1      20.544  37.957  19.127  1.00  0.00     0.212 HD
ENDBRANCH  17  22
ENDBRANCH  12  17
ENDBRANCH   9  12
ENDBRANCH   1   8
BRANCH   6  24
HETATM   24  C14 UNL     1      21.048  31.003  12.650  1.00  0.00     0.272 C 
BRANCH  24  25
HETATM   25  C15 UNL     1      21.996  30.569  13.740  1.00  0.00     0.030 C 
BRANCH  25  26
HETATM   26  C16 UNL     1      22.481  29.120  13.474  1.00  0.00     0.005 C 
BRANCH  26  27
HETATM   27  C17 UNL     1      22.011  28.643  12.154  1.00  0.00     0.049 C 
BRANCH  27  28
HETATM   28  C18 UNL     1      21.277  27.313  12.145  1.00  0.00     0.256 C 
BRANCH  28  29
HETATM   29  N4  UNL     1      20.014  27.318  11.625  1.00  0.00    -0.394 NA
HETATM   30  C19 UNL     1      18.724  27.325  11.094  1.00  0.00     0.358 C 
HETATM   31  O3  UNL     1      17.930  28.289  11.114  1.00  0.00    -0.248 OA
BRANCH  30  32
HETATM   32  C20 UNL     1      18.217  26.085  10.444  1.00  0.00     0.238 C 
HETATM   33  O4  UNL     1      17.815  25.129  11.190  1.00  0.00    -0.285 OA
BRANCH  32  34
HETATM   34  C21 UNL     1      18.150  25.864   9.003  1.00  0.00     0.020 C 
HETATM   35  C22 UNL     1      18.272  27.077   8.143  1.00  0.00     0.023 C 
HETATM   36  C23 UNL     1      19.300  24.921   8.603  1.00  0.00     0.023 C 
HETATM   37  C24 UNL     1      16.813  25.158   8.663  1.00  0.00     0.023 C 
ENDBRANCH  32  34
ENDBRANCH  30  32
ENDBRANCH  28  29
BRANCH  28  38
HETATM   38  C25 UNL     1      22.052  26.228  11.489  1.00  0.00     0.267 C 
HETATM   39  N5  UNL     1      21.625  24.895  11.595  1.00  0.00    -0.059 NA
HETATM   40  O5  UNL     1      23.086  26.429  10.844  1.00  0.00    -0.273 OA
ENDBRANCH  28  38
ENDBRANCH  27  28
ENDBRANCH  26  27
ENDBRANCH  25  26
ENDBRANCH  24  25
ENDBRANCH   6  24
TORSDOF 17
ENDMDL
MODEL 5
REMARK VINA RESULT: -7.807424955      2.019      4.374
REMARK  17 active torsions:
REMARK  status: ('A' for Active; 'I' for Inactive)
REMARK    1  A    between atoms: C2_2  and  C3_3 
REMARK    2  A    between atoms: C3_3  and  C4_4 
REMARK    3  A    between atoms: C4_4  and  C5_5 
REMARK    4  A    between atoms: C5_5  and  C6_6 
REMARK    5  A    between atoms: C5_5  and  N2_13 
REMARK    6  A    between atoms: C6_6  and  N1_7 
REMARK    7  A    between atoms: C6_6  and  O1_11 
REMARK       I    between atoms: N2_13  and  C8_15 
REMARK    8  A    between atoms: C8_15  and  C9_17 
REMARK    9  A    between atoms: N3_22  and  C14_23 
REMARK   10  A    between atoms: C14_23  and  C15_24 
REMARK   11  A    between atoms: C15_24  and  C16_25 
REMARK   12  A    between atoms: C16_25  and  C17_26 
REMARK   13  A    between atoms: C17_26  and  C18_27 
REMARK   14  A    between atoms: C18_27  and  N4_28 
REMARK   15  A    between atoms: C18_27  and  C25_37 
REMARK       I    between atoms: N4_28  and  C19_29 
REMARK   16  A    between atoms: C19_29  and  C20_31 
REMARK   17  A    between atoms: C20_31  and  C21_33 
ROOT
HETATM    1  C9  UNL     1      19.627  30.798  13.865  1.00  0.00     0.064 C 
HETATM    2  C10 UNL     1      20.801  30.923  12.900  1.00  0.00     0.027 C 
HETATM    3  C11 UNL     1      20.091  29.904  15.067  1.00  0.00     0.022 C 
HETATM    4  C12 UNL     1      20.718  28.633  14.575  1.00  0.00     0.031 C 
HETATM    5  C13 UNL     1      19.880  28.175  13.398  1.00  0.00     0.272 C 
HETATM    6  N3  UNL     1      18.510  28.655  13.689  1.00  0.00     0.089 N 
HETATM    7  C26 UNL     1      18.482  30.096  13.263  1.00  0.00     0.291 C 
ENDROOT
BRANCH   1   8
HETATM    8  C8  UNL     1      19.393  32.131  14.428  1.00  0.00     0.230 C 
HETATM    9  N2  UNL     1      18.191  32.660  14.984  1.00  0.00    -0.347 N 
HETATM   10  C7  UNL     1      17.078  31.826  15.257  1.00  0.00     0.153 C 
HETATM   11  O2  UNL     1      20.374  32.961  14.422  1.00  0.00    -0.272 OA
BRANCH   9  12
HETATM   12  C5  UNL     1      18.127  34.081  15.378  1.00  0.00     0.142 C 
BRANCH  12  13
HETATM   13  C4  UNL     1      16.592  34.378  15.520  1.00  0.00     0.030 C 
BRANCH  13  14
HETATM   14  C3  UNL     1      16.211  35.596  16.209  1.00  0.00     0.002 C 
BRANCH  14  15
HETATM   15  C2  UNL     1      15.296  35.576  17.381  1.00  0.00    -0.004 C 
HETATM   16  C1  UNL     1      15.078  34.106  17.825  1.00  0.00     0.005 C 
ENDBRANCH  14  15
ENDBRANCH  13  14
ENDBRANCH  12  13
BRANCH  12  17
HETATM   17  C6  UNL     1      18.828  34.406  16.550  1.00  0.00     0.339 C 
BRANCH  17  18
HETATM   18  N1  UNL     1      18.673  33.801  17.866  1.00  0.00    -0.051 N 
ATOM     19  H13 UNL     1      17.822  34.202  18.260  1.00  0.00     0.277 HD
ATOM     20  H12 UNL     1      18.421  32.827  17.698  1.00  0.00     0.277 HD
ATOM     21  H11 UNL     1      19.356  33.790  18.623  1.00  0.00     0.277 HD
ENDBRANCH  17  18
BRANCH  17  22
HETATM   22  O1  UNL     1      19.748  35.346  16.599  1.00  0.00    -0.368 OA
ATOM     23  H1  UNL     1      20.552  35.309  16.095  1.00  0.00     0.212 HD
ENDBRANCH  17  22
ENDBRANCH  12  17
ENDBRANCH   9  12
ENDBRANCH   1   8
BRANCH   6  24
HETATM   24  C14 UNL     1      17.557  27.923  12.883  1.00  0.00     0.272 C 
BRANCH  24  25
HETATM   25  C15 UNL     1      17.163  28.806  11.726  1.00  0.00     0.030 C 
BRANCH  25  26
HETATM   26  C16 UNL     1      17.352  28.042  10.389  1.00  0.00     0.005 C 
BRANCH  26  27
HETATM   27  C17 UNL     1      18.043  26.754  10.614  1.00  0.00     0.049 C 
BRANCH  27  28
HETATM   28  C18 UNL     1      19.296  26.512   9.788  1.00  0.00     0.256 C 
BRANCH  28  29
HETATM   29  N4  UNL     1      20.344  25.917  10.431  1.00  0.00    -0.394 NA
HETATM   30  C19 UNL     1      21.413  25.309  11.088  1.00  0.00     0.358 C 
HETATM   31  O3  UNL     1      21.327  24.548  12.075  1.00  0.00    -0.248 OA
BRANCH  30  32
HETATM   32  C20 UNL     1      22.794  25.575  10.597  1.00  0.00     0.238 C 
HETATM   33  O4  UNL     1      23.279  24.802   9.703  1.00  0.00    -0.285 OA
BRANCH  32  34
HETATM   34  C21 UNL     1      23.655  26.654  11.068  1.00  0.00     0.020 C 
HETATM   35  C22 UNL     1      23.027  27.645  11.989  1.00  0.00     0.023 C 
HETATM   36  C23 UNL     1      24.841  26.031  11.829  1.00  0.00     0.023 C 
HETATM   37  C24 UNL     1      24.221  27.417   9.845  1.00  0.00     0.023 C 
ENDBRANCH  32  34
ENDBRANCH  30  32
ENDBRANCH  28  29
BRANCH  28  38
HETATM   38  C25 UNL     1      19.026  25.763   8.533  1.00  0.00     0.267 C 
HETATM   39  N5  UNL     1      18.992  24.359   8.546  1.00  0.00    -0.059 NA
HETATM   40  O5  UNL     1      18.833  26.312   7.444  1.00  0.00    -0.273 OA
ENDBRANCH  28  38
ENDBRANCH  27  28
ENDBRANCH  26  27
ENDBRANCH  25  26
ENDBRANCH  24  25
ENDBRANCH   6  24
TORSDOF 17
ENDMDL
