MODEL 1
REMARK VINA RESULT: -6.104590070      0.000      0.000
REMARK  4 active torsions:
REMARK  status: ('A' for Active; 'I' for Inactive)
REMARK    1  A    between atoms: C2_2  and  O1_3 
REMARK    2  A    between atoms: O1_3  and  C3_4 
REMARK    3  A    between atoms: C4_7  and  N2_8 
REMARK    4  A    between atoms: C5_13  and  N4_14 
ROOT
HETATM    1  C3  UNL     1       9.745  25.622  34.079  1.00  0.00     0.252 A 
HETATM    2  N1  UNL     1       9.017  24.907  34.956  1.00  0.00    -0.154 N 
ATOM      3  H1  UNL     1       8.461  24.121  34.618  1.00  0.00     0.188 HD
HETATM    4  C4  UNL     1       9.007  25.205  36.267  1.00  0.00     0.693 A 
HETATM    5  N3  UNL     1       9.745  26.244  36.699  1.00  0.00    -0.023 N 
ATOM      6  H3  UNL     1       9.742  26.476  37.692  1.00  0.00     0.203 HD
HETATM    7  C5  UNL     1      10.486  26.984  35.858  1.00  0.00     0.693 A 
HETATM    8  N5  UNL     1      10.479  26.666  34.551  1.00  0.00    -0.154 N 
ATOM      9  H5  UNL     1      11.037  27.218  33.899  1.00  0.00     0.188 HD
ENDROOT
BRANCH   1  10
HETATM   10  O1  UNL     1       9.785  25.352  32.719  1.00  0.00    -0.322 OA
BRANCH  10  11
HETATM   11  C2  UNL     1       9.043  24.224  32.271  1.00  0.00     0.174 C 
HETATM   12  C1  UNL     1       7.601  24.560  32.071  1.00  0.00     0.034 C 
ENDBRANCH  10  11
ENDBRANCH   1  10
BRANCH   4  13
HETATM   13  N2  UNL     1       8.297  24.503  37.110  1.00  0.00    -0.234 N 
ATOM     14  H22 UNL     1       8.111  23.516  36.932  1.00  0.00     0.174 HD
ATOM     15  H21 UNL     1       7.918  24.927  37.956  1.00  0.00     0.174 HD
ENDBRANCH   4  13
BRANCH   7  16
HETATM   16  N4  UNL     1      11.188  27.976  36.277  1.00  0.00    -0.234 N 
ATOM     17  H42 UNL     1      11.482  28.020  37.253  1.00  0.00     0.174 HD
ATOM     18  H41 UNL     1      11.467  28.734  35.654  1.00  0.00     0.174 HD
ENDBRANCH   7  16
TORSDOF 4
ENDMDL
MODEL 2
REMARK VINA RESULT: -6.090845561      0.059      2.414
REMARK  4 active torsions:
REMARK  status: ('A' for Active; 'I' for Inactive)
REMARK    1  A    between atoms: C2_2  and  O1_3 
REMARK    2  A    between atoms: O1_3  and  C3_4 
REMARK    3  A    between atoms: C4_7  and  N2_8 
REMARK    4  A    between atoms: C5_13  and  N4_14 
ROOT
HETATM    1  C3  UNL     1       9.801  25.678  34.044  1.00  0.00     0.252 A 
HETATM    2  N1  UNL     1      10.514  26.705  34.539  1.00  0.00    -0.154 N 
ATOM      3  H1  UNL     1      11.082  27.269  33.906  1.00  0.00     0.188 HD
HETATM    4  C4  UNL     1      10.495  27.006  35.850  1.00  0.00     0.693 A 
HETATM    5  N3  UNL     1       9.743  26.254  36.674  1.00  0.00    -0.023 N 
ATOM      6  H3  UNL     1       9.724  26.475  37.669  1.00  0.00     0.203 HD
HETATM    7  C5  UNL     1       9.015  25.219  36.222  1.00  0.00     0.693 A 
HETATM    8  N5  UNL     1       9.051  24.939  34.906  1.00  0.00    -0.154 N 
ATOM      9  H5  UNL     1       8.503  24.157  34.547  1.00  0.00     0.188 HD
ENDROOT
BRANCH   1  10
HETATM   10  O1  UNL     1       9.789  25.332  32.700  1.00  0.00    -0.322 OA
BRANCH  10  11
HETATM   11  C2  UNL     1       9.014  24.195  32.343  1.00  0.00     0.174 C 
HETATM   12  C1  UNL     1       7.592  24.562  32.070  1.00  0.00     0.034 C 
ENDBRANCH  10  11
ENDBRANCH   1  10
BRANCH   4  13
HETATM   13  N2  UNL     1      11.192  28.006  36.320  1.00  0.00    -0.234 N 
ATOM     14  H22 UNL     1      10.800  28.947  36.334  1.00  0.00     0.174 HD
ATOM     15  H21 UNL     1      12.136  27.864  36.679  1.00  0.00     0.174 HD
ENDBRANCH   4  13
BRANCH   7  16
HETATM   16  N4  UNL     1       8.298  24.504  37.015  1.00  0.00    -0.234 N 
ATOM     17  H42 UNL     1       7.289  24.646  37.060  1.00  0.00     0.174 HD
ATOM     18  H41 UNL     1       8.713  23.788  37.609  1.00  0.00     0.174 HD
ENDBRANCH   7  16
TORSDOF 4
ENDMDL
MODEL 3
REMARK VINA RESULT: -5.934390450      2.112      3.941
REMARK  4 active torsions:
REMARK  status: ('A' for Active; 'I' for Inactive)
REMARK    1  A    between atoms: C2_2  and  O1_3 
REMARK    2  A    between atoms: O1_3  and  C3_4 
REMARK    3  A    between atoms: C4_7  and  N2_8 
REMARK    4  A    between atoms: C5_13  and  N4_14 
ROOT
HETATM    1  C3  UNL     1      10.454  27.127  36.140  1.00  0.00     0.252 A 
HETATM    2  N1  UNL     1       9.663  26.297  36.845  1.00  0.00    -0.154 N 
ATOM      3  H1  UNL     1       9.550  26.448  37.847  1.00  0.00     0.188 HD
HETATM    4  C4  UNL     1       9.018  25.274  36.256  1.00  0.00     0.693 A 
HETATM    5  N3  UNL     1       9.176  25.087  34.933  1.00  0.00    -0.023 N 
ATOM      6  H3  UNL     1       8.691  24.313  34.480  1.00  0.00     0.203 HD
HETATM    7  C5  UNL     1       9.956  25.891  34.192  1.00  0.00     0.693 A 
HETATM    8  N5  UNL     1      10.591  26.907  34.805  1.00  0.00    -0.154 N 
ATOM      9  H5  UNL     1      11.186  27.527  34.256  1.00  0.00     0.188 HD
ENDROOT
BRANCH   1  10
HETATM   10  O1  UNL     1      11.138  28.194  36.705  1.00  0.00    -0.322 OA
BRANCH  10  11
HETATM   11  C2  UNL     1      12.173  28.773  35.920  1.00  0.00     0.174 C 
HETATM   12  C1  UNL     1      11.848  30.179  35.532  1.00  0.00     0.034 C 
ENDBRANCH  10  11
ENDBRANCH   1  10
BRANCH   4  13
HETATM   13  N2  UNL     1       8.252  24.475  36.950  1.00  0.00    -0.234 N 
ATOM     14  H22 UNL     1       8.661  23.764  37.555  1.00  0.00     0.174 HD
ATOM     15  H21 UNL     1       7.236  24.549  36.900  1.00  0.00     0.174 HD
ENDBRANCH   4  13
BRANCH   7  16
HETATM   16  N4  UNL     1      10.104  25.705  32.928  1.00  0.00    -0.234 N 
ATOM     17  H42 UNL     1      10.157  26.504  32.297  1.00  0.00     0.174 HD
ATOM     18  H41 UNL     1      10.170  24.769  32.531  1.00  0.00     0.174 HD
ENDBRANCH   7  16
TORSDOF 4
ENDMDL
MODEL 4
REMARK VINA RESULT: -5.907221908      2.087      4.319
REMARK  4 active torsions:
REMARK  status: ('A' for Active; 'I' for Inactive)
REMARK    1  A    between atoms: C2_2  and  O1_3 
REMARK    2  A    between atoms: O1_3  and  C3_4 
REMARK    3  A    between atoms: C4_7  and  N2_8 
REMARK    4  A    between atoms: C5_13  and  N4_14 
ROOT
HETATM    1  C3  UNL     1      10.449  27.108  36.089  1.00  0.00     0.252 A 
HETATM    2  N1  UNL     1      10.484  26.839  34.772  1.00  0.00    -0.154 N 
ATOM      3  H1  UNL     1      11.030  27.440  34.155  1.00  0.00     0.188 HD
HETATM    4  C4  UNL     1       9.814  25.796  34.250  1.00  0.00     0.693 A 
HETATM    5  N3  UNL     1       9.097  25.012  35.076  1.00  0.00    -0.023 N 
ATOM      6  H3  UNL     1       8.586  24.219  34.687  1.00  0.00     0.203 HD
HETATM    7  C5  UNL     1       9.035  25.243  36.397  1.00  0.00     0.693 A 
HETATM    8  N5  UNL     1       9.714  26.293  36.894  1.00  0.00    -0.154 N 
ATOM      9  H5  UNL     1       9.678  26.483  37.896  1.00  0.00     0.188 HD
ENDROOT
BRANCH   1  10
HETATM   10  O1  UNL     1      11.124  28.172  36.671  1.00  0.00    -0.322 OA
BRANCH  10  11
HETATM   11  C2  UNL     1      12.191  28.736  35.920  1.00  0.00     0.174 C 
HETATM   12  C1  UNL     1      11.867  30.119  35.456  1.00  0.00     0.034 C 
ENDBRANCH  10  11
ENDBRANCH   1  10
BRANCH   4  13
HETATM   13  N2  UNL     1       9.855  25.545  32.969  1.00  0.00    -0.234 N 
ATOM     14  H22 UNL     1      10.374  24.741  32.616  1.00  0.00     0.174 HD
ATOM     15  H21 UNL     1       9.371  26.145  32.301  1.00  0.00     0.174 HD
ENDBRANCH   4  13
BRANCH   7  16
HETATM   16  N4  UNL     1       8.347  24.490  37.180  1.00  0.00    -0.234 N 
ATOM     17  H42 UNL     1       7.476  24.072  36.854  1.00  0.00     0.174 HD
ATOM     18  H41 UNL     1       8.651  24.293  38.133  1.00  0.00     0.174 HD
ENDBRANCH   7  16
TORSDOF 4
ENDMDL
MODEL 5
REMARK VINA RESULT: -5.641706690      2.094      3.970
REMARK  4 active torsions:
REMARK  status: ('A' for Active; 'I' for Inactive)
REMARK    1  A    between atoms: C2_2  and  O1_3 
REMARK    2  A    between atoms: O1_3  and  C3_4 
REMARK    3  A    between atoms: C4_7  and  N2_8 
REMARK    4  A    between atoms: C5_13  and  N4_14 
ROOT
HETATM    1  C3  UNL     1       9.715  26.323  35.924  1.00  0.00     0.252 A 
HETATM    2  N1  UNL     1       8.604  25.600  36.156  1.00  0.00    -0.154 N 
ATOM      3  H1  UNL     1       8.188  25.611  37.087  1.00  0.00     0.188 HD
HETATM    4  C4  UNL     1       8.032  24.863  35.187  1.00  0.00     0.693 A 
HETATM    5  N3  UNL     1       8.592  24.857  33.964  1.00  0.00    -0.023 N 
ATOM      6  H3  UNL     1       8.164  24.300  33.225  1.00  0.00     0.203 HD
HETATM    7  C5  UNL     1       9.701  25.564  33.689  1.00  0.00     0.693 A 
HETATM    8  N5  UNL     1      10.254  26.294  34.675  1.00  0.00    -0.154 N 
ATOM      9  H5  UNL     1      11.095  26.837  34.482  1.00  0.00     0.188 HD
ENDROOT
BRANCH   1  10
HETATM   10  O1  UNL     1      10.339  27.097  36.891  1.00  0.00    -0.322 OA
BRANCH  10  11
HETATM   11  C2  UNL     1      11.082  28.218  36.428  1.00  0.00     0.174 C 
HETATM   12  C1  UNL     1      11.019  29.357  37.393  1.00  0.00     0.034 C 
ENDBRANCH  10  11
ENDBRANCH   1  10
BRANCH   4  13
HETATM   13  N2  UNL     1       6.953  24.164  35.424  1.00  0.00    -0.234 N 
ATOM     14  H22 UNL     1       6.576  24.101  36.369  1.00  0.00     0.174 HD
ATOM     15  H21 UNL     1       6.472  23.673  34.671  1.00  0.00     0.174 HD
ENDBRANCH   4  13
BRANCH   7  16
HETATM   16  N4  UNL     1      10.231  25.554  32.518  1.00  0.00    -0.234 N 
ATOM     17  H42 UNL     1       9.652  25.388  31.695  1.00  0.00     0.174 HD
ATOM     18  H41 UNL     1      11.230  25.710  32.383  1.00  0.00     0.174 HD
ENDBRANCH   7  16
TORSDOF 4
ENDMDL
