MODEL 1
REMARK VINA RESULT: -7.660960010      0.000      0.000
REMARK  5 active torsions:
REMARK  status: ('A' for Active; 'I' for Inactive)
REMARK    1  A    between atoms: C2_2  and  O1_3 
REMARK    2  A    between atoms: O1_3  and  C3_4 
REMARK    3  A    between atoms: C3_4  and  C4_6 
REMARK    4  A    between atoms: C6_8  and  C7_9 
REMARK    5  A    between atoms: C9_12  and  C10_13 
ROOT
HETATM    1  C4  UNL     1      21.917   8.295  19.310  1.00  0.00     0.053 A 
HETATM    2  C5  UNL     1      21.935   8.044  20.637  1.00  0.00     0.039 A 
HETATM    3  C6  UNL     1      20.962   8.584  21.391  1.00  0.00     0.025 A 
HETATM    4  S2  UNL     1      20.015   9.445  20.261  1.00  0.00    -0.093 SA
HETATM    5  C13 UNL     1      20.896   9.087  18.844  1.00  0.00    -0.004 A 
HETATM    6  C14 UNL     1      20.632   9.526  17.422  1.00  0.00     0.057 C 
ENDROOT
BRANCH   3   7
HETATM    7  C7  UNL     1      20.664   8.532  22.833  1.00  0.00     0.047 A 
HETATM    8  S1  UNL     1      20.629   9.853  23.922  1.00  0.00    -0.098 SA
HETATM    9  C8  UNL     1      20.227   9.019  25.343  1.00  0.00     0.066 A 
HETATM   10  C9  UNL     1      20.123   7.704  24.947  1.00  0.00     0.018 A 
HETATM   11  C12 UNL     1      20.356   7.466  23.626  1.00  0.00     0.077 A 
HETATM   12  N2  UNL     1      20.287   6.122  23.041  1.00  0.00    -0.100 NA
BRANCH  10  13
HETATM   13  C10 UNL     1      19.774   6.676  25.966  1.00  0.00     0.011 C 
HETATM   14  C11 UNL     1      20.754   6.445  27.108  1.00  0.00     0.068 C 
HETATM   15  N1  UNL     1      18.739   5.993  25.945  1.00  0.00    -0.402 N 
ATOM     16  H12 UNL     1      18.083   6.148  25.180  1.00  0.00     0.156 HD
ATOM     17  H11 UNL     1      18.500   5.289  26.643  1.00  0.00     0.156 HD
ENDBRANCH  10  13
ENDBRANCH   3   7
BRANCH   1  18
HETATM   18  C3  UNL     1      22.932   7.758  18.370  1.00  0.00     0.294 C 
HETATM   19  O2  UNL     1      23.440   6.616  18.523  1.00  0.00    -0.259 OA
BRANCH  18  20
HETATM   20  O1  UNL     1      23.358   8.491  17.294  1.00  0.00    -0.318 OA
BRANCH  20  21
HETATM   21  C2  UNL     1      23.810   7.898  16.091  1.00  0.00     0.174 C 
HETATM   22  C1  UNL     1      23.049   8.371  14.892  1.00  0.00     0.034 C 
ENDBRANCH  20  21
ENDBRANCH  18  20
ENDBRANCH   1  18
TORSDOF 5
ENDMDL
MODEL 2
REMARK VINA RESULT: -7.297551534      3.773      7.898
REMARK  5 active torsions:
REMARK  status: ('A' for Active; 'I' for Inactive)
REMARK    1  A    between atoms: C2_2  and  O1_3 
REMARK    2  A    between atoms: O1_3  and  C3_4 
REMARK    3  A    between atoms: C3_4  and  C4_6 
REMARK    4  A    between atoms: C6_8  and  C7_9 
REMARK    5  A    between atoms: C9_12  and  C10_13 
ROOT
HETATM    1  C4  UNL     1      20.097   8.265  24.185  1.00  0.00     0.053 A 
HETATM    2  C5  UNL     1      20.520   8.714  22.983  1.00  0.00     0.039 A 
HETATM    3  C6  UNL     1      20.990   7.810  22.106  1.00  0.00     0.025 A 
HETATM    4  S2  UNL     1      20.847   6.330  22.945  1.00  0.00    -0.093 SA
HETATM    5  C13 UNL     1      20.184   6.913  24.406  1.00  0.00    -0.004 A 
HETATM    6  C14 UNL     1      19.788   6.143  25.645  1.00  0.00     0.057 C 
ENDROOT
BRANCH   3   7
HETATM    7  C7  UNL     1      21.524   7.924  20.738  1.00  0.00     0.047 A 
HETATM    8  S1  UNL     1      22.818   7.029  20.064  1.00  0.00    -0.098 SA
HETATM    9  C8  UNL     1      22.833   7.705  18.509  1.00  0.00     0.066 A 
HETATM   10  C9  UNL     1      21.814   8.633  18.533  1.00  0.00     0.018 A 
HETATM   11  C12 UNL     1      21.138   8.734  19.711  1.00  0.00     0.077 A 
HETATM   12  N2  UNL     1      20.027   9.673  19.905  1.00  0.00    -0.100 NA
BRANCH  10  13
HETATM   13  C10 UNL     1      21.542   9.426  17.304  1.00  0.00     0.011 C 
HETATM   14  C11 UNL     1      22.356   9.109  16.057  1.00  0.00     0.068 C 
HETATM   15  N1  UNL     1      20.698  10.333  17.228  1.00  0.00    -0.402 N 
ATOM     16  H12 UNL     1      20.154  10.545  18.064  1.00  0.00     0.156 HD
ATOM     17  H11 UNL     1      20.512  10.877  16.386  1.00  0.00     0.156 HD
ENDBRANCH  10  13
ENDBRANCH   3   7
BRANCH   1  18
HETATM   18  C3  UNL     1      19.557   9.160  25.239  1.00  0.00     0.294 C 
HETATM   19  O2  UNL     1      18.624   9.972  25.006  1.00  0.00    -0.259 OA
BRANCH  18  20
HETATM   20  O1  UNL     1      20.058   9.134  26.514  1.00  0.00    -0.318 OA
BRANCH  20  21
HETATM   21  C2  UNL     1      19.307   9.537  27.644  1.00  0.00     0.174 C 
HETATM   22  C1  UNL     1      18.506   8.419  28.234  1.00  0.00     0.034 C 
ENDBRANCH  20  21
ENDBRANCH  18  20
ENDBRANCH   1  18
TORSDOF 5
ENDMDL
MODEL 3
REMARK VINA RESULT: -7.286446292      3.606      7.829
REMARK  5 active torsions:
REMARK  status: ('A' for Active; 'I' for Inactive)
REMARK    1  A    between atoms: C2_2  and  O1_3 
REMARK    2  A    between atoms: O1_3  and  C3_4 
REMARK    3  A    between atoms: C3_4  and  C4_6 
REMARK    4  A    between atoms: C6_8  and  C7_9 
REMARK    5  A    between atoms: C9_12  and  C10_13 
ROOT
HETATM    1  C4  UNL     1      20.690   8.532  22.779  1.00  0.00     0.053 A 
HETATM    2  C5  UNL     1      20.801   9.136  21.576  1.00  0.00     0.039 A 
HETATM    3  C6  UNL     1      21.248   8.402  20.544  1.00  0.00     0.025 A 
HETATM    4  S2  UNL     1      21.517   6.865  21.236  1.00  0.00    -0.093 SA
HETATM    5  C13 UNL     1      21.046   7.207  22.841  1.00  0.00    -0.004 A 
HETATM    6  C14 UNL     1      21.023   6.290  24.042  1.00  0.00     0.057 C 
ENDROOT
BRANCH   3   7
HETATM    7  C7  UNL     1      21.493   8.711  19.124  1.00  0.00     0.047 A 
HETATM    8  S1  UNL     1      20.660   9.858  18.165  1.00  0.00    -0.098 SA
HETATM    9  C8  UNL     1      21.488   9.636  16.701  1.00  0.00     0.066 A 
HETATM   10  C9  UNL     1      22.417   8.659  16.981  1.00  0.00     0.018 A 
HETATM   11  C12 UNL     1      22.406   8.184  18.258  1.00  0.00     0.077 A 
HETATM   12  N2  UNL     1      23.329   7.142  18.720  1.00  0.00    -0.100 NA
BRANCH  10  13
HETATM   13  C10 UNL     1      23.333   8.213  15.896  1.00  0.00     0.011 C 
HETATM   14  C11 UNL     1      22.880   8.410  14.457  1.00  0.00     0.068 C 
HETATM   15  N1  UNL     1      24.440   7.687  16.087  1.00  0.00    -0.402 N 
ATOM     16  H12 UNL     1      24.744   7.555  17.052  1.00  0.00     0.156 HD
ATOM     17  H11 UNL     1      25.068   7.382  15.344  1.00  0.00     0.156 HD
ENDBRANCH  10  13
ENDBRANCH   3   7
BRANCH   1  18
HETATM   18  C3  UNL     1      20.209   9.232  23.997  1.00  0.00     0.294 C 
HETATM   19  O2  UNL     1      20.849  10.188  24.508  1.00  0.00    -0.259 OA
BRANCH  18  20
HETATM   20  O1  UNL     1      19.043   8.860  24.612  1.00  0.00    -0.318 OA
BRANCH  20  21
HETATM   21  C2  UNL     1      18.783   9.112  25.981  1.00  0.00     0.174 C 
HETATM   22  C1  UNL     1      19.441   8.119  26.887  1.00  0.00     0.034 C 
ENDBRANCH  20  21
ENDBRANCH  18  20
ENDBRANCH   1  18
TORSDOF 5
ENDMDL
MODEL 4
REMARK VINA RESULT: -7.278481649      1.852      2.431
REMARK  5 active torsions:
REMARK  status: ('A' for Active; 'I' for Inactive)
REMARK    1  A    between atoms: C2_2  and  O1_3 
REMARK    2  A    between atoms: O1_3  and  C3_4 
REMARK    3  A    between atoms: C3_4  and  C4_6 
REMARK    4  A    between atoms: C6_8  and  C7_9 
REMARK    5  A    between atoms: C9_12  and  C10_13 
ROOT
HETATM    1  C4  UNL     1      22.991   8.104  17.932  1.00  0.00     0.053 A 
HETATM    2  C5  UNL     1      22.882   7.614  19.186  1.00  0.00     0.039 A 
HETATM    3  C6  UNL     1      21.843   8.026  19.933  1.00  0.00     0.025 A 
HETATM    4  S2  UNL     1      21.010   9.098  18.898  1.00  0.00    -0.093 SA
HETATM    5  C13 UNL     1      22.022   8.988  17.528  1.00  0.00    -0.004 A 
HETATM    6  C14 UNL     1      21.895   9.687  16.193  1.00  0.00     0.057 C 
ENDROOT
BRANCH   3   7
HETATM    7  C7  UNL     1      21.410   7.716  21.307  1.00  0.00     0.047 A 
HETATM    8  S1  UNL     1      20.765   8.813  22.451  1.00  0.00    -0.098 SA
HETATM    9  C8  UNL     1      20.521   7.742  23.743  1.00  0.00     0.066 A 
HETATM   10  C9  UNL     1      20.949   6.525  23.260  1.00  0.00     0.018 A 
HETATM   11  C12 UNL     1      21.412   6.529  21.980  1.00  0.00     0.077 A 
HETATM   12  N2  UNL     1      21.906   5.318  21.314  1.00  0.00    -0.100 NA
BRANCH  10  13
HETATM   13  C10 UNL     1      20.872   5.336  24.152  1.00  0.00     0.011 C 
HETATM   14  C11 UNL     1      19.984   5.427  25.385  1.00  0.00     0.068 C 
HETATM   15  N1  UNL     1      21.486   4.275  23.959  1.00  0.00    -0.402 N 
ATOM     16  H12 UNL     1      22.081   4.214  23.133  1.00  0.00     0.156 HD
ATOM     17  H11 UNL     1      21.433   3.461  24.570  1.00  0.00     0.156 HD
ENDBRANCH  10  13
ENDBRANCH   3   7
BRANCH   1  18
HETATM   18  C3  UNL     1      24.090   7.728  17.008  1.00  0.00     0.294 C 
HETATM   19  O2  UNL     1      25.131   8.428  16.896  1.00  0.00    -0.259 OA
BRANCH  18  20
HETATM   20  O1  UNL     1      24.011   6.598  16.238  1.00  0.00    -0.318 OA
BRANCH  20  21
HETATM   21  C2  UNL     1      24.920   5.520  16.360  1.00  0.00     0.174 C 
HETATM   22  C1  UNL     1      24.528   4.552  17.431  1.00  0.00     0.034 C 
ENDBRANCH  20  21
ENDBRANCH  18  20
ENDBRANCH   1  18
TORSDOF 5
ENDMDL
MODEL 5
REMARK VINA RESULT: -7.230390758      1.674      1.795
REMARK  5 active torsions:
REMARK  status: ('A' for Active; 'I' for Inactive)
REMARK    1  A    between atoms: C2_2  and  O1_3 
REMARK    2  A    between atoms: O1_3  and  C3_4 
REMARK    3  A    between atoms: C3_4  and  C4_6 
REMARK    4  A    between atoms: C6_8  and  C7_9 
REMARK    5  A    between atoms: C9_12  and  C10_13 
ROOT
HETATM    1  C4  UNL     1      22.254   7.985  19.192  1.00  0.00     0.053 A 
HETATM    2  C5  UNL     1      22.128   7.504  20.448  1.00  0.00     0.039 A 
HETATM    3  C6  UNL     1      21.137   7.995  21.211  1.00  0.00     0.025 A 
HETATM    4  S2  UNL     1      20.373   9.130  20.190  1.00  0.00    -0.093 SA
HETATM    5  C13 UNL     1      21.350   8.943  18.803  1.00  0.00    -0.004 A 
HETATM    6  C14 UNL     1      21.256   9.650  17.471  1.00  0.00     0.057 C 
ENDROOT
BRANCH   3   7
HETATM    7  C7  UNL     1      20.703   7.718  22.592  1.00  0.00     0.047 A 
HETATM    8  S1  UNL     1      20.466   6.180  23.304  1.00  0.00    -0.098 SA
HETATM    9  C8  UNL     1      19.987   6.673  24.855  1.00  0.00     0.066 A 
HETATM   10  C9  UNL     1      20.019   8.049  24.799  1.00  0.00     0.018 A 
HETATM   11  C12 UNL     1      20.397   8.581  23.604  1.00  0.00     0.077 A 
HETATM   12  N2  UNL     1      20.483  10.028  23.375  1.00  0.00    -0.100 NA
BRANCH  10  13
HETATM   13  C10 UNL     1      19.649   8.822  26.015  1.00  0.00     0.011 C 
HETATM   14  C11 UNL     1      20.070   8.265  27.368  1.00  0.00     0.068 C 
HETATM   15  N1  UNL     1      19.016   9.889  26.001  1.00  0.00    -0.402 N 
ATOM     16  H12 UNL     1      18.733  10.261  25.095  1.00  0.00     0.156 HD
ATOM     17  H11 UNL     1      18.762  10.418  26.835  1.00  0.00     0.156 HD
ENDBRANCH  10  13
ENDBRANCH   3   7
BRANCH   1  18
HETATM   18  C3  UNL     1      23.305   7.526  18.250  1.00  0.00     0.294 C 
HETATM   19  O2  UNL     1      23.697   6.330  18.225  1.00  0.00    -0.259 OA
BRANCH  18  20
HETATM   20  O1  UNL     1      23.891   8.393  17.367  1.00  0.00    -0.318 OA
BRANCH  20  21
HETATM   21  C2  UNL     1      24.485   7.970  16.153  1.00  0.00     0.174 C 
HETATM   22  C1  UNL     1      23.510   7.920  15.019  1.00  0.00     0.034 C 
ENDBRANCH  20  21
ENDBRANCH  18  20
ENDBRANCH   1  18
TORSDOF 5
ENDMDL
