MODEL 1
REMARK VINA RESULT: -7.685774325      0.000      0.000
REMARK  5 active torsions:
REMARK  status: ('A' for Active; 'I' for Inactive)
REMARK    1  A    between atoms: C4_4  and  C5_5 
REMARK    2  A    between atoms: C8_8  and  S1_9 
REMARK    3  A    between atoms: S1_9  and  S2_10 
REMARK    4  A    between atoms: S2_10  and  C9_11 
REMARK    5  A    between atoms: C11_17  and  O2_18 
ROOT
HETATM    1  S1  UNL     1      23.030   6.606  19.285  1.00  0.00    -0.025 SA
ENDROOT
BRANCH   1   2
HETATM    2  C8  UNL     1      22.222   7.959  18.431  1.00  0.00     0.133 A 
HETATM    3  C4  UNL     1      22.500   8.440  17.136  1.00  0.00     0.009 A 
HETATM    4  C3  UNL     1      21.591   9.466  16.933  1.00  0.00     0.047 A 
HETATM    5  C2  UNL     1      20.818   9.563  18.093  1.00  0.00     0.051 A 
HETATM    6  C1  UNL     1      19.712  10.551  18.302  1.00  0.00     0.077 C 
HETATM    7  O3  UNL     1      21.249   8.654  18.909  1.00  0.00    -0.307 OA
BRANCH   3   8
HETATM    8  C5  UNL     1      23.645   8.087  16.313  1.00  0.00    -0.074 C 
HETATM    9  C6  UNL     1      25.036   8.450  16.800  1.00  0.00     0.044 C 
HETATM   10  C7  UNL     1      23.429   7.978  14.855  1.00  0.00     0.044 C 
ENDBRANCH   3   8
ENDBRANCH   1   2
BRANCH   1  11
HETATM   11  S2  UNL     1      22.329   6.548  21.270  1.00  0.00    -0.038 SA
BRANCH  11  12
HETATM   12  C9  UNL     1      21.758   4.885  21.621  1.00  0.00     0.108 A 
HETATM   13  S3  UNL     1      22.160   3.388  20.896  1.00  0.00    -0.017 SA
HETATM   14  C10 UNL     1      21.064   2.388  21.735  1.00  0.00     0.291 A 
HETATM   15  O1  UNL     1      20.820   1.130  21.694  1.00  0.00    -0.260 OA
HETATM   16  N1  UNL     1      20.418   3.239  22.550  1.00  0.00    -0.296 N 
HETATM   17  C11 UNL     1      20.762   4.508  22.500  1.00  0.00     0.168 A 
ATOM     18  H1  UNL     1      19.689   2.913  23.185  1.00  0.00     0.171 HD
BRANCH  17  19
HETATM   19  O2  UNL     1      20.137   5.487  23.337  1.00  0.00    -0.345 OA
ATOM     20  H2  UNL     1      20.587   5.805  24.112  1.00  0.00     0.219 HD
ENDBRANCH  17  19
ENDBRANCH  11  12
ENDBRANCH   1  11
TORSDOF 5
ENDMDL
MODEL 2
REMARK VINA RESULT: -7.652105798      3.135      3.541
REMARK  5 active torsions:
REMARK  status: ('A' for Active; 'I' for Inactive)
REMARK    1  A    between atoms: C4_4  and  C5_5 
REMARK    2  A    between atoms: C8_8  and  S1_9 
REMARK    3  A    between atoms: S1_9  and  S2_10 
REMARK    4  A    between atoms: S2_10  and  C9_11 
REMARK    5  A    between atoms: C11_17  and  O2_18 
ROOT
HETATM    1  S1  UNL     1      21.881   7.975  20.968  1.00  0.00    -0.025 SA
ENDROOT
BRANCH   1   2
HETATM    2  C8  UNL     1      21.538   8.653  19.345  1.00  0.00     0.133 A 
HETATM    3  C4  UNL     1      22.224   8.385  18.144  1.00  0.00     0.009 A 
HETATM    4  C3  UNL     1      21.561   9.126  17.179  1.00  0.00     0.047 A 
HETATM    5  C2  UNL     1      20.523   9.803  17.826  1.00  0.00     0.051 A 
HETATM    6  C1  UNL     1      19.555  10.725  17.153  1.00  0.00     0.077 C 
HETATM    7  O3  UNL     1      20.581   9.473  19.077  1.00  0.00    -0.307 OA
BRANCH   3   8
HETATM    8  C5  UNL     1      23.488   7.678  18.013  1.00  0.00    -0.074 C 
HETATM    9  C6  UNL     1      24.466   8.122  16.941  1.00  0.00     0.044 C 
HETATM   10  C7  UNL     1      23.526   6.265  18.442  1.00  0.00     0.044 C 
ENDBRANCH   3   8
ENDBRANCH   1   2
BRANCH   1  11
HETATM   11  S2  UNL     1      20.973   9.204  22.417  1.00  0.00    -0.038 SA
BRANCH  11  12
HETATM   12  C9  UNL     1      20.271   8.155  23.691  1.00  0.00     0.108 A 
HETATM   13  S3  UNL     1      20.417   6.471  23.958  1.00  0.00    -0.017 SA
HETATM   14  C10 UNL     1      19.328   6.318  25.261  1.00  0.00     0.291 A 
HETATM   15  O1  UNL     1      18.946   5.319  25.968  1.00  0.00    -0.260 OA
HETATM   16  N1  UNL     1      18.884   7.571  25.452  1.00  0.00    -0.296 N 
HETATM   17  C11 UNL     1      19.355   8.511  24.661  1.00  0.00     0.168 A 
ATOM     18  H1  UNL     1      18.206   7.786  26.184  1.00  0.00     0.171 HD
BRANCH  17  19
HETATM   19  O2  UNL     1      18.948   9.876  24.794  1.00  0.00    -0.345 OA
ATOM     20  H2  UNL     1      19.600  10.567  24.815  1.00  0.00     0.219 HD
ENDBRANCH  17  19
ENDBRANCH  11  12
ENDBRANCH   1  11
TORSDOF 5
ENDMDL
MODEL 3
REMARK VINA RESULT: -7.572495089      1.310      1.349
REMARK  5 active torsions:
REMARK  status: ('A' for Active; 'I' for Inactive)
REMARK    1  A    between atoms: C4_4  and  C5_5 
REMARK    2  A    between atoms: C8_8  and  S1_9 
REMARK    3  A    between atoms: S1_9  and  S2_10 
REMARK    4  A    between atoms: S2_10  and  C9_11 
REMARK    5  A    between atoms: C11_17  and  O2_18 
ROOT
HETATM    1  S1  UNL     1      22.601   7.165  19.412  1.00  0.00    -0.025 SA
ENDROOT
BRANCH   1   2
HETATM    2  C8  UNL     1      22.018   8.398  18.249  1.00  0.00     0.133 A 
HETATM    3  C4  UNL     1      22.481   8.623  16.938  1.00  0.00     0.009 A 
HETATM    4  C3  UNL     1      21.695   9.656  16.453  1.00  0.00     0.047 A 
HETATM    5  C2  UNL     1      20.808  10.008  17.473  1.00  0.00     0.051 A 
HETATM    6  C1  UNL     1      19.777  11.089  17.373  1.00  0.00     0.077 C 
HETATM    7  O3  UNL     1      21.062   9.231  18.477  1.00  0.00    -0.307 OA
BRANCH   3   8
HETATM    8  C5  UNL     1      23.677   8.054  16.337  1.00  0.00    -0.074 C 
HETATM    9  C6  UNL     1      25.030   8.399  16.933  1.00  0.00     0.044 C 
HETATM   10  C7  UNL     1      23.620   7.710  14.901  1.00  0.00     0.044 C 
ENDBRANCH   3   8
ENDBRANCH   1   2
BRANCH   1  11
HETATM   11  S2  UNL     1      21.908   7.673  21.335  1.00  0.00    -0.038 SA
BRANCH  11  12
HETATM   12  C9  UNL     1      21.725   6.164  22.287  1.00  0.00     0.108 A 
HETATM   13  S3  UNL     1      22.064   4.537  21.880  1.00  0.00    -0.017 SA
HETATM   14  C10 UNL     1      21.464   3.785  23.288  1.00  0.00     0.291 A 
HETATM   15  O1  UNL     1      21.398   2.562  23.666  1.00  0.00    -0.260 OA
HETATM   16  N1  UNL     1      21.020   4.812  24.032  1.00  0.00    -0.296 N 
HETATM   17  C11 UNL     1      21.147   6.023  23.533  1.00  0.00     0.168 A 
ATOM     18  H1  UNL     1      20.600   4.659  24.949  1.00  0.00     0.171 HD
BRANCH  17  19
HETATM   19  O2  UNL     1      20.712   7.180  24.256  1.00  0.00    -0.345 OA
ATOM     20  H2  UNL     1      20.224   7.079  25.065  1.00  0.00     0.219 HD
ENDBRANCH  17  19
ENDBRANCH  11  12
ENDBRANCH   1  11
TORSDOF 5
ENDMDL
MODEL 4
REMARK VINA RESULT: -7.531971489      1.437      1.736
REMARK  5 active torsions:
REMARK  status: ('A' for Active; 'I' for Inactive)
REMARK    1  A    between atoms: C4_4  and  C5_5 
REMARK    2  A    between atoms: C8_8  and  S1_9 
REMARK    3  A    between atoms: S1_9  and  S2_10 
REMARK    4  A    between atoms: S2_10  and  C9_11 
REMARK    5  A    between atoms: C11_17  and  O2_18 
ROOT
HETATM    1  S1  UNL     1      23.341   6.064  19.071  1.00  0.00    -0.025 SA
ENDROOT
BRANCH   1   2
HETATM    2  C8  UNL     1      22.365   7.520  18.699  1.00  0.00     0.133 A 
HETATM    3  C4  UNL     1      22.400   8.295  17.523  1.00  0.00     0.009 A 
HETATM    4  C3  UNL     1      21.446   9.281  17.715  1.00  0.00     0.047 A 
HETATM    5  C2  UNL     1      20.886   9.068  18.978  1.00  0.00     0.051 A 
HETATM    6  C1  UNL     1      19.812   9.912  19.589  1.00  0.00     0.077 C 
HETATM    7  O3  UNL     1      21.475   8.028  19.479  1.00  0.00    -0.307 OA
BRANCH   3   8
HETATM    8  C5  UNL     1      23.391   8.208  16.462  1.00  0.00    -0.074 C 
HETATM    9  C6  UNL     1      24.846   8.481  16.797  1.00  0.00     0.044 C 
HETATM   10  C7  UNL     1      22.936   8.471  15.081  1.00  0.00     0.044 C 
ENDBRANCH   3   8
ENDBRANCH   1   2
BRANCH   1  11
HETATM   11  S2  UNL     1      23.256   5.708  21.145  1.00  0.00    -0.038 SA
BRANCH  11  12
HETATM   12  C9  UNL     1      22.002   4.464  21.456  1.00  0.00     0.108 A 
HETATM   13  S3  UNL     1      20.825   4.347  22.692  1.00  0.00    -0.017 SA
HETATM   14  C10 UNL     1      20.188   2.815  22.303  1.00  0.00     0.291 A 
HETATM   15  O1  UNL     1      19.261   2.096  22.820  1.00  0.00    -0.260 OA
HETATM   16  N1  UNL     1      20.903   2.438  21.229  1.00  0.00    -0.296 N 
HETATM   17  C11 UNL     1      21.826   3.266  20.792  1.00  0.00     0.168 A 
ATOM     18  H1  UNL     1      20.735   1.542  20.770  1.00  0.00     0.171 HD
BRANCH  17  19
HETATM   19  O2  UNL     1      22.630   2.956  19.649  1.00  0.00    -0.345 OA
ATOM     20  H2  UNL     1      23.423   2.443  19.752  1.00  0.00     0.219 HD
ENDBRANCH  17  19
ENDBRANCH  11  12
ENDBRANCH   1  11
TORSDOF 5
ENDMDL
MODEL 5
REMARK VINA RESULT: -7.483654688      1.595      3.287
REMARK  5 active torsions:
REMARK  status: ('A' for Active; 'I' for Inactive)
REMARK    1  A    between atoms: C4_4  and  C5_5 
REMARK    2  A    between atoms: C8_8  and  S1_9 
REMARK    3  A    between atoms: S1_9  and  S2_10 
REMARK    4  A    between atoms: S2_10  and  C9_11 
REMARK    5  A    between atoms: C11_17  and  O2_18 
ROOT
HETATM    1  S1  UNL     1      22.146   7.529  20.200  1.00  0.00    -0.025 SA
ENDROOT
BRANCH   1   2
HETATM    2  C8  UNL     1      22.370   8.028  18.493  1.00  0.00     0.133 A 
HETATM    3  C4  UNL     1      21.628   8.989  17.779  1.00  0.00     0.009 A 
HETATM    4  C3  UNL     1      22.207   9.026  16.520  1.00  0.00     0.047 A 
HETATM    5  C2  UNL     1      23.253   8.099  16.525  1.00  0.00     0.051 A 
HETATM    6  C1  UNL     1      24.145   7.814  15.357  1.00  0.00     0.077 C 
HETATM    7  O3  UNL     1      23.278   7.566  17.705  1.00  0.00    -0.307 OA
BRANCH   3   8
HETATM    8  C5  UNL     1      20.387   9.613  18.208  1.00  0.00    -0.074 C 
HETATM    9  C6  UNL     1      19.813  10.747  17.378  1.00  0.00     0.044 C 
HETATM   10  C7  UNL     1      20.073   9.585  19.652  1.00  0.00     0.044 C 
ENDBRANCH   3   8
ENDBRANCH   1   2
BRANCH   1  11
HETATM   11  S2  UNL     1      23.172   5.717  20.512  1.00  0.00    -0.038 SA
BRANCH  11  12
HETATM   12  C9  UNL     1      22.003   4.503  21.125  1.00  0.00     0.108 A 
HETATM   13  S3  UNL     1      20.968   4.535  22.487  1.00  0.00    -0.017 SA
HETATM   14  C10 UNL     1      20.349   2.951  22.383  1.00  0.00     0.291 A 
HETATM   15  O1  UNL     1      19.508   2.292  23.092  1.00  0.00    -0.260 OA
HETATM   16  N1  UNL     1      20.959   2.442  21.299  1.00  0.00    -0.296 N 
HETATM   17  C11 UNL     1      21.800   3.220  20.654  1.00  0.00     0.168 A 
ATOM     18  H1  UNL     1      20.776   1.488  20.988  1.00  0.00     0.171 HD
BRANCH  17  19
HETATM   19  O2  UNL     1      22.490   2.770  19.483  1.00  0.00    -0.345 OA
ATOM     20  H2  UNL     1      22.058   2.185  18.873  1.00  0.00     0.219 HD
ENDBRANCH  17  19
ENDBRANCH  11  12
ENDBRANCH   1  11
TORSDOF 5
ENDMDL
