MODEL 1
REMARK VINA RESULT: -8.031353161      0.000      0.000
REMARK  8 active torsions:
REMARK  status: ('A' for Active; 'I' for Inactive)
REMARK    1  A    between atoms: C2_2  and  C3_3 
REMARK    2  A    between atoms: C7_7  and  N1_8 
REMARK    3  A    between atoms: C8_10  and  C9_11 
REMARK    4  A    between atoms: C10_12  and  O1_13 
REMARK    5  A    between atoms: C11_15  and  O2_16 
REMARK    6  A    between atoms: C13_20  and  C14_21 
REMARK    7  A    between atoms: C14_21  and  O4_23 
REMARK    8  A    between atoms: O4_23  and  C15_24 
ROOT
HETATM    1  C9  UNL     1      20.105   7.385  24.516  1.00  0.00     0.050 A 
HETATM    2  C10 UNL     1      19.591   8.190  25.516  1.00  0.00     0.131 A 
HETATM    3  C11 UNL     1      19.693   7.511  26.711  1.00  0.00     0.177 A 
HETATM    4  N2  UNL     1      20.247   6.335  26.452  1.00  0.00    -0.324 N 
HETATM    5  C12 UNL     1      20.519   5.334  27.465  1.00  0.00     0.159 C 
HETATM    6  C13 UNL     1      20.517   6.214  25.121  1.00  0.00     0.126 A 
ENDROOT
BRANCH   1   7
HETATM    7  C8  UNL     1      20.206   7.683  23.098  1.00  0.00     0.105 C 
HETATM    8  N1  UNL     1      21.320   7.654  22.474  1.00  0.00    -0.359 N 
ATOM      9  H1  UNL     1      22.171   7.413  22.982  1.00  0.00     0.166 HD
BRANCH   8  10
HETATM   10  C7  UNL     1      21.397   7.956  21.059  1.00  0.00     0.080 A 
HETATM   11  C5  UNL     1      22.244   7.394  20.140  1.00  0.00    -0.027 A 
HETATM   12  C4  UNL     1      22.140   7.829  18.869  1.00  0.00     0.024 A 
HETATM   13  C6  UNL     1      23.249   6.327  20.556  1.00  0.00     0.051 C 
HETATM   14  C3  UNL     1      21.202   8.789  18.610  1.00  0.00    -0.015 A 
HETATM   15  S1  UNL     1      20.492   9.061  20.134  1.00  0.00    -0.076 SA
BRANCH  14  16
HETATM   16  C2  UNL     1      20.887   9.440  17.283  1.00  0.00     0.041 C 
HETATM   17  C1  UNL     1      22.071   9.133  16.390  1.00  0.00     0.010 C 
ENDBRANCH  14  16
ENDBRANCH   8  10
ENDBRANCH   1   7
BRANCH   2  18
HETATM   18  O1  UNL     1      19.058   9.456  25.396  1.00  0.00    -0.356 OA
ATOM     19  H1  UNL     1      18.602   9.964  26.056  1.00  0.00     0.218 HD
ENDBRANCH   2  18
BRANCH   6  20
HETATM   20  C14 UNL     1      21.134   5.019  24.534  1.00  0.00     0.311 C 
HETATM   21  O3  UNL     1      22.341   5.077  24.177  1.00  0.00    -0.258 OA
BRANCH  20  22
HETATM   22  O4  UNL     1      20.472   3.847  24.353  1.00  0.00    -0.312 OA
BRANCH  22  23
HETATM   23  C15 UNL     1      21.003   2.651  23.869  1.00  0.00     0.124 C 
HETATM   24  C16 UNL     1      20.842   2.496  22.369  1.00  0.00     0.040 C 
HETATM   25  C17 UNL     1      20.441   1.425  24.556  1.00  0.00     0.040 C 
ENDBRANCH  22  23
ENDBRANCH  20  22
ENDBRANCH   6  20
BRANCH   3  26
HETATM   26  O2  UNL     1      19.281   7.984  27.973  1.00  0.00    -0.344 OA
ATOM     27  H2  UNL     1      19.768   7.910  28.785  1.00  0.00     0.219 HD
ENDBRANCH   3  26
TORSDOF 8
ENDMDL
MODEL 2
REMARK VINA RESULT: -7.833811008      0.975      1.338
REMARK  8 active torsions:
REMARK  status: ('A' for Active; 'I' for Inactive)
REMARK    1  A    between atoms: C2_2  and  C3_3 
REMARK    2  A    between atoms: C7_7  and  N1_8 
REMARK    3  A    between atoms: C8_10  and  C9_11 
REMARK    4  A    between atoms: C10_12  and  O1_13 
REMARK    5  A    between atoms: C11_15  and  O2_16 
REMARK    6  A    between atoms: C13_20  and  C14_21 
REMARK    7  A    between atoms: C14_21  and  O4_23 
REMARK    8  A    between atoms: O4_23  and  C15_24 
ROOT
HETATM    1  C9  UNL     1      20.418   7.104  25.137  1.00  0.00     0.050 A 
HETATM    2  C10 UNL     1      20.241   7.932  26.229  1.00  0.00     0.131 A 
HETATM    3  C11 UNL     1      20.264   7.155  27.368  1.00  0.00     0.177 A 
HETATM    4  N2  UNL     1      20.447   5.899  26.985  1.00  0.00    -0.324 N 
HETATM    5  C12 UNL     1      20.527   4.782  27.907  1.00  0.00     0.159 C 
HETATM    6  C13 UNL     1      20.548   5.819  25.628  1.00  0.00     0.126 A 
ENDROOT
BRANCH   1   7
HETATM    7  C8  UNL     1      20.465   7.479  23.734  1.00  0.00     0.105 C 
HETATM    8  N1  UNL     1      21.484   7.247  23.000  1.00  0.00    -0.359 N 
ATOM      9  H1  UNL     1      22.296   6.782  23.405  1.00  0.00     0.166 HD
BRANCH   8  10
HETATM   10  C7  UNL     1      21.508   7.631  21.604  1.00  0.00     0.080 A 
HETATM   11  C5  UNL     1      22.353   7.161  20.632  1.00  0.00    -0.027 A 
HETATM   12  C4  UNL     1      22.194   7.661  19.391  1.00  0.00     0.024 A 
HETATM   13  C6  UNL     1      23.415   6.119  20.960  1.00  0.00     0.051 C 
HETATM   14  C3  UNL     1      21.208   8.591  19.212  1.00  0.00    -0.015 A 
HETATM   15  S1  UNL     1      20.530   8.744  20.767  1.00  0.00    -0.076 SA
BRANCH  14  16
HETATM   16  C2  UNL     1      20.828   9.300  17.933  1.00  0.00     0.041 C 
HETATM   17  C1  UNL     1      22.017   9.139  17.011  1.00  0.00     0.010 C 
ENDBRANCH  14  16
ENDBRANCH   8  10
ENDBRANCH   1   7
BRANCH   2  18
HETATM   18  O1  UNL     1      20.067   9.300  26.237  1.00  0.00    -0.356 OA
ATOM     19  H1  UNL     1      19.252   9.786  26.218  1.00  0.00     0.218 HD
ENDBRANCH   2  18
BRANCH   6  20
HETATM   20  C14 UNL     1      20.756   4.555  24.912  1.00  0.00     0.311 C 
HETATM   21  O3  UNL     1      19.873   3.661  25.000  1.00  0.00    -0.258 OA
BRANCH  20  22
HETATM   22  O4  UNL     1      21.853   4.295  24.154  1.00  0.00    -0.312 OA
BRANCH  22  23
HETATM   23  C15 UNL     1      22.075   3.171  23.360  1.00  0.00     0.124 C 
HETATM   24  C16 UNL     1      23.547   2.858  23.174  1.00  0.00     0.040 C 
HETATM   25  C17 UNL     1      21.411   3.256  22.002  1.00  0.00     0.040 C 
ENDBRANCH  22  23
ENDBRANCH  20  22
ENDBRANCH   6  20
BRANCH   3  26
HETATM   26  O2  UNL     1      20.117   7.616  28.691  1.00  0.00    -0.344 OA
ATOM     27  H2  UNL     1      20.746   7.508  29.395  1.00  0.00     0.219 HD
ENDBRANCH   3  26
TORSDOF 8
ENDMDL
MODEL 3
REMARK VINA RESULT: -7.443149800      1.399      1.790
REMARK  8 active torsions:
REMARK  status: ('A' for Active; 'I' for Inactive)
REMARK    1  A    between atoms: C2_2  and  C3_3 
REMARK    2  A    between atoms: C7_7  and  N1_8 
REMARK    3  A    between atoms: C8_10  and  C9_11 
REMARK    4  A    between atoms: C10_12  and  O1_13 
REMARK    5  A    between atoms: C11_15  and  O2_16 
REMARK    6  A    between atoms: C13_20  and  C14_21 
REMARK    7  A    between atoms: C14_21  and  O4_23 
REMARK    8  A    between atoms: O4_23  and  C15_24 
ROOT
HETATM    1  C9  UNL     1      20.972   6.044  24.534  1.00  0.00     0.050 A 
HETATM    2  C10 UNL     1      20.924   6.882  25.632  1.00  0.00     0.131 A 
HETATM    3  C11 UNL     1      20.970   6.105  26.770  1.00  0.00     0.177 A 
HETATM    4  N2  UNL     1      21.042   4.839  26.381  1.00  0.00    -0.324 N 
HETATM    5  C12 UNL     1      21.108   3.718  27.299  1.00  0.00     0.159 C 
HETATM    6  C13 UNL     1      21.047   4.754  25.020  1.00  0.00     0.126 A 
ENDROOT
BRANCH   1   7
HETATM    7  C8  UNL     1      20.950   6.417  23.130  1.00  0.00     0.105 C 
HETATM    8  N1  UNL     1      21.527   7.470  22.695  1.00  0.00    -0.359 N 
ATOM      9  H1  UNL     1      22.024   8.074  23.350  1.00  0.00     0.166 HD
BRANCH   8  10
HETATM   10  C7  UNL     1      21.491   7.822  21.291  1.00  0.00     0.080 A 
HETATM   11  C5  UNL     1      22.323   7.364  20.302  1.00  0.00    -0.027 A 
HETATM   12  C4  UNL     1      22.105   7.829  19.057  1.00  0.00     0.024 A 
HETATM   13  C6  UNL     1      23.437   6.374  20.618  1.00  0.00     0.051 C 
HETATM   14  C3  UNL     1      21.076   8.714  18.890  1.00  0.00    -0.015 A 
HETATM   15  S1  UNL     1      20.442   8.876  20.462  1.00  0.00    -0.076 SA
BRANCH  14  16
HETATM   16  C2  UNL     1      20.626   9.378  17.609  1.00  0.00     0.041 C 
HETATM   17  C1  UNL     1      21.824   9.329  16.685  1.00  0.00     0.010 C 
ENDBRANCH  14  16
ENDBRANCH   8  10
ENDBRANCH   1   7
BRANCH   2  18
HETATM   18  O1  UNL     1      20.845   8.259  25.647  1.00  0.00    -0.356 OA
ATOM     19  H1  UNL     1      21.534   8.882  25.846  1.00  0.00     0.218 HD
ENDBRANCH   2  18
BRANCH   6  20
HETATM   20  C14 UNL     1      21.120   3.479  24.297  1.00  0.00     0.311 C 
HETATM   21  O3  UNL     1      20.066   2.802  24.161  1.00  0.00    -0.258 OA
BRANCH  20  22
HETATM   22  O4  UNL     1      22.267   2.987  23.762  1.00  0.00    -0.312 OA
BRANCH  22  23
HETATM   23  C15 UNL     1      22.855   3.359  22.553  1.00  0.00     0.124 C 
HETATM   24  C16 UNL     1      21.988   3.042  21.351  1.00  0.00     0.040 C 
HETATM   25  C17 UNL     1      24.229   2.758  22.346  1.00  0.00     0.040 C 
ENDBRANCH  22  23
ENDBRANCH  20  22
ENDBRANCH   6  20
BRANCH   3  26
HETATM   26  O2  UNL     1      20.944   6.574  28.098  1.00  0.00    -0.344 OA
ATOM     27  H2  UNL     1      20.205   6.528  28.694  1.00  0.00     0.219 HD
ENDBRANCH   3  26
TORSDOF 8
ENDMDL
MODEL 4
REMARK VINA RESULT: -7.373634605      2.886      4.828
REMARK  8 active torsions:
REMARK  status: ('A' for Active; 'I' for Inactive)
REMARK    1  A    between atoms: C2_2  and  C3_3 
REMARK    2  A    between atoms: C7_7  and  N1_8 
REMARK    3  A    between atoms: C8_10  and  C9_11 
REMARK    4  A    between atoms: C10_12  and  O1_13 
REMARK    5  A    between atoms: C11_15  and  O2_16 
REMARK    6  A    between atoms: C13_20  and  C14_21 
REMARK    7  A    between atoms: C14_21  and  O4_23 
REMARK    8  A    between atoms: O4_23  and  C15_24 
ROOT
HETATM    1  C9  UNL     1      23.035   3.451  22.187  1.00  0.00     0.050 A 
HETATM    2  C10 UNL     1      24.320   2.998  21.951  1.00  0.00     0.131 A 
HETATM    3  C11 UNL     1      24.553   1.915  22.772  1.00  0.00     0.177 A 
HETATM    4  N2  UNL     1      23.453   1.716  23.485  1.00  0.00    -0.324 N 
HETATM    5  C12 UNL     1      23.313   0.658  24.468  1.00  0.00     0.159 C 
HETATM    6  C13 UNL     1      22.496   2.632  23.160  1.00  0.00     0.126 A 
ENDROOT
BRANCH   1   7
HETATM    7  C8  UNL     1      22.356   4.568  21.554  1.00  0.00     0.105 C 
HETATM    8  N1  UNL     1      22.809   5.761  21.609  1.00  0.00    -0.359 N 
ATOM      9  H1  UNL     1      23.677   5.943  22.112  1.00  0.00     0.166 HD
BRANCH   8  10
HETATM   10  C7  UNL     1      22.114   6.859  20.970  1.00  0.00     0.080 A 
HETATM   11  C5  UNL     1      21.235   7.733  21.555  1.00  0.00    -0.027 A 
HETATM   12  C4  UNL     1      20.704   8.686  20.765  1.00  0.00     0.024 A 
HETATM   13  C6  UNL     1      20.889   7.616  23.034  1.00  0.00     0.051 C 
HETATM   14  C3  UNL     1      21.088   8.696  19.452  1.00  0.00    -0.015 A 
HETATM   15  S1  UNL     1      22.172   7.387  19.352  1.00  0.00    -0.076 SA
BRANCH  14  16
HETATM   16  C2  UNL     1      20.643   9.650  18.367  1.00  0.00     0.041 C 
HETATM   17  C1  UNL     1      21.625   9.457  17.231  1.00  0.00     0.010 C 
ENDBRANCH  14  16
ENDBRANCH   8  10
ENDBRANCH   1   7
BRANCH   2  18
HETATM   18  O1  UNL     1      25.247   3.500  21.062  1.00  0.00    -0.356 OA
ATOM     19  H1  UNL     1      25.835   3.016  20.495  1.00  0.00     0.218 HD
ENDBRANCH   2  18
BRANCH   6  20
HETATM   20  C14 UNL     1      21.169   2.661  23.784  1.00  0.00     0.311 C 
HETATM   21  O3  UNL     1      21.036   3.249  24.890  1.00  0.00    -0.258 OA
BRANCH  20  22
HETATM   22  O4  UNL     1      20.069   2.086  23.232  1.00  0.00    -0.312 OA
BRANCH  22  23
HETATM   23  C15 UNL     1      19.914   0.747  22.875  1.00  0.00     0.124 C 
HETATM   24  C16 UNL     1      18.839   0.534  21.828  1.00  0.00     0.040 C 
HETATM   25  C17 UNL     1      19.641  -0.159  24.056  1.00  0.00     0.040 C 
ENDBRANCH  22  23
ENDBRANCH  20  22
ENDBRANCH   6  20
BRANCH   3  26
HETATM   26  O2  UNL     1      25.743   1.165  22.840  1.00  0.00    -0.344 OA
ATOM     27  H2  UNL     1      26.261   1.004  23.620  1.00  0.00     0.219 HD
ENDBRANCH   3  26
TORSDOF 8
ENDMDL
MODEL 5
REMARK VINA RESULT: -7.227059782      6.958     10.094
REMARK  8 active torsions:
REMARK  status: ('A' for Active; 'I' for Inactive)
REMARK    1  A    between atoms: C2_2  and  C3_3 
REMARK    2  A    between atoms: C7_7  and  N1_8 
REMARK    3  A    between atoms: C8_10  and  C9_11 
REMARK    4  A    between atoms: C10_12  and  O1_13 
REMARK    5  A    between atoms: C11_15  and  O2_16 
REMARK    6  A    between atoms: C13_20  and  C14_21 
REMARK    7  A    between atoms: C14_21  and  O4_23 
REMARK    8  A    between atoms: O4_23  and  C15_24 
ROOT
HETATM    1  C9  UNL     1      26.008   1.123  18.510  1.00  0.00     0.050 A 
HETATM    2  C10 UNL     1      25.548  -0.178  18.586  1.00  0.00     0.131 A 
HETATM    3  C11 UNL     1      26.378  -0.975  17.827  1.00  0.00     0.177 A 
HETATM    4  N2  UNL     1      27.310  -0.190  17.305  1.00  0.00    -0.324 N 
HETATM    5  C12 UNL     1      28.372  -0.668  16.441  1.00  0.00     0.159 C 
HETATM    6  C13 UNL     1      27.124   1.103  17.697  1.00  0.00     0.126 A 
ENDROOT
BRANCH   1   7
HETATM    7  C8  UNL     1      25.450   2.302  19.149  1.00  0.00     0.105 C 
HETATM    8  N1  UNL     1      24.705   2.229  20.183  1.00  0.00    -0.359 N 
ATOM      9  H1  UNL     1      24.490   1.314  20.581  1.00  0.00     0.166 HD
BRANCH   8  10
HETATM   10  C7  UNL     1      24.159   3.418  20.803  1.00  0.00     0.080 A 
HETATM   11  C5  UNL     1      23.814   3.580  22.120  1.00  0.00    -0.027 A 
HETATM   12  C4  UNL     1      23.322   4.782  22.478  1.00  0.00     0.024 A 
HETATM   13  C6  UNL     1      23.988   2.441  23.116  1.00  0.00     0.051 C 
HETATM   14  C3  UNL     1      23.211   5.731  21.500  1.00  0.00    -0.015 A 
HETATM   15  S1  UNL     1      23.790   4.930  20.113  1.00  0.00    -0.076 SA
BRANCH  14  16
HETATM   16  C2  UNL     1      22.694   7.145  21.638  1.00  0.00     0.041 C 
HETATM   17  C1  UNL     1      22.487   7.641  20.222  1.00  0.00     0.010 C 
ENDBRANCH  14  16
ENDBRANCH   8  10
ENDBRANCH   1   7
BRANCH   2  18
HETATM   18  O1  UNL     1      24.457  -0.653  19.284  1.00  0.00    -0.356 OA
ATOM     19  H1  UNL     1      23.716  -1.144  18.948  1.00  0.00     0.218 HD
ENDBRANCH   2  18
BRANCH   6  20
HETATM   20  C14 UNL     1      28.002   2.202  17.278  1.00  0.00     0.311 C 
HETATM   21  O3  UNL     1      29.138   2.303  17.811  1.00  0.00    -0.258 OA
BRANCH  20  22
HETATM   22  O4  UNL     1      27.654   3.122  16.341  1.00  0.00    -0.312 OA
BRANCH  22  23
HETATM   23  C15 UNL     1      28.156   3.227  15.044  1.00  0.00     0.124 C 
HETATM   24  C16 UNL     1      27.977   4.611  14.450  1.00  0.00     0.040 C 
HETATM   25  C17 UNL     1      27.578   2.201  14.093  1.00  0.00     0.040 C 
ENDBRANCH  22  23
ENDBRANCH  20  22
ENDBRANCH   6  20
BRANCH   3  26
HETATM   26  O2  UNL     1      26.253  -2.366  17.642  1.00  0.00    -0.344 OA
ATOM     27  H2  UNL     1      26.387  -3.034  18.305  1.00  0.00     0.219 HD
ENDBRANCH   3  26
TORSDOF 8
ENDMDL
