MODEL 1
REMARK VINA RESULT: -6.738708121      0.000      0.000
REMARK  9 active torsions:
REMARK  status: ('A' for Active; 'I' for Inactive)
REMARK    1  A    between atoms: C2_2  and  O2_4 
REMARK    2  A    between atoms: O2_4  and  C3_5 
REMARK    3  A    between atoms: C4_6  and  O3_7 
REMARK    4  A    between atoms: C6_10  and  O4_11 
REMARK    5  A    between atoms: C7_13  and  O5_14 
REMARK    6  A    between atoms: O5_14  and  C8_15 
REMARK    7  A    between atoms: C12_19  and  C13_20 
REMARK    8  A    between atoms: C13_20  and  O6_21 
REMARK    9  A    between atoms: O6_21  and  C14_22 
REMARK       I    between atoms: C14_22  and  N1_24 
ROOT
HETATM    1  C3  UNL     1      21.293   5.490  22.972  1.00  0.00     0.169 C 
HETATM    2  C4  UNL     1      21.928   4.404  23.783  1.00  0.00     0.150 C 
HETATM    3  C5  UNL     1      21.457   3.074  23.171  1.00  0.00     0.068 C 
HETATM    4  C6  UNL     1      21.301   3.165  21.700  1.00  0.00     0.150 C 
HETATM    5  C7  UNL     1      22.393   4.160  21.162  1.00  0.00     0.160 C 
HETATM    6  C12 UNL     1      21.769   5.475  21.510  1.00  0.00     0.074 C 
ENDROOT
BRANCH   6   7
HETATM    7  C13 UNL     1      22.560   6.693  21.190  1.00  0.00     0.190 C 
BRANCH   7   8
HETATM    8  O6  UNL     1      22.360   7.210  19.914  1.00  0.00    -0.303 OA
BRANCH   8   9
HETATM    9  C14 UNL     1      21.345   8.128  19.699  1.00  0.00     0.362 C 
HETATM   10  O7  UNL     1      20.634   8.412  20.727  1.00  0.00    -0.238 OA
HETATM   11  N1  UNL     1      21.079   8.729  18.449  1.00  0.00    -0.337 N 
HETATM   12  C15 UNL     1      20.000   9.668  18.341  1.00  0.00     0.154 C 
HETATM   13  C16 UNL     1      21.876   8.407  17.301  1.00  0.00     0.154 C 
ENDBRANCH   8   9
ENDBRANCH   7   8
ENDBRANCH   6   7
BRANCH   1  14
HETATM   14  O2  UNL     1      21.377   6.765  23.491  1.00  0.00    -0.313 OA
BRANCH  14  15
HETATM   15  C2  UNL     1      20.403   7.458  24.166  1.00  0.00     0.255 C 
HETATM   16  C1  UNL     1      20.474   8.936  24.185  1.00  0.00     0.126 C 
HETATM   17  O1  UNL     1      19.530   6.772  24.711  1.00  0.00    -0.266 OA
ENDBRANCH  14  15
ENDBRANCH   1  14
BRANCH   5  18
HETATM   18  O5  UNL     1      22.524   4.008  19.839  1.00  0.00    -0.373 OA
BRANCH  18  19
HETATM   19  C8  UNL     1      23.650   3.737  19.202  1.00  0.00     0.051 C 
HETATM   20  C9  UNL     1      23.537   2.557  18.277  1.00  0.00     0.045 C 
HETATM   21  C10 UNL     1      24.329   4.828  18.437  1.00  0.00     0.045 C 
HETATM   22  C11 UNL     1      24.679   3.307  20.271  1.00  0.00     0.045 C 
ENDBRANCH  18  19
ENDBRANCH   5  18
BRANCH   2  23
HETATM   23  O3  UNL     1      21.348   4.431  25.046  1.00  0.00    -0.393 OA
ATOM     24  H3  UNL     1      20.497   4.016  24.979  1.00  0.00     0.210 HD
ENDBRANCH   2  23
BRANCH   4  25
HETATM   25  O4  UNL     1      21.416   1.952  21.084  1.00  0.00    -0.393 OA
ATOM     26  H4  UNL     1      22.296   1.784  20.771  1.00  0.00     0.210 HD
ENDBRANCH   4  25
TORSDOF 9
ENDMDL
MODEL 2
REMARK VINA RESULT: -6.651908215      0.797      1.160
REMARK  9 active torsions:
REMARK  status: ('A' for Active; 'I' for Inactive)
REMARK    1  A    between atoms: C2_2  and  O2_4 
REMARK    2  A    between atoms: O2_4  and  C3_5 
REMARK    3  A    between atoms: C4_6  and  O3_7 
REMARK    4  A    between atoms: C6_10  and  O4_11 
REMARK    5  A    between atoms: C7_13  and  O5_14 
REMARK    6  A    between atoms: O5_14  and  C8_15 
REMARK    7  A    between atoms: C12_19  and  C13_20 
REMARK    8  A    between atoms: C13_20  and  O6_21 
REMARK    9  A    between atoms: O6_21  and  C14_22 
REMARK       I    between atoms: C14_22  and  N1_24 
ROOT
HETATM    1  C3  UNL     1      21.306   4.785  23.033  1.00  0.00     0.169 C 
HETATM    2  C4  UNL     1      21.937   3.628  23.742  1.00  0.00     0.150 C 
HETATM    3  C5  UNL     1      21.478   2.362  22.999  1.00  0.00     0.068 C 
HETATM    4  C6  UNL     1      21.336   2.595  21.542  1.00  0.00     0.150 C 
HETATM    5  C7  UNL     1      22.430   3.641  21.114  1.00  0.00     0.160 C 
HETATM    6  C12 UNL     1      21.798   4.915  21.581  1.00  0.00     0.074 C 
ENDROOT
BRANCH   6   7
HETATM    7  C13 UNL     1      22.586   6.159  21.390  1.00  0.00     0.190 C 
BRANCH   7   8
HETATM    8  O6  UNL     1      21.844   7.281  21.031  1.00  0.00    -0.303 OA
BRANCH   8   9
HETATM    9  C14 UNL     1      21.935   7.777  19.741  1.00  0.00     0.362 C 
HETATM   10  O7  UNL     1      22.948   7.375  19.067  1.00  0.00    -0.238 OA
HETATM   11  N1  UNL     1      20.997   8.668  19.173  1.00  0.00    -0.337 N 
HETATM   12  C15 UNL     1      21.190   9.118  17.825  1.00  0.00     0.154 C 
HETATM   13  C16 UNL     1      19.866   9.116  19.931  1.00  0.00     0.154 C 
ENDBRANCH   8   9
ENDBRANCH   7   8
ENDBRANCH   6   7
BRANCH   1  14
HETATM   14  O2  UNL     1      21.380   6.004  23.674  1.00  0.00    -0.313 OA
BRANCH  14  15
HETATM   15  C2  UNL     1      20.356   6.696  24.273  1.00  0.00     0.255 C 
HETATM   16  C1  UNL     1      20.402   8.176  24.259  1.00  0.00     0.126 C 
HETATM   17  O1  UNL     1      19.463   6.008  24.783  1.00  0.00    -0.266 OA
ENDBRANCH  14  15
ENDBRANCH   1  14
BRANCH   5  18
HETATM   18  O5  UNL     1      22.576   3.618  19.785  1.00  0.00    -0.373 OA
BRANCH  18  19
HETATM   19  C8  UNL     1      23.702   3.376  19.136  1.00  0.00     0.051 C 
HETATM   20  C9  UNL     1      23.578   2.266  18.129  1.00  0.00     0.045 C 
HETATM   21  C10 UNL     1      24.401   4.509  18.453  1.00  0.00     0.045 C 
HETATM   22  C11 UNL     1      24.717   2.858  20.178  1.00  0.00     0.045 C 
ENDBRANCH  18  19
ENDBRANCH   5  18
BRANCH   2  23
HETATM   23  O3  UNL     1      21.343   3.531  24.995  1.00  0.00    -0.393 OA
ATOM     24  H3  UNL     1      20.487   3.137  24.876  1.00  0.00     0.210 HD
ENDBRANCH   2  23
BRANCH   4  25
HETATM   25  O4  UNL     1      21.463   1.448  20.812  1.00  0.00    -0.393 OA
ATOM     26  H4  UNL     1      22.369   1.222  20.640  1.00  0.00     0.210 HD
ENDBRANCH   4  25
TORSDOF 9
ENDMDL
MODEL 3
REMARK VINA RESULT: -6.623728051      0.625      1.070
REMARK  9 active torsions:
REMARK  status: ('A' for Active; 'I' for Inactive)
REMARK    1  A    between atoms: C2_2  and  O2_4 
REMARK    2  A    between atoms: O2_4  and  C3_5 
REMARK    3  A    between atoms: C4_6  and  O3_7 
REMARK    4  A    between atoms: C6_10  and  O4_11 
REMARK    5  A    between atoms: C7_13  and  O5_14 
REMARK    6  A    between atoms: O5_14  and  C8_15 
REMARK    7  A    between atoms: C12_19  and  C13_20 
REMARK    8  A    between atoms: C13_20  and  O6_21 
REMARK    9  A    between atoms: O6_21  and  C14_22 
REMARK       I    between atoms: C14_22  and  N1_24 
ROOT
HETATM    1  C3  UNL     1      21.272   4.807  23.080  1.00  0.00     0.169 C 
HETATM    2  C4  UNL     1      21.933   3.652  23.765  1.00  0.00     0.150 C 
HETATM    3  C5  UNL     1      21.545   2.396  22.968  1.00  0.00     0.068 C 
HETATM    4  C6  UNL     1      21.429   2.673  21.517  1.00  0.00     0.150 C 
HETATM    5  C7  UNL     1      22.488   3.777  21.153  1.00  0.00     0.160 C 
HETATM    6  C12 UNL     1      21.793   5.007  21.646  1.00  0.00     0.074 C 
ENDROOT
BRANCH   6   7
HETATM    7  C13 UNL     1      22.533   6.289  21.517  1.00  0.00     0.190 C 
BRANCH   7   8
HETATM    8  O6  UNL     1      22.352   6.958  20.310  1.00  0.00    -0.303 OA
BRANCH   8   9
HETATM    9  C14 UNL     1      21.366   7.924  20.205  1.00  0.00     0.362 C 
HETATM   10  O7  UNL     1      20.753   8.206  21.294  1.00  0.00    -0.238 OA
HETATM   11  N1  UNL     1      21.028   8.576  18.998  1.00  0.00    -0.337 N 
HETATM   12  C15 UNL     1      19.988   9.563  19.005  1.00  0.00     0.154 C 
HETATM   13  C16 UNL     1      21.716   8.258  17.781  1.00  0.00     0.154 C 
ENDBRANCH   8   9
ENDBRANCH   7   8
ENDBRANCH   6   7
BRANCH   1  14
HETATM   14  O2  UNL     1      21.279   6.005  23.763  1.00  0.00    -0.313 OA
BRANCH  14  15
HETATM   15  C2  UNL     1      20.242   6.578  24.457  1.00  0.00     0.255 C 
HETATM   16  C1  UNL     1      20.251   8.044  24.656  1.00  0.00     0.126 C 
HETATM   17  O1  UNL     1      19.369   5.801  24.864  1.00  0.00    -0.266 OA
ENDBRANCH  14  15
ENDBRANCH   1  14
BRANCH   5  18
HETATM   18  O5  UNL     1      22.667   3.807  19.827  1.00  0.00    -0.373 OA
BRANCH  18  19
HETATM   19  C8  UNL     1      23.811   3.600  19.198  1.00  0.00     0.051 C 
HETATM   20  C9  UNL     1      24.301   4.808  18.449  1.00  0.00     0.045 C 
HETATM   21  C10 UNL     1      24.975   3.065  19.971  1.00  0.00     0.045 C 
HETATM   22  C11 UNL     1      23.540   2.539  18.110  1.00  0.00     0.045 C 
ENDBRANCH  18  19
ENDBRANCH   5  18
BRANCH   2  23
HETATM   23  O3  UNL     1      21.315   3.488  24.998  1.00  0.00    -0.393 OA
ATOM     24  H3  UNL     1      21.322   2.560  25.200  1.00  0.00     0.210 HD
ENDBRANCH   2  23
BRANCH   4  25
HETATM   25  O4  UNL     1      21.621   1.558  20.753  1.00  0.00    -0.393 OA
ATOM     26  H4  UNL     1      20.892   1.385  20.169  1.00  0.00     0.210 HD
ENDBRANCH   4  25
TORSDOF 9
ENDMDL
MODEL 4
REMARK VINA RESULT: -6.532902733      0.509      1.331
REMARK  9 active torsions:
REMARK  status: ('A' for Active; 'I' for Inactive)
REMARK    1  A    between atoms: C2_2  and  O2_4 
REMARK    2  A    between atoms: O2_4  and  C3_5 
REMARK    3  A    between atoms: C4_6  and  O3_7 
REMARK    4  A    between atoms: C6_10  and  O4_11 
REMARK    5  A    between atoms: C7_13  and  O5_14 
REMARK    6  A    between atoms: O5_14  and  C8_15 
REMARK    7  A    between atoms: C12_19  and  C13_20 
REMARK    8  A    between atoms: C13_20  and  O6_21 
REMARK    9  A    between atoms: O6_21  and  C14_22 
REMARK       I    between atoms: C14_22  and  N1_24 
ROOT
HETATM    1  C3  UNL     1      21.363   5.488  22.840  1.00  0.00     0.169 C 
HETATM    2  C4  UNL     1      22.038   4.459  23.692  1.00  0.00     0.150 C 
HETATM    3  C5  UNL     1      21.596   3.090  23.149  1.00  0.00     0.068 C 
HETATM    4  C6  UNL     1      21.418   3.107  21.678  1.00  0.00     0.150 C 
HETATM    5  C7  UNL     1      22.476   4.106  21.078  1.00  0.00     0.160 C 
HETATM    6  C12 UNL     1      21.821   5.418  21.374  1.00  0.00     0.074 C 
ENDROOT
BRANCH   6   7
HETATM    7  C13 UNL     1      22.574   6.640  20.987  1.00  0.00     0.190 C 
BRANCH   7   8
HETATM    8  O6  UNL     1      21.806   7.654  20.421  1.00  0.00    -0.303 OA
BRANCH   8   9
HETATM    9  C14 UNL     1      22.039   8.038  19.111  1.00  0.00     0.362 C 
HETATM   10  O7  UNL     1      23.115   7.582  18.587  1.00  0.00    -0.238 OA
HETATM   11  N1  UNL     1      21.174   8.875  18.372  1.00  0.00    -0.337 N 
HETATM   12  C15 UNL     1      21.515   9.209  17.019  1.00  0.00     0.154 C 
HETATM   13  C16 UNL     1      19.971   9.384  18.962  1.00  0.00     0.154 C 
ENDBRANCH   8   9
ENDBRANCH   7   8
ENDBRANCH   6   7
BRANCH   1  14
HETATM   14  O2  UNL     1      21.420   6.788  23.298  1.00  0.00    -0.313 OA
BRANCH  14  15
HETATM   15  C2  UNL     1      20.449   7.474  23.986  1.00  0.00     0.255 C 
HETATM   16  C1  UNL     1      20.507   8.953  24.001  1.00  0.00     0.126 C 
HETATM   17  O1  UNL     1      19.591   6.781  24.546  1.00  0.00    -0.266 OA
ENDBRANCH  14  15
ENDBRANCH   1  14
BRANCH   5  18
HETATM   18  O5  UNL     1      22.595   3.895  19.763  1.00  0.00    -0.373 OA
BRANCH  18  19
HETATM   19  C8  UNL     1      23.663   3.412  19.152  1.00  0.00     0.051 C 
HETATM   20  C9  UNL     1      24.731   2.951  20.105  1.00  0.00     0.045 C 
HETATM   21  C10 UNL     1      23.487   2.328  18.136  1.00  0.00     0.045 C 
HETATM   22  C11 UNL     1      24.302   4.582  18.373  1.00  0.00     0.045 C 
ENDBRANCH  18  19
ENDBRANCH   5  18
BRANCH   2  23
HETATM   23  O3  UNL     1      21.474   4.530  24.960  1.00  0.00    -0.393 OA
ATOM     24  H3  UNL     1      21.014   3.713  25.115  1.00  0.00     0.210 HD
ENDBRANCH   2  23
BRANCH   4  25
HETATM   25  O4  UNL     1      21.559   1.871  21.117  1.00  0.00    -0.393 OA
ATOM     26  H4  UNL     1      22.004   1.898  20.279  1.00  0.00     0.210 HD
ENDBRANCH   4  25
TORSDOF 9
ENDMDL
MODEL 5
REMARK VINA RESULT: -6.392203166      2.278      5.088
REMARK  9 active torsions:
REMARK  status: ('A' for Active; 'I' for Inactive)
REMARK    1  A    between atoms: C2_2  and  O2_4 
REMARK    2  A    between atoms: O2_4  and  C3_5 
REMARK    3  A    between atoms: C4_6  and  O3_7 
REMARK    4  A    between atoms: C6_10  and  O4_11 
REMARK    5  A    between atoms: C7_13  and  O5_14 
REMARK    6  A    between atoms: O5_14  and  C8_15 
REMARK    7  A    between atoms: C12_19  and  C13_20 
REMARK    8  A    between atoms: C13_20  and  O6_21 
REMARK    9  A    between atoms: O6_21  and  C14_22 
REMARK       I    between atoms: C14_22  and  N1_24 
ROOT
HETATM    1  C3  UNL     1      23.519   4.774  20.072  1.00  0.00     0.169 C 
HETATM    2  C4  UNL     1      23.747   3.628  19.137  1.00  0.00     0.150 C 
HETATM    3  C5  UNL     1      25.006   2.902  19.639  1.00  0.00     0.068 C 
HETATM    4  C6  UNL     1      25.110   2.930  21.117  1.00  0.00     0.150 C 
HETATM    5  C7  UNL     1      23.651   2.882  21.703  1.00  0.00     0.160 C 
HETATM    6  C12 UNL     1      23.223   4.302  21.506  1.00  0.00     0.074 C 
ENDROOT
BRANCH   6   7
HETATM    7  C13 UNL     1      21.832   4.641  21.906  1.00  0.00     0.190 C 
BRANCH   7   8
HETATM    8  O6  UNL     1      21.678   5.881  22.519  1.00  0.00    -0.303 OA
BRANCH   8   9
HETATM    9  C14 UNL     1      20.738   6.034  23.525  1.00  0.00     0.362 C 
HETATM   10  O7  UNL     1      20.191   4.951  23.936  1.00  0.00    -0.238 OA
HETATM   11  N1  UNL     1      20.379   7.281  24.083  1.00  0.00    -0.337 N 
HETATM   12  C15 UNL     1      19.392   7.322  25.123  1.00  0.00     0.154 C 
HETATM   13  C16 UNL     1      20.993   8.491  23.620  1.00  0.00     0.154 C 
ENDBRANCH   8   9
ENDBRANCH   7   8
ENDBRANCH   6   7
BRANCH   1  14
HETATM   14  O2  UNL     1      22.587   5.708  19.673  1.00  0.00    -0.313 OA
BRANCH  14  15
HETATM   15  C2  UNL     1      22.821   6.988  19.233  1.00  0.00     0.255 C 
HETATM   16  C1  UNL     1      21.929   8.071  19.705  1.00  0.00     0.126 C 
HETATM   17  O1  UNL     1      23.781   7.128  18.464  1.00  0.00    -0.266 OA
ENDBRANCH  14  15
ENDBRANCH   1  14
BRANCH   5  18
HETATM   18  O5  UNL     1      23.699   2.553  22.998  1.00  0.00    -0.373 OA
BRANCH  18  19
HETATM   19  C8  UNL     1      23.032   1.563  23.568  1.00  0.00     0.051 C 
HETATM   20  C9  UNL     1      23.923   0.587  24.285  1.00  0.00     0.045 C 
HETATM   21  C10 UNL     1      21.906   1.890  24.496  1.00  0.00     0.045 C 
HETATM   22  C11 UNL     1      22.381   0.747  22.430  1.00  0.00     0.045 C 
ENDBRANCH  18  19
ENDBRANCH   5  18
BRANCH   2  23
HETATM   23  O3  UNL     1      24.118   4.159  17.907  1.00  0.00    -0.393 OA
ATOM     24  H3  UNL     1      23.332   4.491  17.491  1.00  0.00     0.210 HD
ENDBRANCH   2  23
BRANCH   4  25
HETATM   25  O4  UNL     1      25.856   1.899  21.611  1.00  0.00    -0.393 OA
ATOM     26  H4  UNL     1      25.794   1.115  21.078  1.00  0.00     0.210 HD
ENDBRANCH   4  25
TORSDOF 9
ENDMDL
