MODEL 1
REMARK VINA RESULT: -10.145995440      0.000      0.000
REMARK  14 active torsions:
REMARK  status: ('A' for Active; 'I' for Inactive)
REMARK       I    between atoms: C2_2  and  N1_4 
REMARK    1  A    between atoms: C5_7  and  C6_8 
REMARK    2  A    between atoms: C6_8  and  C7_9 
REMARK    3  A    between atoms: C7_9  and  N2_10 
REMARK    4  A    between atoms: C7_9  and  C23_33 
REMARK       I    between atoms: N2_10  and  C8_12 
REMARK    5  A    between atoms: C8_12  and  C9_14 
REMARK    6  A    between atoms: C11_16  and  C12_17 
REMARK    7  A    between atoms: C12_17  and  C13_18 
REMARK    8  A    between atoms: C13_18  and  C14_19 
REMARK       I    between atoms: C14_19  and  N3_21 
REMARK    9  A    between atoms: N3_21  and  C15_23 
REMARK   10  A    between atoms: C23_33  and  O5_34 
REMARK   11  A    between atoms: C23_33  and  N5_36 
REMARK   12  A    between atoms: C28_41  and  C29_42 
REMARK       I    between atoms: C29_42  and  N6_44 
REMARK   13  A    between atoms: N6_44  and  C30_46 
REMARK   14  A    between atoms: C30_46  and  C31_47 
ROOT
HETATM    1  C7  UNL     1       8.063 -16.813 -17.752  1.00  0.00     0.082 C 
ENDROOT
BRANCH   1   2
HETATM    2  C6  UNL     1       8.240 -16.964 -19.186  1.00  0.00     0.012 C 
BRANCH   2   3
HETATM    3  C5  UNL     1       8.407 -18.253 -19.865  1.00  0.00     0.013 C 
HETATM    4  C4  UNL     1       8.062 -19.486 -19.075  1.00  0.00     0.028 C 
HETATM    5  C3  UNL     1       9.246 -19.986 -18.266  1.00  0.00     0.126 C 
HETATM    6  N1  UNL     1      10.150 -20.577 -19.268  1.00  0.00    -0.352 N 
HETATM    7  C2  UNL     1      10.890 -21.749 -19.027  1.00  0.00     0.215 C 
HETATM    8  C35 UNL     1      10.205 -19.843 -20.523  1.00  0.00     0.126 C 
HETATM    9  C1  UNL     1      10.800 -22.474 -17.728  1.00  0.00     0.117 C 
HETATM   10  O1  UNL     1      11.644 -22.187 -19.933  1.00  0.00    -0.274 OA
HETATM   11  C34 UNL     1       9.897 -18.405 -20.221  1.00  0.00     0.028 C 
ENDBRANCH   2   3
ENDBRANCH   1   2
BRANCH   1  12
HETATM   12  N2  UNL     1       9.212 -17.117 -16.943  1.00  0.00    -0.323 N 
HETATM   13  C8  UNL     1       9.418 -17.880 -15.817  1.00  0.00     0.228 C 
HETATM   14  O2  UNL     1       8.533 -18.495 -15.221  1.00  0.00    -0.273 OA
ATOM     15  H2  UNL     1      10.063 -16.668 -17.279  1.00  0.00     0.169 HD
BRANCH  13  16
HETATM   16  C9  UNL     1      10.796 -18.039 -15.197  1.00  0.00     0.102 C 
HETATM   17  C10 UNL     1      11.840 -18.264 -16.204  1.00  0.00     0.030 C 
HETATM   18  C11 UNL     1      12.445 -19.628 -16.339  1.00  0.00     0.079 C 
HETATM   19  C18 UNL     1      12.436 -20.357 -15.071  1.00  0.00     0.224 C 
HETATM   20  O4  UNL     1      12.823 -21.568 -14.948  1.00  0.00    -0.273 OA
HETATM   21  N4  UNL     1      11.979 -19.728 -13.881  1.00  0.00    -0.346 N 
HETATM   22  C19 UNL     1      12.453 -19.715 -12.495  1.00  0.00     0.126 C 
HETATM   23  C22 UNL     1      10.781 -18.910 -13.989  1.00  0.00     0.100 C 
HETATM   24  C20 UNL     1      12.166 -18.250 -12.149  1.00  0.00     0.022 C 
HETATM   25  C21 UNL     1      10.764 -18.117 -12.686  1.00  0.00     0.028 C 
BRANCH  18  26
HETATM   26  C12 UNL     1      13.842 -19.455 -16.852  1.00  0.00     0.023 C 
BRANCH  26  27
HETATM   27  C13 UNL     1      14.122 -20.035 -18.206  1.00  0.00     0.103 C 
BRANCH  27  28
HETATM   28  C14 UNL     1      14.670 -21.429 -18.066  1.00  0.00     0.217 C 
HETATM   29  O3  UNL     1      15.348 -21.722 -17.067  1.00  0.00    -0.274 OA
HETATM   30  N3  UNL     1      14.418 -22.407 -19.057  1.00  0.00    -0.356 N 
ATOM     31  H3  UNL     1      13.856 -22.157 -19.871  1.00  0.00     0.162 HD
BRANCH  30  32
HETATM   32  C15 UNL     1      14.936 -23.752 -18.947  1.00  0.00     0.084 A 
HETATM   33  C16 UNL     1      13.817 -24.836 -18.923  1.00  0.00     0.027 A 
HETATM   34  C17 UNL     1      14.795 -24.664 -20.077  1.00  0.00     0.027 A 
ENDBRANCH  30  32
ENDBRANCH  27  28
ENDBRANCH  26  27
ENDBRANCH  18  26
ENDBRANCH  13  16
ENDBRANCH   1  12
BRANCH   1  35
HETATM   35  C23 UNL     1       7.427 -15.613 -17.185  1.00  0.00     0.166 C 
BRANCH  35  36
HETATM   36  O5  UNL     1       7.306 -14.584 -17.975  1.00  0.00    -0.344 OA
ATOM     37  H5  UNL     1       7.012 -13.771 -17.579  1.00  0.00     0.219 HD
ENDBRANCH  35  36
BRANCH  35  38
HETATM   38  N5  UNL     1       6.921 -15.375 -15.906  1.00  0.00    -0.347 N 
HETATM   39  C24 UNL     1       7.830 -15.015 -14.824  1.00  0.00     0.126 C 
HETATM   40  C25 UNL     1       7.051 -14.012 -13.953  1.00  0.00     0.020 C 
HETATM   41  C26 UNL     1       6.168 -13.163 -14.833  1.00  0.00     0.004 C 
HETATM   42  C27 UNL     1       5.061 -13.976 -15.511  1.00  0.00     0.035 C 
HETATM   43  C28 UNL     1       5.529 -15.418 -15.528  1.00  0.00     0.178 C 
BRANCH  43  44
HETATM   44  C29 UNL     1       4.651 -16.354 -16.193  1.00  0.00     0.240 C 
HETATM   45  O6  UNL     1       4.519 -17.549 -15.865  1.00  0.00    -0.271 OA
HETATM   46  N6  UNL     1       3.852 -15.924 -17.322  1.00  0.00    -0.359 N 
ATOM     47  H6  UNL     1       3.899 -14.964 -17.661  1.00  0.00     0.162 HD
BRANCH  46  48
HETATM   48  C30 UNL     1       2.986 -16.894 -17.956  1.00  0.00     0.127 C 
BRANCH  48  49
HETATM   49  C31 UNL     1       3.484 -17.440 -19.247  1.00  0.00     0.003 A 
HETATM   50  C32 UNL     1       3.498 -18.986 -19.287  1.00  0.00     0.007 A 
HETATM   51  C33 UNL     1       4.738 -18.170 -19.428  1.00  0.00     0.007 A 
ENDBRANCH  48  49
ENDBRANCH  46  48
ENDBRANCH  43  44
ENDBRANCH  35  38
ENDBRANCH   1  35
TORSDOF 14
ENDMDL
MODEL 2
REMARK VINA RESULT: -9.972087555      2.607      9.228
REMARK  14 active torsions:
REMARK  status: ('A' for Active; 'I' for Inactive)
REMARK       I    between atoms: C2_2  and  N1_4 
REMARK    1  A    between atoms: C5_7  and  C6_8 
REMARK    2  A    between atoms: C6_8  and  C7_9 
REMARK    3  A    between atoms: C7_9  and  N2_10 
REMARK    4  A    between atoms: C7_9  and  C23_33 
REMARK       I    between atoms: N2_10  and  C8_12 
REMARK    5  A    between atoms: C8_12  and  C9_14 
REMARK    6  A    between atoms: C11_16  and  C12_17 
REMARK    7  A    between atoms: C12_17  and  C13_18 
REMARK    8  A    between atoms: C13_18  and  C14_19 
REMARK       I    between atoms: C14_19  and  N3_21 
REMARK    9  A    between atoms: N3_21  and  C15_23 
REMARK   10  A    between atoms: C23_33  and  O5_34 
REMARK   11  A    between atoms: C23_33  and  N5_36 
REMARK   12  A    between atoms: C28_41  and  C29_42 
REMARK       I    between atoms: C29_42  and  N6_44 
REMARK   13  A    between atoms: N6_44  and  C30_46 
REMARK   14  A    between atoms: C30_46  and  C31_47 
ROOT
HETATM    1  C7  UNL     1      12.410 -20.710 -17.646  1.00  0.00     0.082 C 
ENDROOT
BRANCH   1   2
HETATM    2  C6  UNL     1      12.472 -22.157 -17.521  1.00  0.00     0.012 C 
BRANCH   2   3
HETATM    3  C5  UNL     1      12.702 -23.072 -18.643  1.00  0.00     0.013 C 
HETATM    4  C4  UNL     1      13.539 -24.292 -18.366  1.00  0.00     0.028 C 
HETATM    5  C3  UNL     1      15.019 -24.012 -18.553  1.00  0.00     0.126 C 
HETATM    6  N1  UNL     1      15.193 -23.918 -20.012  1.00  0.00    -0.352 N 
HETATM    7  C2  UNL     1      16.324 -24.425 -20.678  1.00  0.00     0.215 C 
HETATM    8  C35 UNL     1      14.093 -23.259 -20.699  1.00  0.00     0.126 C 
HETATM    9  C1  UNL     1      17.426 -25.100 -19.937  1.00  0.00     0.117 C 
HETATM   10  O1  UNL     1      16.399 -24.301 -21.927  1.00  0.00    -0.274 OA
HETATM   11  C34 UNL     1      13.466 -22.296 -19.731  1.00  0.00     0.028 C 
ENDBRANCH   2   3
ENDBRANCH   1   2
BRANCH   1  12
HETATM   12  N2  UNL     1      11.108 -20.123 -17.482  1.00  0.00    -0.323 N 
HETATM   13  C8  UNL     1      10.513 -18.967 -17.931  1.00  0.00     0.228 C 
HETATM   14  O2  UNL     1      11.076 -18.118 -18.624  1.00  0.00    -0.273 OA
ATOM     15  H2  UNL     1      10.488 -20.689 -16.904  1.00  0.00     0.169 HD
BRANCH  13  16
HETATM   16  C9  UNL     1       9.067 -18.631 -17.608  1.00  0.00     0.102 C 
HETATM   17  C10 UNL     1       8.205 -18.667 -18.796  1.00  0.00     0.030 C 
HETATM   18  C11 UNL     1       7.706 -17.379 -19.376  1.00  0.00     0.079 C 
HETATM   19  C18 UNL     1       7.561 -16.340 -18.357  1.00  0.00     0.224 C 
HETATM   20  O4  UNL     1       7.228 -15.135 -18.618  1.00  0.00    -0.273 OA
HETATM   21  N4  UNL     1       7.792 -16.638 -16.987  1.00  0.00    -0.346 N 
HETATM   22  C19 UNL     1       7.110 -16.276 -15.742  1.00  0.00     0.126 C 
HETATM   23  C22 UNL     1       8.945 -17.471 -16.681  1.00  0.00     0.100 C 
HETATM   24  C20 UNL     1       7.258 -17.601 -14.985  1.00  0.00     0.022 C 
HETATM   25  C21 UNL     1       8.716 -17.890 -15.233  1.00  0.00     0.028 C 
BRANCH  18  26
HETATM   26  C12 UNL     1       6.398 -17.663 -20.049  1.00  0.00     0.023 C 
BRANCH  26  27
HETATM   27  C13 UNL     1       5.408 -18.461 -19.253  1.00  0.00     0.103 C 
BRANCH  27  28
HETATM   28  C14 UNL     1       4.337 -17.557 -18.708  1.00  0.00     0.217 C 
HETATM   29  O3  UNL     1       3.680 -16.847 -19.488  1.00  0.00    -0.274 OA
HETATM   30  N3  UNL     1       4.069 -17.511 -17.320  1.00  0.00    -0.356 N 
ATOM     31  H3  UNL     1       4.611 -18.101 -16.689  1.00  0.00     0.162 HD
BRANCH  30  32
HETATM   32  C15 UNL     1       3.047 -16.648 -16.771  1.00  0.00     0.084 A 
HETATM   33  C16 UNL     1       2.359 -17.246 -15.506  1.00  0.00     0.027 A 
HETATM   34  C17 UNL     1       3.266 -16.024 -15.471  1.00  0.00     0.027 A 
ENDBRANCH  30  32
ENDBRANCH  27  28
ENDBRANCH  26  27
ENDBRANCH  18  26
ENDBRANCH  13  16
ENDBRANCH   1  12
BRANCH   1  35
HETATM   35  C23 UNL     1      13.378 -19.843 -16.955  1.00  0.00     0.166 C 
BRANCH  35  36
HETATM   36  O5  UNL     1      14.424 -19.471 -17.637  1.00  0.00    -0.344 OA
ATOM     37  H5  UNL     1      15.239 -19.382 -17.157  1.00  0.00     0.219 HD
ENDBRANCH  35  36
BRANCH  35  38
HETATM   38  N5  UNL     1      13.374 -19.341 -15.653  1.00  0.00    -0.347 N 
HETATM   39  C24 UNL     1      12.666 -18.100 -15.360  1.00  0.00     0.126 C 
HETATM   40  C25 UNL     1      12.081 -18.289 -13.947  1.00  0.00     0.020 C 
HETATM   41  C26 UNL     1      11.679 -19.729 -13.758  1.00  0.00     0.004 C 
HETATM   42  C27 UNL     1      12.881 -20.679 -13.771  1.00  0.00     0.035 C 
HETATM   43  C28 UNL     1      13.996 -19.960 -14.507  1.00  0.00     0.178 C 
BRANCH  43  44
HETATM   44  C29 UNL     1      15.213 -20.716 -14.694  1.00  0.00     0.240 C 
HETATM   45  O6  UNL     1      16.265 -20.248 -15.169  1.00  0.00    -0.271 OA
HETATM   46  N6  UNL     1      15.264 -22.115 -14.321  1.00  0.00    -0.359 N 
ATOM     47  H6  UNL     1      14.448 -22.581 -13.927  1.00  0.00     0.162 HD
BRANCH  46  48
HETATM   48  C30 UNL     1      16.504 -22.832 -14.524  1.00  0.00     0.127 C 
BRANCH  48  49
HETATM   49  C31 UNL     1      17.125 -23.384 -13.290  1.00  0.00     0.003 A 
HETATM   50  C32 UNL     1      17.538 -24.869 -13.432  1.00  0.00     0.007 A 
HETATM   51  C33 UNL     1      16.531 -24.410 -12.432  1.00  0.00     0.007 A 
ENDBRANCH  48  49
ENDBRANCH  46  48
ENDBRANCH  43  44
ENDBRANCH  35  38
ENDBRANCH   1  35
TORSDOF 14
ENDMDL
MODEL 3
REMARK VINA RESULT: -9.852281106      1.727      5.203
REMARK  14 active torsions:
REMARK  status: ('A' for Active; 'I' for Inactive)
REMARK       I    between atoms: C2_2  and  N1_4 
REMARK    1  A    between atoms: C5_7  and  C6_8 
REMARK    2  A    between atoms: C6_8  and  C7_9 
REMARK    3  A    between atoms: C7_9  and  N2_10 
REMARK    4  A    between atoms: C7_9  and  C23_33 
REMARK       I    between atoms: N2_10  and  C8_12 
REMARK    5  A    between atoms: C8_12  and  C9_14 
REMARK    6  A    between atoms: C11_16  and  C12_17 
REMARK    7  A    between atoms: C12_17  and  C13_18 
REMARK    8  A    between atoms: C13_18  and  C14_19 
REMARK       I    between atoms: C14_19  and  N3_21 
REMARK    9  A    between atoms: N3_21  and  C15_23 
REMARK   10  A    between atoms: C23_33  and  O5_34 
REMARK   11  A    between atoms: C23_33  and  N5_36 
REMARK   12  A    between atoms: C28_41  and  C29_42 
REMARK       I    between atoms: C29_42  and  N6_44 
REMARK   13  A    between atoms: N6_44  and  C30_46 
REMARK   14  A    between atoms: C30_46  and  C31_47 
ROOT
HETATM    1  C7  UNL     1       7.990 -16.472 -16.986  1.00  0.00     0.082 C 
ENDROOT
BRANCH   1   2
HETATM    2  C6  UNL     1       6.783 -16.911 -16.305  1.00  0.00     0.012 C 
BRANCH   2   3
HETATM    3  C5  UNL     1       6.021 -16.084 -15.365  1.00  0.00     0.013 C 
HETATM    4  C4  UNL     1       4.534 -15.998 -15.585  1.00  0.00     0.028 C 
HETATM    5  C3  UNL     1       4.173 -14.881 -16.548  1.00  0.00     0.126 C 
HETATM    6  N1  UNL     1       4.380 -13.647 -15.772  1.00  0.00    -0.352 N 
HETATM    7  C2  UNL     1       3.532 -12.529 -15.879  1.00  0.00     0.215 C 
HETATM    8  C35 UNL     1       5.535 -13.690 -14.888  1.00  0.00     0.126 C 
HETATM    9  C1  UNL     1       2.355 -12.529 -16.792  1.00  0.00     0.117 C 
HETATM   10  O1  UNL     1       3.781 -11.511 -15.184  1.00  0.00    -0.274 OA
HETATM   11  C34 UNL     1       6.532 -14.638 -15.491  1.00  0.00     0.028 C 
ENDBRANCH   2   3
ENDBRANCH   1   2
BRANCH   1  12
HETATM   12  N2  UNL     1       9.223 -17.026 -16.497  1.00  0.00    -0.323 N 
HETATM   13  C8  UNL     1       9.929 -16.906 -15.323  1.00  0.00     0.228 C 
HETATM   14  O2  UNL     1       9.592 -16.195 -14.376  1.00  0.00    -0.273 OA
ATOM     15  H2  UNL     1       9.673 -17.645 -17.169  1.00  0.00     0.169 HD
BRANCH  13  16
HETATM   16  C9  UNL     1      11.221 -17.669 -15.083  1.00  0.00     0.102 C 
HETATM   17  C10 UNL     1      11.976 -17.895 -16.322  1.00  0.00     0.030 C 
HETATM   18  C11 UNL     1      12.020 -19.272 -16.910  1.00  0.00     0.079 C 
HETATM   19  C18 UNL     1      11.907 -20.308 -15.884  1.00  0.00     0.224 C 
HETATM   20  O4  UNL     1      11.839 -21.557 -16.144  1.00  0.00    -0.273 OA
HETATM   21  N4  UNL     1      11.866 -19.957 -14.508  1.00  0.00    -0.346 N 
HETATM   22  C19 UNL     1      12.483 -20.513 -13.301  1.00  0.00     0.126 C 
HETATM   23  C22 UNL     1      11.044 -18.812 -14.146  1.00  0.00     0.100 C 
HETATM   24  C20 UNL     1      12.795 -19.208 -12.560  1.00  0.00     0.022 C 
HETATM   25  C21 UNL     1      11.482 -18.486 -12.722  1.00  0.00     0.028 C 
BRANCH  18  26
HETATM   26  C12 UNL     1      13.307 -19.400 -17.667  1.00  0.00     0.023 C 
BRANCH  26  27
HETATM   27  C13 UNL     1      13.280 -20.303 -18.863  1.00  0.00     0.103 C 
BRANCH  27  28
HETATM   28  C14 UNL     1      14.225 -21.455 -18.660  1.00  0.00     0.217 C 
HETATM   29  O3  UNL     1      15.070 -21.400 -17.751  1.00  0.00    -0.274 OA
HETATM   30  N3  UNL     1      14.158 -22.599 -19.490  1.00  0.00    -0.356 N 
ATOM     31  H3  UNL     1      13.457 -22.635 -20.231  1.00  0.00     0.162 HD
BRANCH  30  32
HETATM   32  C15 UNL     1      15.057 -23.718 -19.317  1.00  0.00     0.084 A 
HETATM   33  C16 UNL     1      14.312 -25.074 -19.124  1.00  0.00     0.027 A 
HETATM   34  C17 UNL     1      15.135 -24.736 -20.360  1.00  0.00     0.027 A 
ENDBRANCH  30  32
ENDBRANCH  27  28
ENDBRANCH  26  27
ENDBRANCH  18  26
ENDBRANCH  13  16
ENDBRANCH   1  12
BRANCH   1  35
HETATM   35  C23 UNL     1       8.068 -16.444 -18.456  1.00  0.00     0.166 C 
BRANCH  35  36
HETATM   36  O5  UNL     1       7.845 -15.298 -19.034  1.00  0.00    -0.344 OA
ATOM     37  H5  UNL     1       7.488 -15.324 -19.914  1.00  0.00     0.219 HD
ENDBRANCH  35  36
BRANCH  35  38
HETATM   38  N5  UNL     1       8.341 -17.466 -19.366  1.00  0.00    -0.347 N 
HETATM   39  C24 UNL     1       9.676 -17.585 -19.940  1.00  0.00     0.126 C 
HETATM   40  C25 UNL     1       9.924 -19.099 -20.085  1.00  0.00     0.020 C 
HETATM   41  C26 UNL     1       9.266 -19.827 -18.941  1.00  0.00     0.004 C 
HETATM   42  C27 UNL     1       7.739 -19.716 -18.976  1.00  0.00     0.035 C 
HETATM   43  C28 UNL     1       7.411 -18.483 -19.797  1.00  0.00     0.178 C 
BRANCH  43  44
HETATM   44  C29 UNL     1       6.008 -18.152 -19.899  1.00  0.00     0.240 C 
HETATM   45  O6  UNL     1       5.482 -17.620 -20.895  1.00  0.00    -0.271 OA
HETATM   46  N6  UNL     1       5.113 -18.436 -18.797  1.00  0.00    -0.359 N 
ATOM     47  H6  UNL     1       5.458 -18.868 -17.940  1.00  0.00     0.162 HD
BRANCH  46  48
HETATM   48  C30 UNL     1       3.716 -18.090 -18.943  1.00  0.00     0.127 C 
BRANCH  48  49
HETATM   49  C31 UNL     1       2.826 -18.574 -17.854  1.00  0.00     0.003 A 
HETATM   50  C32 UNL     1       1.361 -18.773 -18.312  1.00  0.00     0.007 A 
HETATM   51  C33 UNL     1       1.741 -17.803 -17.245  1.00  0.00     0.007 A 
ENDBRANCH  48  49
ENDBRANCH  46  48
ENDBRANCH  43  44
ENDBRANCH  35  38
ENDBRANCH   1  35
TORSDOF 14
ENDMDL
MODEL 4
REMARK VINA RESULT: -9.755281261      2.652      8.126
REMARK  14 active torsions:
REMARK  status: ('A' for Active; 'I' for Inactive)
REMARK       I    between atoms: C2_2  and  N1_4 
REMARK    1  A    between atoms: C5_7  and  C6_8 
REMARK    2  A    between atoms: C6_8  and  C7_9 
REMARK    3  A    between atoms: C7_9  and  N2_10 
REMARK    4  A    between atoms: C7_9  and  C23_33 
REMARK       I    between atoms: N2_10  and  C8_12 
REMARK    5  A    between atoms: C8_12  and  C9_14 
REMARK    6  A    between atoms: C11_16  and  C12_17 
REMARK    7  A    between atoms: C12_17  and  C13_18 
REMARK    8  A    between atoms: C13_18  and  C14_19 
REMARK       I    between atoms: C14_19  and  N3_21 
REMARK    9  A    between atoms: N3_21  and  C15_23 
REMARK   10  A    between atoms: C23_33  and  O5_34 
REMARK   11  A    between atoms: C23_33  and  N5_36 
REMARK   12  A    between atoms: C28_41  and  C29_42 
REMARK       I    between atoms: C29_42  and  N6_44 
REMARK   13  A    between atoms: N6_44  and  C30_46 
REMARK   14  A    between atoms: C30_46  and  C31_47 
ROOT
HETATM    1  C7  UNL     1       9.393 -18.664 -18.168  1.00  0.00     0.082 C 
ENDROOT
BRANCH   1   2
HETATM    2  C6  UNL     1       9.901 -20.026 -18.186  1.00  0.00     0.012 C 
BRANCH   2   3
HETATM    3  C5  UNL     1      10.774 -20.565 -19.233  1.00  0.00     0.013 C 
HETATM    4  C4  UNL     1      10.672 -22.041 -19.510  1.00  0.00     0.028 C 
HETATM    5  C3  UNL     1      11.590 -22.847 -18.609  1.00  0.00     0.126 C 
HETATM    6  N1  UNL     1      12.941 -22.588 -19.137  1.00  0.00    -0.352 N 
HETATM    7  C2  UNL     1      13.936 -23.581 -19.199  1.00  0.00     0.215 C 
HETATM    8  C35 UNL     1      13.149 -21.220 -19.586  1.00  0.00     0.126 C 
HETATM    9  C1  UNL     1      13.678 -24.973 -18.734  1.00  0.00     0.117 C 
HETATM   10  O1  UNL     1      15.066 -23.278 -19.660  1.00  0.00    -0.274 OA
HETATM   11  C34 UNL     1      12.231 -20.337 -18.791  1.00  0.00     0.028 C 
ENDBRANCH   2   3
ENDBRANCH   1   2
BRANCH   1  12
HETATM   12  N2  UNL     1       7.967 -18.529 -18.042  1.00  0.00    -0.323 N 
HETATM   13  C8  UNL     1       7.026 -17.712 -18.624  1.00  0.00     0.228 C 
HETATM   14  O2  UNL     1       7.281 -16.829 -19.443  1.00  0.00    -0.273 OA
ATOM     15  H2  UNL     1       7.564 -19.184 -17.372  1.00  0.00     0.169 HD
BRANCH  13  16
HETATM   16  C9  UNL     1       5.546 -17.837 -18.301  1.00  0.00     0.102 C 
HETATM   17  C10 UNL     1       4.825 -18.649 -19.288  1.00  0.00     0.030 C 
HETATM   18  C11 UNL     1       3.903 -17.974 -20.257  1.00  0.00     0.079 C 
HETATM   19  C18 UNL     1       3.321 -16.754 -19.698  1.00  0.00     0.224 C 
HETATM   20  O4  UNL     1       2.568 -15.962 -20.360  1.00  0.00    -0.273 OA
HETATM   21  N4  UNL     1       3.578 -16.385 -18.351  1.00  0.00    -0.346 N 
HETATM   22  C19 UNL     1       2.747 -15.846 -17.271  1.00  0.00     0.126 C 
HETATM   23  C22 UNL     1       4.944 -16.543 -17.875  1.00  0.00     0.100 C 
HETATM   24  C20 UNL     1       3.350 -16.613 -16.089  1.00  0.00     0.022 C 
HETATM   25  C21 UNL     1       4.819 -16.416 -16.361  1.00  0.00     0.028 C 
BRANCH  18  26
HETATM   26  C12 UNL     1       2.838 -18.959 -20.630  1.00  0.00     0.023 C 
BRANCH  26  27
HETATM   27  C13 UNL     1       2.235 -19.737 -19.498  1.00  0.00     0.103 C 
BRANCH  27  28
HETATM   28  C14 UNL     1       2.100 -21.184 -19.882  1.00  0.00     0.217 C 
HETATM   29  O3  UNL     1       1.241 -21.518 -20.716  1.00  0.00    -0.274 OA
HETATM   30  N3  UNL     1       2.941 -22.166 -19.307  1.00  0.00    -0.356 N 
ATOM     31  H3  UNL     1       3.645 -21.880 -18.627  1.00  0.00     0.162 HD
BRANCH  30  32
HETATM   32  C15 UNL     1       2.828 -23.564 -19.657  1.00  0.00     0.084 A 
HETATM   33  C16 UNL     1       4.208 -24.283 -19.748  1.00  0.00     0.027 A 
HETATM   34  C17 UNL     1       3.177 -24.576 -18.667  1.00  0.00     0.027 A 
ENDBRANCH  30  32
ENDBRANCH  27  28
ENDBRANCH  26  27
ENDBRANCH  18  26
ENDBRANCH  13  16
ENDBRANCH   1  12
BRANCH   1  35
HETATM   35  C23 UNL     1      10.013 -17.631 -17.322  1.00  0.00     0.166 C 
BRANCH  35  36
HETATM   36  O5  UNL     1      11.078 -17.047 -17.795  1.00  0.00    -0.344 OA
ATOM     37  H5  UNL     1      10.947 -16.228 -18.258  1.00  0.00     0.219 HD
ENDBRANCH  35  36
BRANCH  35  38
HETATM   38  N5  UNL     1       9.652 -17.159 -16.059  1.00  0.00    -0.347 N 
HETATM   39  C24 UNL     1       8.714 -16.049 -15.944  1.00  0.00     0.126 C 
HETATM   40  C25 UNL     1       7.876 -16.351 -14.688  1.00  0.00     0.020 C 
HETATM   41  C26 UNL     1       7.672 -17.840 -14.567  1.00  0.00     0.004 C 
HETATM   42  C27 UNL     1       8.981 -18.591 -14.306  1.00  0.00     0.035 C 
HETATM   43  C28 UNL     1      10.102 -17.695 -14.797  1.00  0.00     0.178 C 
BRANCH  43  44
HETATM   44  C29 UNL     1      11.434 -18.249 -14.706  1.00  0.00     0.240 C 
HETATM   45  O6  UNL     1      12.477 -17.615 -14.952  1.00  0.00    -0.271 OA
HETATM   46  N6  UNL     1      11.620 -19.629 -14.310  1.00  0.00    -0.359 N 
ATOM     47  H6  UNL     1      10.821 -20.224 -14.092  1.00  0.00     0.162 HD
BRANCH  46  48
HETATM   48  C30 UNL     1      12.971 -20.141 -14.230  1.00  0.00     0.127 C 
BRANCH  48  49
HETATM   49  C31 UNL     1      13.230 -21.370 -15.028  1.00  0.00     0.003 A 
HETATM   50  C32 UNL     1      14.480 -22.149 -14.552  1.00  0.00     0.007 A 
HETATM   51  C33 UNL     1      14.370 -21.571 -15.923  1.00  0.00     0.007 A 
ENDBRANCH  48  49
ENDBRANCH  46  48
ENDBRANCH  43  44
ENDBRANCH  35  38
ENDBRANCH   1  35
TORSDOF 14
ENDMDL
MODEL 5
REMARK VINA RESULT: -9.738945140      2.660      8.934
REMARK  14 active torsions:
REMARK  status: ('A' for Active; 'I' for Inactive)
REMARK       I    between atoms: C2_2  and  N1_4 
REMARK    1  A    between atoms: C5_7  and  C6_8 
REMARK    2  A    between atoms: C6_8  and  C7_9 
REMARK    3  A    between atoms: C7_9  and  N2_10 
REMARK    4  A    between atoms: C7_9  and  C23_33 
REMARK       I    between atoms: N2_10  and  C8_12 
REMARK    5  A    between atoms: C8_12  and  C9_14 
REMARK    6  A    between atoms: C11_16  and  C12_17 
REMARK    7  A    between atoms: C12_17  and  C13_18 
REMARK    8  A    between atoms: C13_18  and  C14_19 
REMARK       I    between atoms: C14_19  and  N3_21 
REMARK    9  A    between atoms: N3_21  and  C15_23 
REMARK   10  A    between atoms: C23_33  and  O5_34 
REMARK   11  A    between atoms: C23_33  and  N5_36 
REMARK   12  A    between atoms: C28_41  and  C29_42 
REMARK       I    between atoms: C29_42  and  N6_44 
REMARK   13  A    between atoms: N6_44  and  C30_46 
REMARK   14  A    between atoms: C30_46  and  C31_47 
ROOT
HETATM    1  C7  UNL     1      12.262 -20.641 -17.652  1.00  0.00     0.082 C 
ENDROOT
BRANCH   1   2
HETATM    2  C6  UNL     1      12.373 -22.087 -17.560  1.00  0.00     0.012 C 
BRANCH   2   3
HETATM    3  C5  UNL     1      12.606 -22.970 -18.707  1.00  0.00     0.013 C 
HETATM    4  C4  UNL     1      13.391 -24.228 -18.448  1.00  0.00     0.028 C 
HETATM    5  C3  UNL     1      14.886 -23.995 -18.580  1.00  0.00     0.126 C 
HETATM    6  N1  UNL     1      15.108 -23.857 -20.029  1.00  0.00    -0.352 N 
HETATM    7  C2  UNL     1      16.242 -24.381 -20.677  1.00  0.00     0.215 C 
HETATM    8  C35 UNL     1      14.054 -23.136 -20.725  1.00  0.00     0.126 C 
HETATM    9  C1  UNL     1      17.296 -25.120 -19.928  1.00  0.00     0.117 C 
HETATM   10  O1  UNL     1      16.360 -24.216 -21.919  1.00  0.00    -0.274 OA
HETATM   11  C34 UNL     1      13.431 -22.185 -19.743  1.00  0.00     0.028 C 
ENDBRANCH   2   3
ENDBRANCH   1   2
BRANCH   1  12
HETATM   12  N2  UNL     1      10.959 -20.094 -17.387  1.00  0.00    -0.323 N 
HETATM   13  C8  UNL     1      10.202 -19.099 -17.959  1.00  0.00     0.228 C 
HETATM   14  O2  UNL     1      10.568 -18.402 -18.907  1.00  0.00    -0.273 OA
ATOM     15  H2  UNL     1      10.493 -20.544 -16.600  1.00  0.00     0.169 HD
BRANCH  13  16
HETATM   16  C9  UNL     1       8.805 -18.767 -17.462  1.00  0.00     0.102 C 
HETATM   17  C10 UNL     1       7.794 -18.875 -18.520  1.00  0.00     0.030 C 
HETATM   18  C11 UNL     1       7.196 -17.626 -19.090  1.00  0.00     0.079 C 
HETATM   19  C18 UNL     1       7.165 -16.539 -18.112  1.00  0.00     0.224 C 
HETATM   20  O4  UNL     1       6.776 -15.353 -18.384  1.00  0.00    -0.273 OA
HETATM   21  N4  UNL     1       7.583 -16.763 -16.772  1.00  0.00    -0.346 N 
HETATM   22  C19 UNL     1       7.066 -16.349 -15.466  1.00  0.00     0.126 C 
HETATM   23  C22 UNL     1       8.783 -17.564 -16.584  1.00  0.00     0.100 C 
HETATM   24  C20 UNL     1       7.341 -17.631 -14.673  1.00  0.00     0.022 C 
HETATM   25  C21 UNL     1       8.758 -17.913 -15.099  1.00  0.00     0.028 C 
BRANCH  18  26
HETATM   26  C12 UNL     1       5.815 -17.961 -19.566  1.00  0.00     0.023 C 
BRANCH  26  27
HETATM   27  C13 UNL     1       4.687 -17.498 -18.695  1.00  0.00     0.103 C 
BRANCH  27  28
HETATM   28  C14 UNL     1       3.805 -18.660 -18.331  1.00  0.00     0.217 C 
HETATM   29  O3  UNL     1       2.878 -18.496 -17.520  1.00  0.00    -0.274 OA
HETATM   30  N3  UNL     1       4.019 -19.936 -18.905  1.00  0.00    -0.356 N 
ATOM     31  H3  UNL     1       4.780 -20.059 -19.574  1.00  0.00     0.162 HD
BRANCH  30  32
HETATM   32  C15 UNL     1       3.188 -21.070 -18.570  1.00  0.00     0.084 A 
HETATM   33  C16 UNL     1       2.471 -21.689 -19.809  1.00  0.00     0.027 A 
HETATM   34  C17 UNL     1       3.574 -22.398 -19.034  1.00  0.00     0.027 A 
ENDBRANCH  30  32
ENDBRANCH  27  28
ENDBRANCH  26  27
ENDBRANCH  18  26
ENDBRANCH  13  16
ENDBRANCH   1  12
BRANCH   1  35
HETATM   35  C23 UNL     1      13.252 -19.759 -17.012  1.00  0.00     0.166 C 
BRANCH  35  36
HETATM   36  O5  UNL     1      14.263 -19.384 -17.744  1.00  0.00    -0.344 OA
ATOM     37  H5  UNL     1      14.961 -20.017 -17.867  1.00  0.00     0.219 HD
ENDBRANCH  35  36
BRANCH  35  38
HETATM   38  N5  UNL     1      13.301 -19.244 -15.716  1.00  0.00    -0.347 N 
HETATM   39  C24 UNL     1      12.612 -17.997 -15.407  1.00  0.00     0.126 C 
HETATM   40  C25 UNL     1      12.081 -18.170 -13.972  1.00  0.00     0.020 C 
HETATM   41  C26 UNL     1      11.680 -19.607 -13.754  1.00  0.00     0.004 C 
HETATM   42  C27 UNL     1      12.876 -20.562 -13.804  1.00  0.00     0.035 C 
HETATM   43  C28 UNL     1      13.964 -19.856 -14.590  1.00  0.00     0.178 C 
BRANCH  43  44
HETATM   44  C29 UNL     1      15.170 -20.620 -14.816  1.00  0.00     0.240 C 
HETATM   45  O6  UNL     1      16.180 -20.183 -15.400  1.00  0.00    -0.271 OA
HETATM   46  N6  UNL     1      15.259 -21.991 -14.356  1.00  0.00    -0.359 N 
ATOM     47  H6  UNL     1      14.478 -22.432 -13.871  1.00  0.00     0.162 HD
BRANCH  46  48
HETATM   48  C30 UNL     1      16.485 -22.717 -14.603  1.00  0.00     0.127 C 
BRANCH  48  49
HETATM   49  C31 UNL     1      17.166 -23.242 -13.389  1.00  0.00     0.003 A 
HETATM   50  C32 UNL     1      17.454 -24.760 -13.465  1.00  0.00     0.007 A 
HETATM   51  C33 UNL     1      16.572 -24.164 -12.420  1.00  0.00     0.007 A 
ENDBRANCH  48  49
ENDBRANCH  46  48
ENDBRANCH  43  44
ENDBRANCH  35  38
ENDBRANCH   1  35
TORSDOF 14
ENDMDL
