MODEL 1
REMARK VINA RESULT: -6.303747938      0.000      0.000
REMARK  12 active torsions:
REMARK  status: ('A' for Active; 'I' for Inactive)
REMARK    1  A    between atoms: C2_2  and  C3_3 
REMARK    2  A    between atoms: C3_3  and  C5_5 
REMARK    3  A    between atoms: C6_8  and  O1_9 
REMARK    4  A    between atoms: C7_11  and  C8_12 
REMARK    5  A    between atoms: C8_12  and  C9_13 
REMARK    6  A    between atoms: C12_16  and  C13_17 
REMARK    7  A    between atoms: C16_20  and  O2_21 
REMARK    8  A    between atoms: C17_23  and  C18_24 
REMARK    9  A    between atoms: C18_24  and  C19_25 
REMARK   10  A    between atoms: C26_38  and  C27_39 
REMARK   11  A    between atoms: C27_39  and  C28_40 
REMARK   12  A    between atoms: C31_45  and  O5_46 
ROOT
HETATM    1  C5  UNL     1      -9.910  13.253  31.150  1.00  0.00     0.161 C 
HETATM    2  N1  UNL     1     -10.266  14.159  30.072  1.00  0.00    -0.358 N 
ATOM      3  H1  UNL     1      -9.741  15.034  30.063  1.00  0.00     0.162 HD
HETATM    4  C6  UNL     1     -11.213  14.037  29.040  1.00  0.00     0.139 C 
HETATM    5  C7  UNL     1     -11.464  12.905  28.130  1.00  0.00    -0.022 C 
HETATM    6  C12 UNL     1     -12.260  11.811  28.713  1.00  0.00     0.053 C 
HETATM    7  C16 UNL     1     -11.691  10.445  28.711  1.00  0.00     0.149 C 
HETATM    8  C17 UNL     1     -11.844   9.658  29.996  1.00  0.00     0.114 C 
HETATM    9  N2  UNL     1     -13.197   9.521  30.461  1.00  0.00    -0.352 N 
ATOM     10  H2  UNL     1     -13.795   8.957  29.858  1.00  0.00     0.163 HD
HETATM   11  C22 UNL     1     -13.830  10.024  31.587  1.00  0.00     0.240 C 
HETATM   12  O3  UNL     1     -14.868  10.767  31.395  1.00  0.00    -0.271 OA
HETATM   13  C23 UNL     1     -13.487   9.833  33.010  1.00  0.00     0.172 C 
HETATM   14  C24 UNL     1     -14.080   8.490  33.508  1.00  0.00     0.042 C 
HETATM   15  N3  UNL     1     -12.078   9.766  33.296  1.00  0.00    -0.346 N 
ATOM     16  H3  UNL     1     -11.560   9.043  32.796  1.00  0.00     0.163 HD
HETATM   17  C25 UNL     1     -11.324  10.562  34.168  1.00  0.00     0.241 C 
HETATM   18  O4  UNL     1     -10.501   9.895  34.904  1.00  0.00    -0.271 OA
HETATM   19  C26 UNL     1     -11.364  12.021  34.334  1.00  0.00     0.175 C 
HETATM   20  N4  UNL     1     -11.608  12.768  33.124  1.00  0.00    -0.359 N 
ATOM     21  H4  UNL     1     -12.581  12.699  32.823  1.00  0.00     0.162 HD
HETATM   22  C31 UNL     1     -10.861  13.551  32.274  1.00  0.00     0.135 C 
ENDROOT
BRANCH   1  23
HETATM   23  C3  UNL     1      -8.510  13.510  31.692  1.00  0.00     0.012 C 
HETATM   24  C4  UNL     1      -7.587  13.761  30.460  1.00  0.00     0.012 C 
BRANCH  23  25
HETATM   25  C2  UNL     1      -8.331  14.707  32.542  1.00  0.00     0.002 C 
HETATM   26  C1  UNL     1      -7.572  15.873  32.012  1.00  0.00     0.005 C 
ENDBRANCH  23  25
ENDBRANCH   1  23
BRANCH  22  27
HETATM   27  O5  UNL     1     -10.962  14.848  32.424  1.00  0.00    -0.348 OA
ATOM     28  H5  UNL     1     -11.874  15.104  32.349  1.00  0.00     0.219 HD
ENDBRANCH  22  27
BRANCH   4  29
HETATM   29  O1  UNL     1     -11.998  15.060  28.835  1.00  0.00    -0.346 OA
ATOM     30  H1  UNL     1     -12.869  14.874  28.507  1.00  0.00     0.219 HD
ENDBRANCH   4  29
BRANCH   5  31
HETATM   31  C8  UNL     1     -10.375  12.580  27.168  1.00  0.00     0.043 C 
BRANCH  31  32
HETATM   32  C9  UNL     1      -9.974  13.632  26.203  1.00  0.00    -0.019 C 
HETATM   33  C10 UNL     1     -11.028  13.760  25.090  1.00  0.00     0.010 C 
HETATM   34  C11 UNL     1      -8.639  13.682  25.624  1.00  0.00     0.010 C 
ENDBRANCH  31  32
ENDBRANCH   5  31
BRANCH  19  35
HETATM   35  C27 UNL     1     -12.385  12.520  35.329  1.00  0.00     0.038 C 
BRANCH  35  36
HETATM   36  C28 UNL     1     -12.840  11.614  36.389  1.00  0.00    -0.020 C 
HETATM   37  C29 UNL     1     -14.308  11.254  36.320  1.00  0.00     0.009 C 
HETATM   38  C30 UNL     1     -12.405  11.950  37.794  1.00  0.00     0.009 C 
ENDBRANCH  35  36
ENDBRANCH  19  35
BRANCH   6  39
HETATM   39  C13 UNL     1     -13.672  11.755  28.126  1.00  0.00    -0.012 C 
HETATM   40  C14 UNL     1     -13.735  11.966  26.659  1.00  0.00     0.010 C 
HETATM   41  C15 UNL     1     -14.574  12.766  28.808  1.00  0.00     0.010 C 
ENDBRANCH   6  39
BRANCH   7  42
HETATM   42  O2  UNL     1     -12.292   9.695  27.705  1.00  0.00    -0.393 OA
ATOM     43  H2  UNL     1     -12.067   8.779  27.815  1.00  0.00     0.210 HD
ENDBRANCH   7  42
BRANCH   8  44
HETATM   44  C18 UNL     1     -11.312   8.268  29.717  1.00  0.00     0.031 C 
BRANCH  44  45
HETATM   45  C19 UNL     1     -12.031   7.153  30.383  1.00  0.00    -0.021 C 
HETATM   46  C20 UNL     1     -11.202   6.810  31.640  1.00  0.00     0.009 C 
HETATM   47  C21 UNL     1     -12.091   5.895  29.546  1.00  0.00     0.009 C 
ENDBRANCH  44  45
ENDBRANCH   8  44
TORSDOF 12
ENDMDL
MODEL 2
REMARK VINA RESULT: -6.265540620      1.934      3.106
REMARK  12 active torsions:
REMARK  status: ('A' for Active; 'I' for Inactive)
REMARK    1  A    between atoms: C2_2  and  C3_3 
REMARK    2  A    between atoms: C3_3  and  C5_5 
REMARK    3  A    between atoms: C6_8  and  O1_9 
REMARK    4  A    between atoms: C7_11  and  C8_12 
REMARK    5  A    between atoms: C8_12  and  C9_13 
REMARK    6  A    between atoms: C12_16  and  C13_17 
REMARK    7  A    between atoms: C16_20  and  O2_21 
REMARK    8  A    between atoms: C17_23  and  C18_24 
REMARK    9  A    between atoms: C18_24  and  C19_25 
REMARK   10  A    between atoms: C26_38  and  C27_39 
REMARK   11  A    between atoms: C27_39  and  C28_40 
REMARK   12  A    between atoms: C31_45  and  O5_46 
ROOT
HETATM    1  C5  UNL     1     -11.322  11.943  33.599  1.00  0.00     0.161 C 
HETATM    2  N1  UNL     1     -11.359  13.273  33.015  1.00  0.00    -0.358 N 
ATOM      3  H1  UNL     1     -10.948  14.003  33.597  1.00  0.00     0.162 HD
HETATM    4  C6  UNL     1     -11.866  13.725  31.784  1.00  0.00     0.139 C 
HETATM    5  C7  UNL     1     -11.673  13.169  30.432  1.00  0.00    -0.022 C 
HETATM    6  C12 UNL     1     -12.518  12.004  30.120  1.00  0.00     0.053 C 
HETATM    7  C16 UNL     1     -11.860  10.750  29.689  1.00  0.00     0.149 C 
HETATM    8  C17 UNL     1     -12.380   9.474  30.316  1.00  0.00     0.114 C 
HETATM    9  N2  UNL     1     -13.791   9.255  30.152  1.00  0.00    -0.352 N 
ATOM     10  H2  UNL     1     -14.083   9.088  29.190  1.00  0.00     0.163 HD
HETATM   11  C22 UNL     1     -14.824   9.232  31.078  1.00  0.00     0.240 C 
HETATM   12  O3  UNL     1     -15.793  10.066  30.896  1.00  0.00    -0.271 OA
HETATM   13  C23 UNL     1     -14.988   8.374  32.267  1.00  0.00     0.172 C 
HETATM   14  C24 UNL     1     -15.590   7.010  31.843  1.00  0.00     0.042 C 
HETATM   15  N3  UNL     1     -13.770   8.061  32.967  1.00  0.00    -0.346 N 
ATOM     16  H3  UNL     1     -13.044   7.610  32.410  1.00  0.00     0.163 HD
HETATM   17  C25 UNL     1     -13.449   8.294  34.311  1.00  0.00     0.241 C 
HETATM   18  O4  UNL     1     -12.879   7.294  34.893  1.00  0.00    -0.271 OA
HETATM   19  C26 UNL     1     -13.681   9.507  35.106  1.00  0.00     0.175 C 
HETATM   20  N4  UNL     1     -13.553  10.748  34.380  1.00  0.00    -0.359 N 
ATOM     21  H4  UNL     1     -14.346  10.910  33.759  1.00  0.00     0.162 HD
HETATM   22  C31 UNL     1     -12.631  11.768  34.315  1.00  0.00     0.135 C 
ENDROOT
BRANCH   1  23
HETATM   23  C3  UNL     1     -10.233  11.798  34.655  1.00  0.00     0.012 C 
HETATM   24  C4  UNL     1      -9.544  13.192  34.787  1.00  0.00     0.012 C 
BRANCH  23  25
HETATM   25  C2  UNL     1     -10.671  11.467  36.027  1.00  0.00     0.002 C 
HETATM   26  C1  UNL     1     -10.424  10.101  36.563  1.00  0.00     0.005 C 
ENDBRANCH  23  25
ENDBRANCH   1  23
BRANCH  22  27
HETATM   27  O5  UNL     1     -12.899  12.852  35.000  1.00  0.00    -0.348 OA
ATOM     28  H5  UNL     1     -13.716  13.226  34.690  1.00  0.00     0.219 HD
ENDBRANCH  22  27
BRANCH   4  29
HETATM   29  O1  UNL     1     -12.621  14.790  31.813  1.00  0.00    -0.346 OA
ATOM     30  H1  UNL     1     -13.057  15.028  31.004  1.00  0.00     0.219 HD
ENDBRANCH   4  29
BRANCH   5  31
HETATM   31  C8  UNL     1     -10.290  13.234  29.885  1.00  0.00     0.043 C 
BRANCH  31  32
HETATM   32  C9  UNL     1      -9.362  14.226  30.479  1.00  0.00    -0.019 C 
HETATM   33  C10 UNL     1      -9.330  15.502  29.622  1.00  0.00     0.010 C 
HETATM   34  C11 UNL     1      -8.010  13.872  30.886  1.00  0.00     0.010 C 
ENDBRANCH  31  32
ENDBRANCH   5  31
BRANCH  19  35
HETATM   35  C27 UNL     1     -15.029   9.576  35.784  1.00  0.00     0.038 C 
BRANCH  35  36
HETATM   36  C28 UNL     1     -15.129  10.235  37.091  1.00  0.00    -0.020 C 
HETATM   37  C29 UNL     1     -15.851  11.566  37.069  1.00  0.00     0.009 C 
HETATM   38  C30 UNL     1     -13.867  10.290  37.915  1.00  0.00     0.009 C 
ENDBRANCH  35  36
ENDBRANCH  19  35
BRANCH   6  39
HETATM   39  C13 UNL     1     -13.621  12.348  29.117  1.00  0.00    -0.012 C 
HETATM   40  C14 UNL     1     -13.165  13.149  27.955  1.00  0.00     0.010 C 
HETATM   41  C15 UNL     1     -14.757  13.081  29.805  1.00  0.00     0.010 C 
ENDBRANCH   6  39
BRANCH   7  42
HETATM   42  O2  UNL     1     -11.995  10.607  28.311  1.00  0.00    -0.393 OA
ATOM     43  H2  UNL     1     -11.366   9.968  27.996  1.00  0.00     0.210 HD
ENDBRANCH   7  42
BRANCH   8  44
HETATM   44  C18 UNL     1     -11.657   8.331  29.635  1.00  0.00     0.031 C 
BRANCH  44  45
HETATM   45  C19 UNL     1     -11.968   6.972  30.145  1.00  0.00    -0.021 C 
HETATM   46  C20 UNL     1     -11.121   6.799  31.424  1.00  0.00     0.009 C 
HETATM   47  C21 UNL     1     -11.554   5.869  29.197  1.00  0.00     0.009 C 
ENDBRANCH  44  45
ENDBRANCH   8  44
TORSDOF 12
ENDMDL
MODEL 3
REMARK VINA RESULT: -6.009671402      7.906     13.941
REMARK  12 active torsions:
REMARK  status: ('A' for Active; 'I' for Inactive)
REMARK    1  A    between atoms: C2_2  and  C3_3 
REMARK    2  A    between atoms: C3_3  and  C5_5 
REMARK    3  A    between atoms: C6_8  and  O1_9 
REMARK    4  A    between atoms: C7_11  and  C8_12 
REMARK    5  A    between atoms: C8_12  and  C9_13 
REMARK    6  A    between atoms: C12_16  and  C13_17 
REMARK    7  A    between atoms: C16_20  and  O2_21 
REMARK    8  A    between atoms: C17_23  and  C18_24 
REMARK    9  A    between atoms: C18_24  and  C19_25 
REMARK   10  A    between atoms: C26_38  and  C27_39 
REMARK   11  A    between atoms: C27_39  and  C28_40 
REMARK   12  A    between atoms: C31_45  and  O5_46 
ROOT
HETATM    1  C5  UNL     1      -6.490  15.146  22.725  1.00  0.00     0.161 C 
HETATM    2  N1  UNL     1      -7.164  15.880  23.783  1.00  0.00    -0.358 N 
ATOM      3  H1  UNL     1      -8.182  15.819  23.757  1.00  0.00     0.162 HD
HETATM    4  C6  UNL     1      -6.653  16.660  24.834  1.00  0.00     0.139 C 
HETATM    5  C7  UNL     1      -5.564  16.357  25.780  1.00  0.00    -0.022 C 
HETATM    6  C12 UNL     1      -4.207  16.557  25.242  1.00  0.00     0.053 C 
HETATM    7  C16 UNL     1      -3.260  15.421  25.274  1.00  0.00     0.149 C 
HETATM    8  C17 UNL     1      -2.449  15.194  24.016  1.00  0.00     0.114 C 
HETATM    9  N2  UNL     1      -1.686  16.330  23.578  1.00  0.00    -0.352 N 
ATOM     10  H2  UNL     1      -0.930  16.598  24.207  1.00  0.00     0.163 HD
HETATM   11  C22 UNL     1      -1.801  17.126  22.448  1.00  0.00     0.240 C 
HETATM   12  O3  UNL     1      -1.985  18.390  22.637  1.00  0.00    -0.271 OA
HETATM   13  C23 UNL     1      -1.743  16.736  21.026  1.00  0.00     0.172 C 
HETATM   14  C24 UNL     1      -0.262  16.641  20.577  1.00  0.00     0.042 C 
HETATM   15  N3  UNL     1      -2.326  15.457  20.718  1.00  0.00    -0.346 N 
ATOM     16  H3  UNL     1      -1.942  14.662  21.230  1.00  0.00     0.163 HD
HETATM   17  C25 UNL     1      -3.351  15.159  19.810  1.00  0.00     0.241 C 
HETATM   18  O4  UNL     1      -3.116  14.122  19.080  1.00  0.00    -0.271 OA
HETATM   19  C26 UNL     1      -4.619  15.870  19.603  1.00  0.00     0.175 C 
HETATM   20  N4  UNL     1      -5.208  16.431  20.795  1.00  0.00    -0.359 N 
ATOM     21  H4  UNL     1      -4.707  17.260  21.115  1.00  0.00     0.162 HD
HETATM   22  C31 UNL     1      -6.276  16.130  21.609  1.00  0.00     0.135 C 
ENDROOT
BRANCH   1  23
HETATM   23  C3  UNL     1      -7.348  14.026  22.152  1.00  0.00     0.012 C 
HETATM   24  C4  UNL     1      -8.715  14.075  22.901  1.00  0.00     0.012 C 
BRANCH  23  25
HETATM   25  C2  UNL     1      -7.704  14.121  20.720  1.00  0.00     0.002 C 
HETATM   26  C1  UNL     1      -9.137  14.221  20.329  1.00  0.00     0.005 C 
ENDBRANCH  23  25
ENDBRANCH   1  23
BRANCH  22  27
HETATM   27  O5  UNL     1      -7.374  16.820  21.424  1.00  0.00    -0.348 OA
ATOM     28  H5  UNL     1      -7.749  17.046  22.267  1.00  0.00     0.219 HD
ENDBRANCH  22  27
BRANCH   4  29
HETATM   29  O1  UNL     1      -7.202  17.830  25.022  1.00  0.00    -0.346 OA
ATOM     30  H1  UNL     1      -7.113  18.464  24.321  1.00  0.00     0.219 HD
ENDBRANCH   4  29
BRANCH   5  31
HETATM   31  C8  UNL     1      -5.812  15.239  26.733  1.00  0.00     0.043 C 
BRANCH  31  32
HETATM   32  C9  UNL     1      -6.945  15.382  27.679  1.00  0.00    -0.019 C 
HETATM   33  C10 UNL     1      -6.595  16.406  28.772  1.00  0.00     0.010 C 
HETATM   34  C11 UNL     1      -7.603  14.230  28.276  1.00  0.00     0.010 C 
ENDBRANCH  31  32
ENDBRANCH   5  31
BRANCH  19  35
HETATM   35  C27 UNL     1      -4.556  17.009  18.612  1.00  0.00     0.038 C 
BRANCH  35  36
HETATM   36  C28 UNL     1      -3.559  16.954  17.538  1.00  0.00    -0.020 C 
HETATM   37  C29 UNL     1      -2.441  17.966  17.666  1.00  0.00     0.009 C 
HETATM   38  C30 UNL     1      -4.092  16.876  16.129  1.00  0.00     0.009 C 
ENDBRANCH  35  36
ENDBRANCH  19  35
BRANCH   6  39
HETATM   39  C13 UNL     1      -3.524  17.782  25.855  1.00  0.00    -0.012 C 
HETATM   40  C14 UNL     1      -3.701  17.913  27.322  1.00  0.00     0.010 C 
HETATM   41  C15 UNL     1      -4.007  19.054  25.185  1.00  0.00     0.010 C 
ENDBRANCH   6  39
BRANCH   7  42
HETATM   42  O2  UNL     1      -2.351  15.604  26.312  1.00  0.00    -0.393 OA
ATOM     43  H2  UNL     1      -1.560  15.110  26.131  1.00  0.00     0.210 HD
ENDBRANCH   7  42
BRANCH   8  44
HETATM   44  C18 UNL     1      -1.473  14.078  24.325  1.00  0.00     0.031 C 
BRANCH  44  45
HETATM   45  C19 UNL     1      -0.541  13.710  23.230  1.00  0.00    -0.021 C 
HETATM   46  C20 UNL     1      -0.379  12.176  23.314  1.00  0.00     0.009 C 
HETATM   47  C21 UNL     1       0.840  14.301  23.396  1.00  0.00     0.009 C 
ENDBRANCH  44  45
ENDBRANCH   8  44
TORSDOF 12
ENDMDL
MODEL 4
REMARK VINA RESULT: -5.989649237      2.275      6.974
REMARK  12 active torsions:
REMARK  status: ('A' for Active; 'I' for Inactive)
REMARK    1  A    between atoms: C2_2  and  C3_3 
REMARK    2  A    between atoms: C3_3  and  C5_5 
REMARK    3  A    between atoms: C6_8  and  O1_9 
REMARK    4  A    between atoms: C7_11  and  C8_12 
REMARK    5  A    between atoms: C8_12  and  C9_13 
REMARK    6  A    between atoms: C12_16  and  C13_17 
REMARK    7  A    between atoms: C16_20  and  O2_21 
REMARK    8  A    between atoms: C17_23  and  C18_24 
REMARK    9  A    between atoms: C18_24  and  C19_25 
REMARK   10  A    between atoms: C26_38  and  C27_39 
REMARK   11  A    between atoms: C27_39  and  C28_40 
REMARK   12  A    between atoms: C31_45  and  O5_46 
ROOT
HETATM    1  C5  UNL     1     -12.408  10.230  34.770  1.00  0.00     0.161 C 
HETATM    2  N1  UNL     1     -11.750   8.992  35.153  1.00  0.00    -0.358 N 
ATOM      3  H1  UNL     1     -11.312   9.013  36.074  1.00  0.00     0.162 HD
HETATM    4  C6  UNL     1     -11.615   7.771  34.471  1.00  0.00     0.139 C 
HETATM    5  C7  UNL     1     -12.636   6.975  33.766  1.00  0.00    -0.022 C 
HETATM    6  C12 UNL     1     -12.969   7.460  32.415  1.00  0.00     0.053 C 
HETATM    7  C16 UNL     1     -14.382   7.777  32.107  1.00  0.00     0.149 C 
HETATM    8  C17 UNL     1     -14.625   9.064  31.347  1.00  0.00     0.114 C 
HETATM    9  N2  UNL     1     -13.916   9.170  30.101  1.00  0.00    -0.352 N 
ATOM     10  H2  UNL     1     -14.217   8.506  29.387  1.00  0.00     0.163 HD
HETATM   11  C22 UNL     1     -12.895  10.019  29.701  1.00  0.00     0.240 C 
HETATM   12  O3  UNL     1     -11.797   9.468  29.305  1.00  0.00    -0.271 OA
HETATM   13  C23 UNL     1     -12.875  11.493  29.658  1.00  0.00     0.172 C 
HETATM   14  C24 UNL     1     -13.539  11.981  28.345  1.00  0.00     0.042 C 
HETATM   15  N3  UNL     1     -13.592  12.146  30.721  1.00  0.00    -0.346 N 
ATOM     16  H3  UNL     1     -14.577  11.894  30.810  1.00  0.00     0.163 HD
HETATM   17  C25 UNL     1     -13.116  13.080  31.651  1.00  0.00     0.241 C 
HETATM   18  O4  UNL     1     -13.906  14.084  31.834  1.00  0.00    -0.271 OA
HETATM   19  C26 UNL     1     -11.863  13.047  32.417  1.00  0.00     0.175 C 
HETATM   20  N4  UNL     1     -11.427  11.732  32.821  1.00  0.00    -0.359 N 
ATOM     21  H4  UNL     1     -11.053  11.197  32.037  1.00  0.00     0.162 HD
HETATM   22  C31 UNL     1     -11.388  11.018  33.996  1.00  0.00     0.135 C 
ENDROOT
BRANCH   1  23
HETATM   23  C3  UNL     1     -12.790  11.085  35.971  1.00  0.00     0.012 C 
HETATM   24  C4  UNL     1     -14.347  11.057  36.069  1.00  0.00     0.012 C 
BRANCH  23  25
HETATM   25  C2  UNL     1     -12.326  10.624  37.297  1.00  0.00     0.002 C 
HETATM   26  C1  UNL     1     -11.186  11.321  37.955  1.00  0.00     0.005 C 
ENDBRANCH  23  25
ENDBRANCH   1  23
BRANCH  22  27
HETATM   27  O5  UNL     1     -10.239  10.973  34.623  1.00  0.00    -0.348 OA
ATOM     28  H5  UNL     1      -9.777  11.793  34.492  1.00  0.00     0.219 HD
ENDBRANCH  22  27
BRANCH   4  29
HETATM   29  O1  UNL     1     -10.422   7.241  34.440  1.00  0.00    -0.346 OA
ATOM     30  H1  UNL     1     -10.294   6.442  34.936  1.00  0.00     0.219 HD
ENDBRANCH   4  29
BRANCH   5  31
HETATM   31  C8  UNL     1     -13.708   6.382  34.612  1.00  0.00     0.043 C 
BRANCH  31  32
HETATM   32  C9  UNL     1     -14.288   7.229  35.681  1.00  0.00    -0.019 C 
HETATM   33  C10 UNL     1     -13.932   6.655  37.063  1.00  0.00     0.010 C 
HETATM   34  C11 UNL     1     -15.681   7.648  35.667  1.00  0.00     0.010 C 
ENDBRANCH  31  32
ENDBRANCH   5  31
BRANCH  19  35
HETATM   35  C27 UNL     1     -10.675  13.667  31.719  1.00  0.00     0.038 C 
BRANCH  35  36
HETATM   36  C28 UNL     1      -9.684  14.391  32.522  1.00  0.00    -0.020 C 
HETATM   37  C29 UNL     1      -8.324  13.728  32.588  1.00  0.00     0.009 C 
HETATM   38  C30 UNL     1     -10.141  14.879  33.875  1.00  0.00     0.009 C 
ENDBRANCH  35  36
ENDBRANCH  19  35
BRANCH   6  39
HETATM   39  C13 UNL     1     -12.427   6.533  31.325  1.00  0.00    -0.012 C 
HETATM   40  C14 UNL     1     -12.364   5.102  31.711  1.00  0.00     0.010 C 
HETATM   41  C15 UNL     1     -11.049   6.984  30.878  1.00  0.00     0.010 C 
ENDBRANCH   6  39
BRANCH   7  42
HETATM   42  O2  UNL     1     -14.933   6.750  31.348  1.00  0.00    -0.393 OA
ATOM     43  H2  UNL     1     -15.411   6.158  31.916  1.00  0.00     0.210 HD
ENDBRANCH   7  42
BRANCH   8  44
HETATM   44  C18 UNL     1     -16.107   9.110  31.037  1.00  0.00     0.031 C 
BRANCH  44  45
HETATM   45  C19 UNL     1     -16.995   8.445  32.022  1.00  0.00    -0.021 C 
HETATM   46  C20 UNL     1     -18.194   7.907  31.212  1.00  0.00     0.009 C 
HETATM   47  C21 UNL     1     -17.561   9.395  33.054  1.00  0.00     0.009 C 
ENDBRANCH  44  45
ENDBRANCH   8  44
TORSDOF 12
ENDMDL
MODEL 5
REMARK VINA RESULT: -5.931401325      1.291      1.512
REMARK  12 active torsions:
REMARK  status: ('A' for Active; 'I' for Inactive)
REMARK    1  A    between atoms: C2_2  and  C3_3 
REMARK    2  A    between atoms: C3_3  and  C5_5 
REMARK    3  A    between atoms: C6_8  and  O1_9 
REMARK    4  A    between atoms: C7_11  and  C8_12 
REMARK    5  A    between atoms: C8_12  and  C9_13 
REMARK    6  A    between atoms: C12_16  and  C13_17 
REMARK    7  A    between atoms: C16_20  and  O2_21 
REMARK    8  A    between atoms: C17_23  and  C18_24 
REMARK    9  A    between atoms: C18_24  and  C19_25 
REMARK   10  A    between atoms: C26_38  and  C27_39 
REMARK   11  A    between atoms: C27_39  and  C28_40 
REMARK   12  A    between atoms: C31_45  and  O5_46 
ROOT
HETATM    1  C5  UNL     1     -10.561  12.753  32.730  1.00  0.00     0.161 C 
HETATM    2  N1  UNL     1     -10.747  13.846  31.791  1.00  0.00    -0.358 N 
ATOM      3  H1  UNL     1     -10.260  14.706  32.040  1.00  0.00     0.162 HD
HETATM    4  C6  UNL     1     -11.486  13.919  30.597  1.00  0.00     0.139 C 
HETATM    5  C7  UNL     1     -11.528  12.977  29.464  1.00  0.00    -0.022 C 
HETATM    6  C12 UNL     1     -12.378  11.793  29.679  1.00  0.00     0.053 C 
HETATM    7  C16 UNL     1     -11.772  10.452  29.530  1.00  0.00     0.149 C 
HETATM    8  C17 UNL     1     -12.127   9.438  30.597  1.00  0.00     0.114 C 
HETATM    9  N2  UNL     1     -13.537   9.216  30.770  1.00  0.00    -0.352 N 
ATOM     10  H2  UNL     1     -13.995   8.774  29.974  1.00  0.00     0.163 HD
HETATM   11  C22 UNL     1     -14.380   9.499  31.834  1.00  0.00     0.240 C 
HETATM   12  O3  UNL     1     -15.391  10.264  31.593  1.00  0.00    -0.271 OA
HETATM   13  C23 UNL     1     -14.295   9.044  33.235  1.00  0.00     0.172 C 
HETATM   14  C24 UNL     1     -14.922   7.632  33.360  1.00  0.00     0.042 C 
HETATM   15  N3  UNL     1     -12.960   8.925  33.759  1.00  0.00    -0.346 N 
ATOM     16  H3  UNL     1     -12.335   8.309  33.239  1.00  0.00     0.163 HD
HETATM   17  C25 UNL     1     -12.405   9.544  34.888  1.00  0.00     0.241 C 
HETATM   18  O4  UNL     1     -11.706   8.751  35.627  1.00  0.00    -0.271 OA
HETATM   19  C26 UNL     1     -12.525  10.946  35.309  1.00  0.00     0.175 C 
HETATM   20  N4  UNL     1     -12.572  11.906  34.233  1.00  0.00    -0.359 N 
ATOM     21  H4  UNL     1     -13.470  11.895  33.750  1.00  0.00     0.162 HD
HETATM   22  C31 UNL     1     -11.711  12.835  33.695  1.00  0.00     0.135 C 
ENDROOT
BRANCH   1  23
HETATM   23  C3  UNL     1      -9.293  12.905  33.560  1.00  0.00     0.012 C 
HETATM   24  C4  UNL     1      -8.173  13.392  32.589  1.00  0.00     0.012 C 
BRANCH  23  25
HETATM   25  C2  UNL     1      -9.315  13.915  34.639  1.00  0.00     0.002 C 
HETATM   26  C1  UNL     1      -8.629  15.219  34.434  1.00  0.00     0.005 C 
ENDBRANCH  23  25
ENDBRANCH   1  23
BRANCH  22  27
HETATM   27  O5  UNL     1     -11.882  14.082  34.059  1.00  0.00    -0.348 OA
ATOM     28  H5  UNL     1     -12.774  14.346  33.866  1.00  0.00     0.219 HD
ENDBRANCH  22  27
BRANCH   4  29
HETATM   29  O1  UNL     1     -12.256  14.962  30.443  1.00  0.00    -0.346 OA
ATOM     30  H1  UNL     1     -12.830  14.964  29.686  1.00  0.00     0.219 HD
ENDBRANCH   4  29
BRANCH   5  31
HETATM   31  C8  UNL     1     -10.272  12.838  28.676  1.00  0.00     0.043 C 
BRANCH  31  32
HETATM   32  C9  UNL     1     -10.016  13.836  27.610  1.00  0.00    -0.019 C 
HETATM   33  C10 UNL     1     -10.101  13.166  26.227  1.00  0.00     0.010 C 
HETATM   34  C11 UNL     1      -8.873  14.736  27.651  1.00  0.00     0.010 C 
ENDBRANCH  31  32
ENDBRANCH   5  31
BRANCH  19  35
HETATM   35  C27 UNL     1     -13.727  11.250  36.172  1.00  0.00     0.038 C 
BRANCH  35  36
HETATM   36  C28 UNL     1     -13.512  11.619  37.575  1.00  0.00    -0.020 C 
HETATM   37  C29 UNL     1     -14.043  12.985  37.954  1.00  0.00     0.009 C 
HETATM   38  C30 UNL     1     -12.131  11.374  38.132  1.00  0.00     0.009 C 
ENDBRANCH  35  36
ENDBRANCH  19  35
BRANCH   6  39
HETATM   39  C13 UNL     1     -13.657  11.848  28.840  1.00  0.00    -0.012 C 
HETATM   40  C14 UNL     1     -13.455  12.294  27.440  1.00  0.00     0.010 C 
HETATM   41  C15 UNL     1     -14.689  12.745  29.498  1.00  0.00     0.010 C 
ENDBRANCH   6  39
BRANCH   7  42
HETATM   42  O2  UNL     1     -12.153   9.903  28.309  1.00  0.00    -0.393 OA
ATOM     43  H2  UNL     1     -13.013   9.508  28.395  1.00  0.00     0.210 HD
ENDBRANCH   7  42
BRANCH   8  44
HETATM   44  C18 UNL     1     -11.506   8.124  30.170  1.00  0.00     0.031 C 
BRANCH  44  45
HETATM   45  C19 UNL     1     -12.126   6.900  30.733  1.00  0.00    -0.021 C 
HETATM   46  C20 UNL     1     -11.225   6.476  31.913  1.00  0.00     0.009 C 
HETATM   47  C21 UNL     1     -12.147   5.740  29.765  1.00  0.00     0.009 C 
ENDBRANCH  44  45
ENDBRANCH   8  44
TORSDOF 12
ENDMDL
