MODEL 1
REMARK VINA RESULT: -9.758578986      0.000      0.000
REMARK  11 active torsions:
REMARK  status: ('A' for Active; 'I' for Inactive)
REMARK    1  A    between atoms: C2_2  and  C3_3 
REMARK    2  A    between atoms: C3_3  and  C4_4 
REMARK    3  A    between atoms: C4_4  and  C5_5 
REMARK    4  A    between atoms: C5_5  and  C6_6 
REMARK    5  A    between atoms: C6_6  and  C7_7 
REMARK    6  A    between atoms: C9_12  and  C10_13 
REMARK    7  A    between atoms: C10_13  and  C11_14 
REMARK    8  A    between atoms: C15_21  and  C16_22 
REMARK    9  A    between atoms: C16_22  and  C17_23 
REMARK   10  A    between atoms: N4_35  and  C27_37 
REMARK   11  A    between atoms: C27_37  and  O3_39 
ROOT
HETATM    1  C7  UNL     1      -5.436  17.275  25.785  1.00  0.00     0.176 C 
HETATM    2  N1  UNL     1      -6.018  16.921  24.522  1.00  0.00    -0.346 N 
ATOM      3  H1  UNL     1      -5.688  17.447  23.713  1.00  0.00     0.163 HD
HETATM    4  C8  UNL     1      -6.997  15.928  24.263  1.00  0.00     0.241 C 
HETATM    5  O1  UNL     1      -6.702  14.991  23.424  1.00  0.00    -0.271 OA
HETATM    6  C9  UNL     1      -8.342  15.820  24.843  1.00  0.00     0.177 C 
HETATM    7  N2  UNL     1      -8.298  14.800  25.840  1.00  0.00    -0.344 N 
ATOM      8  H2  UNL     1      -7.918  13.905  25.530  1.00  0.00     0.163 HD
HETATM    9  C14 UNL     1      -8.696  14.845  27.168  1.00  0.00     0.250 C 
HETATM   10  O2  UNL     1      -9.270  13.794  27.630  1.00  0.00    -0.268 OA
HETATM   11  C15 UNL     1      -8.526  16.003  28.137  1.00  0.00     0.038 C 
HETATM   12  C29 UNL     1      -7.173  16.230  28.591  1.00  0.00     0.058 C 
HETATM   13  C30 UNL     1      -6.163  15.144  28.198  1.00  0.00     0.044 C 
HETATM   14  C31 UNL     1      -6.934  16.306  30.115  1.00  0.00     0.044 C 
HETATM   15  N5  UNL     1      -6.597  17.502  28.092  1.00  0.00    -0.346 N 
ATOM     16  H5  UNL     1      -6.351  18.190  28.805  1.00  0.00     0.163 HD
HETATM   17  C32 UNL     1      -6.350  17.878  26.767  1.00  0.00     0.241 C 
HETATM   18  O4  UNL     1      -7.000  18.900  26.308  1.00  0.00    -0.271 OA
ENDROOT
BRANCH  11  19
HETATM   19  C16 UNL     1      -9.766  16.025  28.888  1.00  0.00     0.030 C 
BRANCH  19  20
HETATM   20  C17 UNL     1     -10.018  15.311  30.110  1.00  0.00     0.009 A 
HETATM   21  C18 UNL     1      -9.287  15.448  31.271  1.00  0.00     0.029 A 
HETATM   22  C19 UNL     1      -9.566  14.626  32.329  1.00  0.00    -0.009 A 
HETATM   23  C20 UNL     1      -8.861  14.698  33.533  1.00  0.00     0.014 A 
HETATM   24  C25 UNL     1     -10.550  13.670  32.271  1.00  0.00     0.044 A 
HETATM   25  C21 UNL     1      -9.146  13.854  34.592  1.00  0.00     0.007 A 
HETATM   26  C22 UNL     1     -10.141  12.906  34.495  1.00  0.00    -0.060 A 
HETATM   27  C23 UNL     1     -10.492  11.963  35.588  1.00  0.00     0.048 C 
HETATM   28  C24 UNL     1     -10.844  12.819  33.322  1.00  0.00     0.037 A 
HETATM   29  N3  UNL     1     -11.275  13.525  31.143  1.00  0.00    -0.341 N 
HETATM   30  C26 UNL     1     -10.999  14.330  30.115  1.00  0.00     0.114 A 
ATOM     31  H3  UNL     1     -12.011  12.821  31.078  1.00  0.00     0.167 HD
HETATM   32  N4  UNL     1     -11.797  14.191  29.080  1.00  0.00    -0.350 N 
ATOM     33  H4  UNL     1     -11.651  14.831  28.300  1.00  0.00     0.163 HD
BRANCH  32  34
HETATM   34  C27 UNL     1     -12.839  13.245  28.937  1.00  0.00     0.214 C 
HETATM   35  C28 UNL     1     -13.444  13.457  27.542  1.00  0.00     0.063 C 
BRANCH  34  36
HETATM   36  O3  UNL     1     -12.216  11.972  28.852  1.00  0.00    -0.377 OA
ATOM     37  H3  UNL     1     -12.841  11.344  29.193  1.00  0.00     0.212 HD
ENDBRANCH  34  36
ENDBRANCH  32  34
ENDBRANCH  19  20
ENDBRANCH  11  19
BRANCH   6  38
HETATM   38  C10 UNL     1      -9.402  15.694  23.806  1.00  0.00     0.038 C 
BRANCH  38  39
HETATM   39  C11 UNL     1      -9.995  14.389  23.486  1.00  0.00    -0.020 C 
HETATM   40  C12 UNL     1     -11.178  14.063  24.358  1.00  0.00     0.009 C 
HETATM   41  C13 UNL     1     -10.512  14.385  22.019  1.00  0.00     0.009 C 
ENDBRANCH  38  39
ENDBRANCH   6  38
BRANCH   1  42
HETATM   42  C6  UNL     1      -4.305  18.249  25.510  1.00  0.00     0.035 C 
BRANCH  42  43
HETATM   43  C5  UNL     1      -3.877  18.356  24.087  1.00  0.00     0.002 C 
BRANCH  43  44
HETATM   44  C4  UNL     1      -2.462  17.780  23.883  1.00  0.00     0.000 C 
BRANCH  44  45
HETATM   45  C3  UNL     1      -2.731  16.375  23.326  1.00  0.00    -0.000 C 
BRANCH  45  46
HETATM   46  C2  UNL     1      -2.428  15.290  24.321  1.00  0.00    -0.005 C 
HETATM   47  C1  UNL     1      -1.303  14.432  23.728  1.00  0.00     0.005 C 
ENDBRANCH  45  46
ENDBRANCH  44  45
ENDBRANCH  43  44
ENDBRANCH  42  43
ENDBRANCH   1  42
TORSDOF 11
ENDMDL
MODEL 2
REMARK VINA RESULT: -9.526642932      3.514      6.857
REMARK  11 active torsions:
REMARK  status: ('A' for Active; 'I' for Inactive)
REMARK    1  A    between atoms: C2_2  and  C3_3 
REMARK    2  A    between atoms: C3_3  and  C4_4 
REMARK    3  A    between atoms: C4_4  and  C5_5 
REMARK    4  A    between atoms: C5_5  and  C6_6 
REMARK    5  A    between atoms: C6_6  and  C7_7 
REMARK    6  A    between atoms: C9_12  and  C10_13 
REMARK    7  A    between atoms: C10_13  and  C11_14 
REMARK    8  A    between atoms: C15_21  and  C16_22 
REMARK    9  A    between atoms: C16_22  and  C17_23 
REMARK   10  A    between atoms: N4_35  and  C27_37 
REMARK   11  A    between atoms: C27_37  and  O3_39 
ROOT
HETATM    1  C7  UNL     1     -10.750  13.822  26.226  1.00  0.00     0.176 C 
HETATM    2  N1  UNL     1      -9.462  14.106  26.792  1.00  0.00    -0.346 N 
ATOM      3  H1  UNL     1      -8.663  13.986  26.170  1.00  0.00     0.163 HD
HETATM    4  C8  UNL     1      -9.167  14.535  28.111  1.00  0.00     0.241 C 
HETATM    5  O1  UNL     1      -8.531  15.651  28.258  1.00  0.00    -0.271 OA
HETATM    6  C9  UNL     1      -9.502  13.860  29.371  1.00  0.00     0.177 C 
HETATM    7  N2  UNL     1     -10.620  14.542  29.939  1.00  0.00    -0.344 N 
ATOM      8  H2  UNL     1     -10.509  15.551  30.038  1.00  0.00     0.163 HD
HETATM    9  C14 UNL     1     -11.835  14.035  30.376  1.00  0.00     0.250 C 
HETATM   10  O2  UNL     1     -12.323  14.557  31.441  1.00  0.00    -0.268 OA
HETATM   11  C15 UNL     1     -12.651  12.928  29.730  1.00  0.00     0.038 C 
HETATM   12  C29 UNL     1     -13.309  13.290  28.495  1.00  0.00     0.058 C 
HETATM   13  C30 UNL     1     -13.258  14.783  28.144  1.00  0.00     0.044 C 
HETATM   14  C31 UNL     1     -14.826  13.023  28.388  1.00  0.00     0.044 C 
HETATM   15  N5  UNL     1     -12.755  12.588  27.313  1.00  0.00    -0.346 N 
ATOM     16  H5  UNL     1     -13.400  11.972  26.817  1.00  0.00     0.163 HD
HETATM   17  C32 UNL     1     -11.458  12.663  26.792  1.00  0.00     0.241 C 
HETATM   18  O4  UNL     1     -10.753  11.577  26.791  1.00  0.00    -0.271 OA
ENDROOT
BRANCH  11  19
HETATM   19  C16 UNL     1     -13.155  12.156  30.850  1.00  0.00     0.030 C 
BRANCH  19  20
HETATM   20  C17 UNL     1     -12.665  10.871  31.269  1.00  0.00     0.009 A 
HETATM   21  C18 UNL     1     -12.666   9.732  30.490  1.00  0.00     0.029 A 
HETATM   22  C19 UNL     1     -12.271   8.548  31.050  1.00  0.00    -0.009 A 
HETATM   23  C20 UNL     1     -12.255   7.352  30.329  1.00  0.00     0.014 A 
HETATM   24  C25 UNL     1     -11.874   8.457  32.362  1.00  0.00     0.044 A 
HETATM   25  C21 UNL     1     -11.864   6.158  30.910  1.00  0.00     0.007 A 
HETATM   26  C22 UNL     1     -11.473   6.108  32.230  1.00  0.00    -0.060 A 
HETATM   27  C23 UNL     1     -11.051   4.861  32.919  1.00  0.00     0.048 C 
HETATM   28  C24 UNL     1     -11.480   7.271  32.956  1.00  0.00     0.037 A 
HETATM   29  N3  UNL     1     -11.866   9.562  33.136  1.00  0.00    -0.341 N 
HETATM   30  C26 UNL     1     -12.251  10.714  32.584  1.00  0.00     0.114 A 
ATOM     31  H3  UNL     1     -11.575   9.518  34.112  1.00  0.00     0.167 HD
HETATM   32  N4  UNL     1     -12.140  11.762  33.369  1.00  0.00    -0.350 N 
ATOM     33  H4  UNL     1     -12.371  12.668  32.959  1.00  0.00     0.163 HD
BRANCH  32  34
HETATM   34  C27 UNL     1     -11.733  11.765  34.723  1.00  0.00     0.214 C 
HETATM   35  C28 UNL     1     -10.385  12.500  34.780  1.00  0.00     0.063 C 
BRANCH  34  36
HETATM   36  O3  UNL     1     -12.625  12.629  35.408  1.00  0.00    -0.377 OA
ATOM     37  H3  UNL     1     -12.813  12.214  36.242  1.00  0.00     0.212 HD
ENDBRANCH  34  36
ENDBRANCH  32  34
ENDBRANCH  19  20
ENDBRANCH  11  19
BRANCH   6  38
HETATM   38  C10 UNL     1      -8.316  13.674  30.252  1.00  0.00     0.038 C 
BRANCH  38  39
HETATM   39  C11 UNL     1      -8.290  14.230  31.610  1.00  0.00    -0.020 C 
HETATM   40  C12 UNL     1      -7.507  13.374  32.570  1.00  0.00     0.009 C 
HETATM   41  C13 UNL     1      -7.603  15.626  31.600  1.00  0.00     0.009 C 
ENDBRANCH  38  39
ENDBRANCH   6  38
BRANCH   1  42
HETATM   42  C6  UNL     1     -10.554  13.593  24.738  1.00  0.00     0.035 C 
BRANCH  42  43
HETATM   43  C5  UNL     1     -10.749  14.789  23.870  1.00  0.00     0.002 C 
BRANCH  43  44
HETATM   44  C4  UNL     1     -10.715  14.408  22.378  1.00  0.00     0.000 C 
BRANCH  44  45
HETATM   45  C3  UNL     1      -9.299  14.814  21.944  1.00  0.00    -0.000 C 
BRANCH  45  46
HETATM   46  C2  UNL     1      -8.756  13.939  20.849  1.00  0.00    -0.005 C 
HETATM   47  C1  UNL     1      -7.653  13.069  21.468  1.00  0.00     0.005 C 
ENDBRANCH  45  46
ENDBRANCH  44  45
ENDBRANCH  43  44
ENDBRANCH  42  43
ENDBRANCH   1  42
TORSDOF 11
ENDMDL
MODEL 3
REMARK VINA RESULT: -9.507667974      3.508      6.745
REMARK  11 active torsions:
REMARK  status: ('A' for Active; 'I' for Inactive)
REMARK    1  A    between atoms: C2_2  and  C3_3 
REMARK    2  A    between atoms: C3_3  and  C4_4 
REMARK    3  A    between atoms: C4_4  and  C5_5 
REMARK    4  A    between atoms: C5_5  and  C6_6 
REMARK    5  A    between atoms: C6_6  and  C7_7 
REMARK    6  A    between atoms: C9_12  and  C10_13 
REMARK    7  A    between atoms: C10_13  and  C11_14 
REMARK    8  A    between atoms: C15_21  and  C16_22 
REMARK    9  A    between atoms: C16_22  and  C17_23 
REMARK   10  A    between atoms: N4_35  and  C27_37 
REMARK   11  A    between atoms: C27_37  and  O3_39 
ROOT
HETATM    1  C7  UNL     1     -11.054  14.411  25.585  1.00  0.00     0.176 C 
HETATM    2  N1  UNL     1     -10.269  15.428  26.223  1.00  0.00    -0.346 N 
ATOM      3  H1  UNL     1      -9.614  15.931  25.625  1.00  0.00     0.163 HD
HETATM    4  C8  UNL     1     -10.294  15.818  27.587  1.00  0.00     0.241 C 
HETATM    5  O1  UNL     1     -10.561  17.053  27.859  1.00  0.00    -0.271 OA
HETATM    6  C9  UNL     1     -10.051  14.978  28.766  1.00  0.00     0.177 C 
HETATM    7  N2  UNL     1     -11.320  14.683  29.350  1.00  0.00    -0.344 N 
ATOM      8  H2  UNL     1     -11.908  15.493  29.545  1.00  0.00     0.163 HD
HETATM    9  C14 UNL     1     -11.870  13.456  29.692  1.00  0.00     0.250 C 
HETATM   10  O2  UNL     1     -12.548  13.416  30.780  1.00  0.00    -0.268 OA
HETATM   11  C15 UNL     1     -11.758  12.154  28.917  1.00  0.00     0.038 C 
HETATM   12  C29 UNL     1     -12.529  12.098  27.696  1.00  0.00     0.058 C 
HETATM   13  C30 UNL     1     -13.499  13.267  27.484  1.00  0.00     0.044 C 
HETATM   14  C31 UNL     1     -13.482  10.897  27.506  1.00  0.00     0.044 C 
HETATM   15  N5  UNL     1     -11.686  12.059  26.477  1.00  0.00    -0.346 N 
ATOM     16  H5  UNL     1     -11.770  11.220  25.902  1.00  0.00     0.163 HD
HETATM   17  C32 UNL     1     -10.789  13.030  26.015  1.00  0.00     0.241 C 
HETATM   18  O4  UNL     1      -9.539  12.697  25.943  1.00  0.00    -0.271 OA
ENDROOT
BRANCH  11  19
HETATM   19  C16 UNL     1     -11.581  11.143  29.942  1.00  0.00     0.030 C 
BRANCH  19  20
HETATM   20  C17 UNL     1     -12.639  10.451  30.628  1.00  0.00     0.009 A 
HETATM   21  C18 UNL     1     -13.598   9.670  30.019  1.00  0.00     0.029 A 
HETATM   22  C19 UNL     1     -14.614   9.157  30.779  1.00  0.00    -0.009 A 
HETATM   23  C20 UNL     1     -15.627   8.368  30.232  1.00  0.00     0.014 A 
HETATM   24  C25 UNL     1     -14.707   9.395  32.129  1.00  0.00     0.044 A 
HETATM   25  C21 UNL     1     -16.655   7.863  31.010  1.00  0.00     0.007 A 
HETATM   26  C22 UNL     1     -16.715   8.125  32.362  1.00  0.00    -0.060 A 
HETATM   27  C23 UNL     1     -17.792   7.625  33.252  1.00  0.00     0.048 C 
HETATM   28  C24 UNL     1     -15.729   8.898  32.918  1.00  0.00     0.037 A 
HETATM   29  N3  UNL     1     -13.775  10.156  32.740  1.00  0.00    -0.341 N 
HETATM   30  C26 UNL     1     -12.787  10.652  31.993  1.00  0.00     0.114 A 
ATOM     31  H3  UNL     1     -13.825  10.345  33.740  1.00  0.00     0.167 HD
HETATM   32  N4  UNL     1     -11.871  11.312  32.665  1.00  0.00    -0.350 N 
ATOM     33  H4  UNL     1     -11.071  11.655  32.132  1.00  0.00     0.163 HD
BRANCH  32  34
HETATM   34  C27 UNL     1     -11.879  11.596  34.050  1.00  0.00     0.214 C 
HETATM   35  C28 UNL     1     -10.698  12.541  34.317  1.00  0.00     0.063 C 
BRANCH  34  36
HETATM   36  O3  UNL     1     -13.024  12.401  34.287  1.00  0.00    -0.377 OA
ATOM     37  H3  UNL     1     -13.596  11.894  34.851  1.00  0.00     0.212 HD
ENDBRANCH  34  36
ENDBRANCH  32  34
ENDBRANCH  19  20
ENDBRANCH  11  19
BRANCH   6  38
HETATM   38  C10 UNL     1      -9.017  15.550  29.671  1.00  0.00     0.038 C 
BRANCH  38  39
HETATM   39  C11 UNL     1      -8.697  14.908  30.953  1.00  0.00    -0.020 C 
HETATM   40  C12 UNL     1      -7.913  13.634  30.781  1.00  0.00     0.009 C 
HETATM   41  C13 UNL     1      -7.816  15.856  31.817  1.00  0.00     0.009 C 
ENDBRANCH  38  39
ENDBRANCH   6  38
BRANCH   1  42
HETATM   42  C6  UNL     1     -10.804  14.512  24.091  1.00  0.00     0.035 C 
BRANCH  42  43
HETATM   43  C5  UNL     1      -9.605  15.300  23.689  1.00  0.00     0.002 C 
BRANCH  43  44
HETATM   44  C4  UNL     1      -9.122  14.903  22.281  1.00  0.00     0.000 C 
BRANCH  44  45
HETATM   45  C3  UNL     1      -8.145  13.751  22.557  1.00  0.00    -0.000 C 
BRANCH  45  46
HETATM   46  C2  UNL     1      -7.640  13.107  21.296  1.00  0.00    -0.005 C 
HETATM   47  C1  UNL     1      -7.515  14.213  20.240  1.00  0.00     0.005 C 
ENDBRANCH  45  46
ENDBRANCH  44  45
ENDBRANCH  43  44
ENDBRANCH  42  43
ENDBRANCH   1  42
TORSDOF 11
ENDMDL
MODEL 4
REMARK VINA RESULT: -9.415095944      2.565      9.798
REMARK  11 active torsions:
REMARK  status: ('A' for Active; 'I' for Inactive)
REMARK    1  A    between atoms: C2_2  and  C3_3 
REMARK    2  A    between atoms: C3_3  and  C4_4 
REMARK    3  A    between atoms: C4_4  and  C5_5 
REMARK    4  A    between atoms: C5_5  and  C6_6 
REMARK    5  A    between atoms: C6_6  and  C7_7 
REMARK    6  A    between atoms: C9_12  and  C10_13 
REMARK    7  A    between atoms: C10_13  and  C11_14 
REMARK    8  A    between atoms: C15_21  and  C16_22 
REMARK    9  A    between atoms: C16_22  and  C17_23 
REMARK   10  A    between atoms: N4_35  and  C27_37 
REMARK   11  A    between atoms: C27_37  and  O3_39 
ROOT
HETATM    1  C7  UNL     1     -12.233  13.417  27.975  1.00  0.00     0.176 C 
HETATM    2  N1  UNL     1     -11.633  13.738  29.238  1.00  0.00    -0.346 N 
ATOM      3  H1  UNL     1     -12.256  13.729  30.046  1.00  0.00     0.163 HD
HETATM    4  C8  UNL     1     -10.278  14.066  29.499  1.00  0.00     0.241 C 
HETATM    5  O1  UNL     1      -9.628  13.332  30.342  1.00  0.00    -0.271 OA
HETATM    6  C9  UNL     1      -9.490  15.160  28.917  1.00  0.00     0.177 C 
HETATM    7  N2  UNL     1      -8.636  14.593  27.924  1.00  0.00    -0.344 N 
ATOM      8  H2  UNL     1      -8.066  13.807  28.238  1.00  0.00     0.163 HD
HETATM    9  C14 UNL     1      -8.467  14.953  26.595  1.00  0.00     0.250 C 
HETATM   10  O2  UNL     1      -7.270  14.902  26.137  1.00  0.00    -0.268 OA
HETATM   11  C15 UNL     1      -9.545  15.402  25.623  1.00  0.00     0.038 C 
HETATM   12  C29 UNL     1     -10.436  14.358  25.170  1.00  0.00     0.058 C 
HETATM   13  C30 UNL     1     -10.027  12.934  25.568  1.00  0.00     0.044 C 
HETATM   14  C31 UNL     1     -10.621  14.187  23.646  1.00  0.00     0.044 C 
HETATM   15  N5  UNL     1     -11.824  14.522  25.665  1.00  0.00    -0.346 N 
ATOM     16  H5  UNL     1     -12.539  14.663  24.951  1.00  0.00     0.163 HD
HETATM   17  C32 UNL     1     -12.277  14.508  26.989  1.00  0.00     0.241 C 
HETATM   18  O4  UNL     1     -12.818  15.593  27.444  1.00  0.00    -0.271 OA
ENDROOT
BRANCH  11  19
HETATM   19  C16 UNL     1      -8.923  16.473  24.870  1.00  0.00     0.030 C 
BRANCH  19  20
HETATM   20  C17 UNL     1      -8.125  16.310  23.685  1.00  0.00     0.009 A 
HETATM   21  C18 UNL     1      -8.540  15.676  22.533  1.00  0.00     0.029 A 
HETATM   22  C19 UNL     1      -7.642  15.495  21.517  1.00  0.00    -0.009 A 
HETATM   23  C20 UNL     1      -7.986  14.851  20.326  1.00  0.00     0.014 A 
HETATM   24  C25 UNL     1      -6.341  15.924  21.608  1.00  0.00     0.044 A 
HETATM   25  C21 UNL     1      -7.064  14.665  19.310  1.00  0.00     0.007 A 
HETATM   26  C22 UNL     1      -5.766  15.110  19.439  1.00  0.00    -0.060 A 
HETATM   27  C23 UNL     1      -4.726  14.934  18.394  1.00  0.00     0.048 C 
HETATM   28  C24 UNL     1      -5.409  15.744  20.600  1.00  0.00     0.037 A 
HETATM   29  N3  UNL     1      -5.919  16.548  22.727  1.00  0.00    -0.341 N 
HETATM   30  C26 UNL     1      -6.801  16.723  23.714  1.00  0.00     0.114 A 
ATOM     31  H3  UNL     1      -4.958  16.875  22.817  1.00  0.00     0.167 HD
HETATM   32  N4  UNL     1      -6.347  17.410  24.739  1.00  0.00    -0.350 N 
ATOM     33  H4  UNL     1      -7.013  17.612  25.485  1.00  0.00     0.163 HD
BRANCH  32  34
HETATM   34  C27 UNL     1      -5.032  17.899  24.913  1.00  0.00     0.214 C 
HETATM   35  C28 UNL     1      -4.967  18.510  26.321  1.00  0.00     0.063 C 
BRANCH  34  36
HETATM   36  O3  UNL     1      -4.189  16.760  24.993  1.00  0.00    -0.377 OA
ATOM     37  H3  UNL     1      -4.167  16.381  24.122  1.00  0.00     0.212 HD
ENDBRANCH  34  36
ENDBRANCH  32  34
ENDBRANCH  19  20
ENDBRANCH  11  19
BRANCH   6  38
HETATM   38  C10 UNL     1      -8.838  16.007  29.954  1.00  0.00     0.038 C 
BRANCH  38  39
HETATM   39  C11 UNL     1      -7.413  15.847  30.272  1.00  0.00    -0.020 C 
HETATM   40  C12 UNL     1      -6.524  16.657  29.366  1.00  0.00     0.009 C 
HETATM   41  C13 UNL     1      -7.134  16.339  31.722  1.00  0.00     0.009 C 
ENDBRANCH  38  39
ENDBRANCH   6  38
BRANCH   1  42
HETATM   42  C6  UNL     1     -13.652  12.951  28.249  1.00  0.00     0.035 C 
BRANCH  42  43
HETATM   43  C5  UNL     1     -13.973  12.666  29.675  1.00  0.00     0.002 C 
BRANCH  43  44
HETATM   44  C4  UNL     1     -14.242  11.165  29.898  1.00  0.00     0.000 C 
BRANCH  44  45
HETATM   45  C3  UNL     1     -12.925  10.658  30.504  1.00  0.00    -0.000 C 
BRANCH  45  46
HETATM   46  C2  UNL     1     -12.100   9.874  29.522  1.00  0.00    -0.005 C 
HETATM   47  C1  UNL     1     -11.801   8.513  30.165  1.00  0.00     0.005 C 
ENDBRANCH  45  46
ENDBRANCH  44  45
ENDBRANCH  43  44
ENDBRANCH  42  43
ENDBRANCH   1  42
TORSDOF 11
ENDMDL
MODEL 5
REMARK VINA RESULT: -9.327956918      2.768      9.577
REMARK  11 active torsions:
REMARK  status: ('A' for Active; 'I' for Inactive)
REMARK    1  A    between atoms: C2_2  and  C3_3 
REMARK    2  A    between atoms: C3_3  and  C4_4 
REMARK    3  A    between atoms: C4_4  and  C5_5 
REMARK    4  A    between atoms: C5_5  and  C6_6 
REMARK    5  A    between atoms: C6_6  and  C7_7 
REMARK    6  A    between atoms: C9_12  and  C10_13 
REMARK    7  A    between atoms: C10_13  and  C11_14 
REMARK    8  A    between atoms: C15_21  and  C16_22 
REMARK    9  A    between atoms: C16_22  and  C17_23 
REMARK   10  A    between atoms: N4_35  and  C27_37 
REMARK   11  A    between atoms: C27_37  and  O3_39 
ROOT
HETATM    1  C7  UNL     1      -6.476  16.322  27.619  1.00  0.00     0.176 C 
HETATM    2  N1  UNL     1      -7.347  15.317  27.081  1.00  0.00    -0.346 N 
ATOM      3  H1  UNL     1      -7.621  14.572  27.720  1.00  0.00     0.163 HD
HETATM    4  C8  UNL     1      -7.873  15.236  25.766  1.00  0.00     0.241 C 
HETATM    5  O1  UNL     1      -9.158  15.210  25.629  1.00  0.00    -0.271 OA
HETATM    6  C9  UNL     1      -7.129  15.179  24.502  1.00  0.00     0.177 C 
HETATM    7  N2  UNL     1      -7.194  16.474  23.907  1.00  0.00    -0.344 N 
ATOM      8  H2  UNL     1      -8.134  16.859  23.805  1.00  0.00     0.163 HD
HETATM    9  C14 UNL     1      -6.169  17.287  23.446  1.00  0.00     0.250 C 
HETATM   10  O2  UNL     1      -6.400  17.943  22.367  1.00  0.00    -0.268 OA
HETATM   11  C15 UNL     1      -4.802  17.486  24.078  1.00  0.00     0.038 C 
HETATM   12  C29 UNL     1      -4.796  18.263  25.296  1.00  0.00     0.058 C 
HETATM   13  C30 UNL     1      -6.128  18.942  25.642  1.00  0.00     0.044 C 
HETATM   14  C31 UNL     1      -3.833  19.467  25.372  1.00  0.00     0.044 C 
HETATM   15  N5  UNL     1      -4.438  17.465  26.494  1.00  0.00    -0.346 N 
ATOM     16  H5  UNL     1      -3.585  17.746  26.978  1.00  0.00     0.163 HD
HETATM   17  C32 UNL     1      -5.123  16.375  27.043  1.00  0.00     0.241 C 
HETATM   18  O4  UNL     1      -4.508  15.236  27.064  1.00  0.00    -0.271 OA
ENDROOT
BRANCH  11  19
HETATM   19  C16 UNL     1      -3.890  17.533  22.951  1.00  0.00     0.030 C 
BRANCH  19  20
HETATM   20  C17 UNL     1      -3.008  16.474  22.543  1.00  0.00     0.009 A 
HETATM   21  C18 UNL     1      -1.994  15.947  23.315  1.00  0.00     0.029 A 
HETATM   22  C19 UNL     1      -1.158  15.016  22.763  1.00  0.00    -0.009 A 
HETATM   23  C20 UNL     1      -0.103  14.446  23.478  1.00  0.00     0.014 A 
HETATM   24  C25 UNL     1      -1.296  14.589  21.465  1.00  0.00     0.044 A 
HETATM   25  C21 UNL     1       0.743  13.512  22.905  1.00  0.00     0.007 A 
HETATM   26  C22 UNL     1       0.573  13.110  21.598  1.00  0.00    -0.060 A 
HETATM   27  C23 UNL     1       1.448  12.121  20.918  1.00  0.00     0.048 C 
HETATM   28  C24 UNL     1      -0.458  13.657  20.879  1.00  0.00     0.037 A 
HETATM   29  N3  UNL     1      -2.284  15.093  20.697  1.00  0.00    -0.341 N 
HETATM   30  C26 UNL     1      -3.097  16.000  21.241  1.00  0.00     0.114 A 
ATOM     31  H3  UNL     1      -2.405  14.790  19.731  1.00  0.00     0.167 HD
HETATM   32  N4  UNL     1      -4.086  16.386  20.466  1.00  0.00    -0.350 N 
ATOM     33  H4  UNL     1      -4.759  17.035  20.872  1.00  0.00     0.163 HD
BRANCH  32  34
HETATM   34  C27 UNL     1      -4.311  15.994  19.126  1.00  0.00     0.214 C 
HETATM   35  C28 UNL     1      -5.438  14.950  19.153  1.00  0.00     0.063 C 
BRANCH  34  36
HETATM   36  O3  UNL     1      -4.893  17.112  18.473  1.00  0.00    -0.377 OA
ATOM     37  H3  UNL     1      -5.662  17.347  18.978  1.00  0.00     0.212 HD
ENDBRANCH  34  36
ENDBRANCH  32  34
ENDBRANCH  19  20
ENDBRANCH  11  19
BRANCH   6  38
HETATM   38  C10 UNL     1      -7.540  14.030  23.649  1.00  0.00     0.038 C 
BRANCH  38  39
HETATM   39  C11 UNL     1      -8.015  14.242  22.275  1.00  0.00    -0.020 C 
HETATM   40  C12 UNL     1      -7.674  13.095  21.362  1.00  0.00     0.009 C 
HETATM   41  C13 UNL     1      -9.566  14.371  22.263  1.00  0.00     0.009 C 
ENDBRANCH  38  39
ENDBRANCH   6  38
BRANCH   1  42
HETATM   42  C6  UNL     1      -6.359  16.073  29.112  1.00  0.00     0.035 C 
BRANCH  42  43
HETATM   43  C5  UNL     1      -7.402  16.719  29.957  1.00  0.00     0.002 C 
BRANCH  43  44
HETATM   44  C4  UNL     1      -7.215  16.363  31.445  1.00  0.00     0.000 C 
BRANCH  44  45
HETATM   45  C3  UNL     1      -8.042  15.078  31.604  1.00  0.00    -0.000 C 
BRANCH  45  46
HETATM   46  C2  UNL     1      -7.570  14.225  32.748  1.00  0.00    -0.005 C 
HETATM   47  C1  UNL     1      -8.396  14.621  33.980  1.00  0.00     0.005 C 
ENDBRANCH  45  46
ENDBRANCH  44  45
ENDBRANCH  43  44
ENDBRANCH  42  43
ENDBRANCH   1  42
TORSDOF 11
ENDMDL
