MODEL 1
REMARK VINA RESULT: -8.301355766      0.000      0.000
REMARK  4 active torsions:
REMARK  status: ('A' for Active; 'I' for Inactive)
REMARK    1  A    between atoms: C7_7  and  C8_8 
REMARK    2  A    between atoms: C9_11  and  C10_12 
REMARK    3  A    between atoms: C10_12  and  N2_13 
REMARK    4  A    between atoms: N2_13  and  C11_15 
ROOT
HETATM    1  C8  UNL     1      23.994 -10.625  -5.967  1.00  0.00     0.132 A 
HETATM    2  N1  UNL     1      23.221 -10.092  -6.964  1.00  0.00    -0.328 N 
ATOM      3  H1  UNL     1      22.226  -9.880  -6.892  1.00  0.00     0.169 HD
HETATM    4  C9  UNL     1      23.978  -9.894  -8.042  1.00  0.00     0.115 A 
HETATM    5  N4  UNL     1      25.199 -10.302  -7.709  1.00  0.00    -0.286 N 
ATOM      6  H4  UNL     1      26.009 -10.277  -8.329  1.00  0.00     0.188 HD
HETATM    7  N5  UNL     1      25.216 -10.751  -6.439  1.00  0.00    -0.283 N 
ATOM      8  H5  UNL     1      26.025 -11.121  -5.938  1.00  0.00     0.188 HD
ENDROOT
BRANCH   4   9
HETATM    9  C10 UNL     1      23.518  -9.322  -9.361  1.00  0.00     0.199 C 
BRANCH   9  10
HETATM   10  N2  UNL     1      23.068  -7.985  -9.113  1.00  0.00    -0.369 N 
ATOM     11  H2  UNL     1      23.702  -7.223  -9.357  1.00  0.00     0.161 HD
BRANCH  10  12
HETATM   12  C11 UNL     1      21.931  -7.669  -8.609  1.00  0.00     0.101 A 
HETATM   13  C12 UNL     1      20.776  -8.181  -9.155  1.00  0.00     0.048 A 
HETATM   14  C13 UNL     1      19.520  -7.873  -8.652  1.00  0.00     0.005 A 
HETATM   15  C14 UNL     1      19.451  -7.029  -7.573  1.00  0.00     0.017 A 
HETATM   16  C15 UNL     1      20.609  -6.522  -7.032  1.00  0.00     0.089 A 
HETATM   17  N3  UNL     1      21.828  -6.847  -7.555  1.00  0.00    -0.353 N 
ATOM     18  H3  UNL     1      22.673  -6.459  -7.136  1.00  0.00     0.166 HD
ENDBRANCH  10  12
ENDBRANCH   9  10
ENDBRANCH   4   9
BRANCH   1  19
HETATM   19  C7  UNL     1      23.436 -10.903  -4.668  1.00  0.00     0.015 A 
HETATM   20  C2  UNL     1      24.196 -11.203  -3.577  1.00  0.00    -0.048 A 
HETATM   21  C1  UNL     1      25.680 -11.161  -3.558  1.00  0.00     0.049 C 
HETATM   22  C3  UNL     1      23.592 -11.534  -2.346  1.00  0.00     0.007 A 
HETATM   23  C4  UNL     1      22.223 -11.559  -2.234  1.00  0.00     0.001 A 
HETATM   24  C5  UNL     1      21.440 -11.257  -3.328  1.00  0.00     0.001 A 
HETATM   25  C6  UNL     1      22.029 -10.936  -4.519  1.00  0.00     0.016 A 
ENDBRANCH   1  19
TORSDOF 4
ENDMDL
MODEL 2
REMARK VINA RESULT: -8.286654207      0.538      1.584
REMARK  4 active torsions:
REMARK  status: ('A' for Active; 'I' for Inactive)
REMARK    1  A    between atoms: C7_7  and  C8_8 
REMARK    2  A    between atoms: C9_11  and  C10_12 
REMARK    3  A    between atoms: C10_12  and  N2_13 
REMARK    4  A    between atoms: N2_13  and  C11_15 
ROOT
HETATM    1  C8  UNL     1      24.013 -10.868  -6.334  1.00  0.00     0.132 A 
HETATM    2  N1  UNL     1      23.131 -10.266  -7.190  1.00  0.00    -0.328 N 
ATOM      3  H1  UNL     1      22.173  -9.998  -6.962  1.00  0.00     0.169 HD
HETATM    4  C9  UNL     1      23.724 -10.084  -8.369  1.00  0.00     0.115 A 
HETATM    5  N4  UNL     1      24.955 -10.571  -8.235  1.00  0.00    -0.286 N 
ATOM      6  H4  UNL     1      25.660 -10.578  -8.972  1.00  0.00     0.188 HD
HETATM    7  N5  UNL     1      25.139 -11.053  -6.991  1.00  0.00    -0.283 N 
ATOM      8  H5  UNL     1      25.990 -11.482  -6.627  1.00  0.00     0.188 HD
ENDROOT
BRANCH   4   9
HETATM    9  C10 UNL     1      23.104  -9.453  -9.592  1.00  0.00     0.199 C 
BRANCH   9  10
HETATM   10  N2  UNL     1      22.798  -8.093  -9.261  1.00  0.00    -0.369 N 
ATOM     11  H2  UNL     1      23.477  -7.380  -9.531  1.00  0.00     0.161 HD
BRANCH  10  12
HETATM   12  C11 UNL     1      21.738  -7.700  -8.653  1.00  0.00     0.101 A 
HETATM   13  C12 UNL     1      20.501  -8.063  -9.135  1.00  0.00     0.048 A 
HETATM   14  C13 UNL     1      19.322  -7.667  -8.520  1.00  0.00     0.005 A 
HETATM   15  C14 UNL     1      19.417  -6.889  -7.394  1.00  0.00     0.017 A 
HETATM   16  C15 UNL     1      20.656  -6.531  -6.917  1.00  0.00     0.089 A 
HETATM   17  N3  UNL     1      21.795  -6.940  -7.550  1.00  0.00    -0.353 N 
ATOM     18  H3  UNL     1      22.703  -6.662  -7.178  1.00  0.00     0.166 HD
ENDBRANCH  10  12
ENDBRANCH   9  10
ENDBRANCH   4   9
BRANCH   1  19
HETATM   19  C7  UNL     1      23.644 -11.147  -4.969  1.00  0.00     0.015 A 
HETATM   20  C2  UNL     1      22.377 -10.992  -4.491  1.00  0.00    -0.048 A 
HETATM   21  C1  UNL     1      21.206 -10.639  -5.333  1.00  0.00     0.049 C 
HETATM   22  C3  UNL     1      22.088 -11.214  -3.128  1.00  0.00     0.007 A 
HETATM   23  C4  UNL     1      23.087 -11.591  -2.264  1.00  0.00     0.001 A 
HETATM   24  C5  UNL     1      24.374 -11.753  -2.732  1.00  0.00     0.001 A 
HETATM   25  C6  UNL     1      24.650 -11.537  -4.053  1.00  0.00     0.016 A 
ENDBRANCH   1  19
TORSDOF 4
ENDMDL
MODEL 3
REMARK VINA RESULT: -8.247036118      1.176      5.925
REMARK  4 active torsions:
REMARK  status: ('A' for Active; 'I' for Inactive)
REMARK    1  A    between atoms: C7_7  and  C8_8 
REMARK    2  A    between atoms: C9_11  and  C10_12 
REMARK    3  A    between atoms: C10_12  and  N2_13 
REMARK    4  A    between atoms: N2_13  and  C11_15 
ROOT
HETATM    1  C8  UNL     1      22.821  -8.073  -8.087  1.00  0.00     0.132 A 
HETATM    2  N1  UNL     1      23.161  -9.303  -7.590  1.00  0.00    -0.328 N 
ATOM      3  H1  UNL     1      22.527  -9.944  -7.111  1.00  0.00     0.169 HD
HETATM    4  C9  UNL     1      24.451  -9.529  -7.833  1.00  0.00     0.115 A 
HETATM    5  N4  UNL     1      24.896  -8.449  -8.470  1.00  0.00    -0.286 N 
ATOM      6  H4  UNL     1      25.854  -8.319  -8.793  1.00  0.00     0.188 HD
HETATM    7  N5  UNL     1      23.902  -7.553  -8.628  1.00  0.00    -0.283 N 
ATOM      8  H5  UNL     1      23.975  -6.642  -9.083  1.00  0.00     0.188 HD
ENDROOT
BRANCH   4   9
HETATM    9  C10 UNL     1      25.227 -10.766  -7.451  1.00  0.00     0.199 C 
BRANCH   9  10
HETATM   10  N2  UNL     1      24.397 -11.536  -6.572  1.00  0.00    -0.369 N 
ATOM     11  H2  UNL     1      23.829 -12.274  -6.989  1.00  0.00     0.161 HD
BRANCH  10  12
HETATM   12  C11 UNL     1      24.312 -11.369  -5.302  1.00  0.00     0.101 A 
HETATM   13  C12 UNL     1      23.095 -11.512  -4.675  1.00  0.00     0.048 A 
HETATM   14  C13 UNL     1      22.944 -11.344  -3.306  1.00  0.00     0.005 A 
HETATM   15  C14 UNL     1      24.059 -11.025  -2.573  1.00  0.00     0.017 A 
HETATM   16  C15 UNL     1      25.272 -10.884  -3.206  1.00  0.00     0.089 A 
HETATM   17  N3  UNL     1      25.381 -11.058  -4.556  1.00  0.00    -0.353 N 
ATOM     18  H3  UNL     1      26.291 -10.949  -5.003  1.00  0.00     0.166 HD
ENDBRANCH  10  12
ENDBRANCH   9  10
ENDBRANCH   4   9
BRANCH   1  19
HETATM   19  C7  UNL     1      21.467  -7.588  -7.997  1.00  0.00     0.015 A 
HETATM   20  C2  UNL     1      20.482  -7.959  -8.864  1.00  0.00    -0.048 A 
HETATM   21  C1  UNL     1      20.646  -8.988  -9.921  1.00  0.00     0.049 C 
HETATM   22  C3  UNL     1      19.190  -7.399  -8.770  1.00  0.00     0.007 A 
HETATM   23  C4  UNL     1      18.911  -6.469  -7.798  1.00  0.00     0.001 A 
HETATM   24  C5  UNL     1      19.897  -6.085  -6.913  1.00  0.00     0.001 A 
HETATM   25  C6  UNL     1      21.146  -6.630  -7.007  1.00  0.00     0.016 A 
ENDBRANCH   1  19
TORSDOF 4
ENDMDL
MODEL 4
REMARK VINA RESULT: -8.245584909      5.096      6.678
REMARK  4 active torsions:
REMARK  status: ('A' for Active; 'I' for Inactive)
REMARK    1  A    between atoms: C7_7  and  C8_8 
REMARK    2  A    between atoms: C9_11  and  C10_12 
REMARK    3  A    between atoms: C10_12  and  N2_13 
REMARK    4  A    between atoms: N2_13  and  C11_15 
ROOT
HETATM    1  C8  UNL     1      21.372  -9.683  -3.381  1.00  0.00     0.132 A 
HETATM    2  N1  UNL     1      20.637 -10.230  -2.364  1.00  0.00    -0.328 N 
ATOM      3  H1  UNL     1      20.931 -11.008  -1.772  1.00  0.00     0.169 HD
HETATM    4  C9  UNL     1      19.475  -9.584  -2.270  1.00  0.00     0.115 A 
HETATM    5  N4  UNL     1      19.500  -8.653  -3.220  1.00  0.00    -0.286 N 
ATOM      6  H4  UNL     1      18.746  -7.991  -3.403  1.00  0.00     0.188 HD
HETATM    7  N5  UNL     1      20.659  -8.708  -3.904  1.00  0.00    -0.283 N 
ATOM      8  H5  UNL     1      20.932  -8.107  -4.682  1.00  0.00     0.188 HD
ENDROOT
BRANCH   4   9
HETATM    9  C10 UNL     1      18.372  -9.872  -1.280  1.00  0.00     0.199 C 
BRANCH   9  10
HETATM   10  N2  UNL     1      17.165 -10.056  -2.029  1.00  0.00    -0.369 N 
ATOM     11  H2  UNL     1      17.143 -10.819  -2.705  1.00  0.00     0.161 HD
BRANCH  10  12
HETATM   12  C11 UNL     1      16.108  -9.336  -1.915  1.00  0.00     0.101 A 
HETATM   13  C12 UNL     1      16.224  -7.987  -1.672  1.00  0.00     0.048 A 
HETATM   14  C13 UNL     1      15.116  -7.161  -1.539  1.00  0.00     0.005 A 
HETATM   15  C14 UNL     1      13.874  -7.731  -1.658  1.00  0.00     0.017 A 
HETATM   16  C15 UNL     1      13.766  -9.080  -1.902  1.00  0.00     0.089 A 
HETATM   17  N3  UNL     1      14.879  -9.861  -2.026  1.00  0.00    -0.353 N 
ATOM     18  H3  UNL     1      14.774 -10.859  -2.207  1.00  0.00     0.166 HD
ENDBRANCH  10  12
ENDBRANCH   9  10
ENDBRANCH   4   9
BRANCH   1  19
HETATM   19  C7  UNL     1      22.697 -10.166  -3.678  1.00  0.00     0.015 A 
HETATM   20  C2  UNL     1      23.071 -10.608  -4.912  1.00  0.00    -0.048 A 
HETATM   21  C1  UNL     1      22.211 -10.535  -6.120  1.00  0.00     0.049 C 
HETATM   22  C3  UNL     1      24.362 -11.135  -5.128  1.00  0.00     0.007 A 
HETATM   23  C4  UNL     1      25.260 -11.209  -4.090  1.00  0.00     0.001 A 
HETATM   24  C5  UNL     1      24.896 -10.764  -2.836  1.00  0.00     0.001 A 
HETATM   25  C6  UNL     1      23.645 -10.254  -2.631  1.00  0.00     0.016 A 
ENDBRANCH   1  19
TORSDOF 4
ENDMDL
MODEL 5
REMARK VINA RESULT: -8.208292095      1.227      2.135
REMARK  4 active torsions:
REMARK  status: ('A' for Active; 'I' for Inactive)
REMARK    1  A    between atoms: C7_7  and  C8_8 
REMARK    2  A    between atoms: C9_11  and  C10_12 
REMARK    3  A    between atoms: C10_12  and  N2_13 
REMARK    4  A    between atoms: N2_13  and  C11_15 
ROOT
HETATM    1  C8  UNL     1      23.665 -10.805  -6.564  1.00  0.00     0.132 A 
HETATM    2  N1  UNL     1      23.149  -9.624  -7.027  1.00  0.00    -0.328 N 
ATOM      3  H1  UNL     1      22.674  -8.923  -6.459  1.00  0.00     0.169 HD
HETATM    4  C9  UNL     1      23.366  -9.539  -8.338  1.00  0.00     0.115 A 
HETATM    5  N4  UNL     1      24.008 -10.654  -8.674  1.00  0.00    -0.286 N 
ATOM      6  H4  UNL     1      24.315 -10.886  -9.618  1.00  0.00     0.188 HD
HETATM    7  N5  UNL     1      24.194 -11.435  -7.592  1.00  0.00    -0.283 N 
ATOM      8  H5  UNL     1      24.658 -12.344  -7.572  1.00  0.00     0.188 HD
ENDROOT
BRANCH   4   9
HETATM    9  C10 UNL     1      22.956  -8.398  -9.237  1.00  0.00     0.199 C 
BRANCH   9  10
HETATM   10  N2  UNL     1      21.536  -8.478  -9.407  1.00  0.00    -0.369 N 
ATOM     11  H2  UNL     1      21.172  -9.252  -9.963  1.00  0.00     0.161 HD
BRANCH  10  12
HETATM   12  C11 UNL     1      20.685  -7.652  -8.915  1.00  0.00     0.101 A 
HETATM   13  C12 UNL     1      20.974  -6.991  -7.743  1.00  0.00     0.048 A 
HETATM   14  C13 UNL     1      20.093  -6.089  -7.165  1.00  0.00     0.005 A 
HETATM   15  C14 UNL     1      18.899  -5.863  -7.802  1.00  0.00     0.017 A 
HETATM   16  C15 UNL     1      18.616  -6.526  -8.973  1.00  0.00     0.089 A 
HETATM   17  N3  UNL     1      19.509  -7.407  -9.511  1.00  0.00    -0.353 N 
ATOM     18  H3  UNL     1      19.278  -7.887 -10.381  1.00  0.00     0.166 HD
ENDBRANCH  10  12
ENDBRANCH   9  10
ENDBRANCH   4   9
BRANCH   1  19
HETATM   19  C7  UNL     1      23.605 -11.139  -5.163  1.00  0.00     0.015 A 
HETATM   20  C2  UNL     1      22.442 -11.173  -4.453  1.00  0.00    -0.048 A 
HETATM   21  C1  UNL     1      21.095 -10.991  -5.050  1.00  0.00     0.049 C 
HETATM   22  C3  UNL     1      22.450 -11.439  -3.067  1.00  0.00     0.007 A 
HETATM   23  C4  UNL     1      23.639 -11.669  -2.417  1.00  0.00     0.001 A 
HETATM   24  C5  UNL     1      24.823 -11.640  -3.122  1.00  0.00     0.001 A 
HETATM   25  C6  UNL     1      24.811 -11.382  -4.464  1.00  0.00     0.016 A 
ENDBRANCH   1  19
TORSDOF 4
ENDMDL
