MODEL 1
REMARK VINA RESULT: -7.040189257      0.000      0.000
REMARK  3 active torsions:
REMARK  status: ('A' for Active; 'I' for Inactive)
REMARK       I    between atoms: C2_2  and  N1_4 
REMARK    1  A    between atoms: N1_4  and  C4_6 
REMARK    2  A    between atoms: C7_9  and  N2_10 
REMARK    3  A    between atoms: C14_22  and  O2_24 
ROOT
HETATM    1  C4  UNL     1      -3.068   3.864  11.522  1.00  0.00     0.146 C 
HETATM    2  C5  UNL     1      -4.119   2.896  11.818  1.00  0.00     0.001 C 
HETATM    3  C6  UNL     1      -4.577   2.431  12.953  1.00  0.00     0.027 C 
HETATM    4  C7  UNL     1      -4.113   2.797  14.314  1.00  0.00     0.330 C 
HETATM    5  N4  UNL     1      -4.095   4.237  14.353  1.00  0.00    -0.038 N 
ATOM      6  H41 UNL     1      -4.330   4.569  15.288  1.00  0.00     0.281 HD
ATOM      7  H42 UNL     1      -4.883   4.616  13.828  1.00  0.00     0.281 HD
HETATM    8  C11 UNL     1      -2.882   4.827  13.912  1.00  0.00     0.153 C 
HETATM    9  C12 UNL     1      -3.077   6.338  14.174  1.00  0.00     0.049 C 
HETATM   10  C13 UNL     1      -1.868   4.468  15.026  1.00  0.00     0.049 C 
HETATM   11  C14 UNL     1      -2.348   4.521  12.596  1.00  0.00     0.110 C 
HETATM   12  C15 UNL     1      -1.781   5.840  12.024  1.00  0.00     0.051 C 
ENDROOT
BRANCH   4  13
HETATM   13  N2  UNL     1      -5.109   2.357  15.273  1.00  0.00    -0.269 N 
HETATM   14  C8  UNL     1      -6.269   3.088  15.655  1.00  0.00     0.114 A 
HETATM   15  C9  UNL     1      -6.928   2.371  16.543  1.00  0.00     0.037 A 
HETATM   16  C10 UNL     1      -6.172   1.146  16.736  1.00  0.00     0.108 A 
HETATM   17  N3  UNL     1      -5.114   1.151  15.991  1.00  0.00    -0.308 N 
ATOM     18  H3  UNL     1      -4.412   0.413  15.935  1.00  0.00     0.186 HD
ENDBRANCH   4  13
BRANCH   1  19
HETATM   19  N1  UNL     1      -3.629   4.738  10.499  1.00  0.00    -0.346 N 
HETATM   20  C2  UNL     1      -3.093   4.827   9.170  1.00  0.00     0.216 C 
HETATM   21  C1  UNL     1      -3.662   5.696   8.144  1.00  0.00     0.117 C 
HETATM   22  O1  UNL     1      -2.074   4.090   8.938  1.00  0.00    -0.274 OA
HETATM   23  C3  UNL     1      -4.786   5.573  10.754  1.00  0.00     0.153 C 
ENDBRANCH   1  19
BRANCH  11  24
HETATM   24  O2  UNL     1      -1.131   3.792  12.802  1.00  0.00    -0.385 OA
ATOM     25  H2  UNL     1      -0.669   4.211  13.519  1.00  0.00     0.210 HD
ENDBRANCH  11  24
TORSDOF 3
ENDMDL
MODEL 2
REMARK VINA RESULT: -6.760552966      1.998      3.139
REMARK  3 active torsions:
REMARK  status: ('A' for Active; 'I' for Inactive)
REMARK       I    between atoms: C2_2  and  N1_4 
REMARK    1  A    between atoms: N1_4  and  C4_6 
REMARK    2  A    between atoms: C7_9  and  N2_10 
REMARK    3  A    between atoms: C14_22  and  O2_24 
ROOT
HETATM    1  C4  UNL     1      -4.188   5.623  12.488  1.00  0.00     0.146 C 
HETATM    2  C5  UNL     1      -4.798   5.619  13.813  1.00  0.00     0.001 C 
HETATM    3  C6  UNL     1      -5.330   4.655  14.521  1.00  0.00     0.027 C 
HETATM    4  C7  UNL     1      -5.452   3.229  14.129  1.00  0.00     0.330 C 
HETATM    5  N4  UNL     1      -4.145   2.830  13.671  1.00  0.00    -0.038 N 
ATOM      6  H41 UNL     1      -3.974   1.851  13.899  1.00  0.00     0.281 HD
ATOM      7  H42 UNL     1      -3.421   3.272  14.237  1.00  0.00     0.281 HD
HETATM    8  C11 UNL     1      -3.903   3.064  12.292  1.00  0.00     0.153 C 
HETATM    9  C12 UNL     1      -2.512   2.439  12.040  1.00  0.00     0.049 C 
HETATM   10  C13 UNL     1      -4.816   2.038  11.576  1.00  0.00     0.049 C 
HETATM   11  C14 UNL     1      -4.063   4.393  11.730  1.00  0.00     0.110 C 
HETATM   12  C15 UNL     1      -2.910   4.595  10.721  1.00  0.00     0.051 C 
ENDROOT
BRANCH   4  13
HETATM   13  N2  UNL     1      -5.745   2.448  15.317  1.00  0.00    -0.269 N 
HETATM   14  C8  UNL     1      -6.762   2.740  16.268  1.00  0.00     0.114 A 
HETATM   15  C9  UNL     1      -6.723   1.812  17.203  1.00  0.00     0.037 A 
HETATM   16  C10 UNL     1      -5.653   0.898  16.842  1.00  0.00     0.108 A 
HETATM   17  N3  UNL     1      -5.090   1.282  15.741  1.00  0.00    -0.308 N 
ATOM     18  H3  UNL     1      -4.313   0.820  15.269  1.00  0.00     0.186 HD
ENDBRANCH   4  13
BRANCH   1  19
HETATM   19  N1  UNL     1      -2.973   6.415  12.628  1.00  0.00    -0.346 N 
HETATM   20  C2  UNL     1      -2.799   7.695  12.002  1.00  0.00     0.216 C 
HETATM   21  C1  UNL     1      -1.584   8.492  12.151  1.00  0.00     0.117 C 
HETATM   22  O1  UNL     1      -3.786   8.101  11.297  1.00  0.00    -0.274 OA
HETATM   23  C3  UNL     1      -1.851   5.964  13.429  1.00  0.00     0.153 C 
ENDBRANCH   1  19
BRANCH  11  24
HETATM   24  O2  UNL     1      -5.177   4.331  10.830  1.00  0.00    -0.385 OA
ATOM     25  H2  UNL     1      -4.967   3.688  10.163  1.00  0.00     0.210 HD
ENDBRANCH  11  24
TORSDOF 3
ENDMDL
MODEL 3
REMARK VINA RESULT: -6.610822488      2.154      5.932
REMARK  3 active torsions:
REMARK  status: ('A' for Active; 'I' for Inactive)
REMARK       I    between atoms: C2_2  and  N1_4 
REMARK    1  A    between atoms: N1_4  and  C4_6 
REMARK    2  A    between atoms: C7_9  and  N2_10 
REMARK    3  A    between atoms: C14_22  and  O2_24 
ROOT
HETATM    1  C4  UNL     1      -3.472   3.818  14.111  1.00  0.00     0.146 C 
HETATM    2  C5  UNL     1      -3.763   5.226  14.354  1.00  0.00     0.001 C 
HETATM    3  C6  UNL     1      -3.810   6.256  13.546  1.00  0.00     0.027 C 
HETATM    4  C7  UNL     1      -3.566   6.247  12.083  1.00  0.00     0.330 C 
HETATM    5  N4  UNL     1      -4.372   5.177  11.552  1.00  0.00    -0.038 N 
ATOM      6  H41 UNL     1      -4.703   5.413  10.617  1.00  0.00     0.281 HD
ATOM      7  H42 UNL     1      -5.263   5.125  12.047  1.00  0.00     0.281 HD
HETATM    8  C11 UNL     1      -3.739   3.906  11.544  1.00  0.00     0.153 C 
HETATM    9  C12 UNL     1      -4.748   2.985  10.820  1.00  0.00     0.049 C 
HETATM   10  C13 UNL     1      -2.643   4.045  10.458  1.00  0.00     0.049 C 
HETATM   11  C14 UNL     1      -3.199   3.343  12.768  1.00  0.00     0.110 C 
HETATM   12  C15 UNL     1      -3.519   1.831  12.746  1.00  0.00     0.051 C 
ENDROOT
BRANCH   4  13
HETATM   13  N2  UNL     1      -4.078   7.484  11.523  1.00  0.00    -0.269 N 
HETATM   14  C8  UNL     1      -5.438   7.742  11.194  1.00  0.00     0.114 A 
HETATM   15  C9  UNL     1      -5.516   8.966  10.713  1.00  0.00     0.037 A 
HETATM   16  C10 UNL     1      -4.169   9.511  10.734  1.00  0.00     0.108 A 
HETATM   17  N3  UNL     1      -3.341   8.636  11.208  1.00  0.00    -0.308 N 
ATOM     18  H3  UNL     1      -2.336   8.761  11.330  1.00  0.00     0.186 HD
ENDBRANCH   4  13
BRANCH   1  19
HETATM   19  N1  UNL     1      -4.486   3.083  14.857  1.00  0.00    -0.346 N 
HETATM   20  C2  UNL     1      -4.163   2.129  15.880  1.00  0.00     0.216 C 
HETATM   21  C1  UNL     1      -5.181   1.400  16.633  1.00  0.00     0.117 C 
HETATM   22  O1  UNL     1      -2.915   1.955  16.095  1.00  0.00    -0.274 OA
HETATM   23  C3  UNL     1      -5.903   3.278  14.621  1.00  0.00     0.153 C 
ENDBRANCH   1  19
BRANCH  11  24
HETATM   24  O2  UNL     1      -1.775   3.301  12.611  1.00  0.00    -0.385 OA
ATOM     25  H2  UNL     1      -1.594   3.244  11.680  1.00  0.00     0.210 HD
ENDBRANCH  11  24
TORSDOF 3
ENDMDL
MODEL 4
REMARK VINA RESULT: -6.194644539      2.179      3.126
REMARK  3 active torsions:
REMARK  status: ('A' for Active; 'I' for Inactive)
REMARK       I    between atoms: C2_2  and  N1_4 
REMARK    1  A    between atoms: N1_4  and  C4_6 
REMARK    2  A    between atoms: C7_9  and  N2_10 
REMARK    3  A    between atoms: C14_22  and  O2_24 
ROOT
HETATM    1  C4  UNL     1      -4.077   6.128  11.982  1.00  0.00     0.146 C 
HETATM    2  C5  UNL     1      -4.767   5.956  13.256  1.00  0.00     0.001 C 
HETATM    3  C6  UNL     1      -5.049   4.885  13.954  1.00  0.00     0.027 C 
HETATM    4  C7  UNL     1      -4.712   3.483  13.603  1.00  0.00     0.330 C 
HETATM    5  N4  UNL     1      -3.312   3.485  13.261  1.00  0.00    -0.038 N 
ATOM      6  H41 UNL     1      -2.879   2.603  13.535  1.00  0.00     0.281 HD
ATOM      7  H42 UNL     1      -2.800   4.128  13.866  1.00  0.00     0.281 HD
HETATM    8  C11 UNL     1      -3.035   3.766  11.898  1.00  0.00     0.153 C 
HETATM    9  C12 UNL     1      -1.505   3.579  11.775  1.00  0.00     0.049 C 
HETATM   10  C13 UNL     1      -3.542   2.508  11.149  1.00  0.00     0.049 C 
HETATM   11  C14 UNL     1      -3.532   4.982  11.280  1.00  0.00     0.110 C 
HETATM   12  C15 UNL     1      -2.410   5.507  10.355  1.00  0.00     0.051 C 
ENDROOT
BRANCH   4  13
HETATM   13  N2  UNL     1      -4.859   2.663  14.791  1.00  0.00    -0.269 N 
HETATM   14  C8  UNL     1      -5.972   2.684  15.678  1.00  0.00     0.114 A 
HETATM   15  C9  UNL     1      -5.747   1.807  16.635  1.00  0.00     0.037 A 
HETATM   16  C10 UNL     1      -4.455   1.204  16.356  1.00  0.00     0.108 A 
HETATM   17  N3  UNL     1      -3.948   1.713  15.278  1.00  0.00    -0.308 N 
ATOM     18  H3  UNL     1      -3.051   1.468  14.860  1.00  0.00     0.186 HD
ENDBRANCH   4  13
BRANCH   1  19
HETATM   19  N1  UNL     1      -3.166   7.246  12.188  1.00  0.00    -0.346 N 
HETATM   20  C2  UNL     1      -3.281   8.487  11.476  1.00  0.00     0.216 C 
HETATM   21  C1  UNL     1      -2.372   9.610  11.690  1.00  0.00     0.117 C 
HETATM   22  O1  UNL     1      -4.240   8.551  10.633  1.00  0.00    -0.274 OA
HETATM   23  C3  UNL     1      -2.078   7.183  13.145  1.00  0.00     0.153 C 
ENDBRANCH   1  19
BRANCH  11  24
HETATM   24  O2  UNL     1      -4.500   4.583  10.299  1.00  0.00    -0.385 OA
ATOM     25  H2  UNL     1      -4.116   3.874   9.796  1.00  0.00     0.210 HD
ENDBRANCH  11  24
TORSDOF 3
ENDMDL
MODEL 5
REMARK VINA RESULT: -6.124775312      2.270      5.903
REMARK  3 active torsions:
REMARK  status: ('A' for Active; 'I' for Inactive)
REMARK       I    between atoms: C2_2  and  N1_4 
REMARK    1  A    between atoms: N1_4  and  C4_6 
REMARK    2  A    between atoms: C7_9  and  N2_10 
REMARK    3  A    between atoms: C14_22  and  O2_24 
ROOT
HETATM    1  C4  UNL     1      -3.576   2.808  14.272  1.00  0.00     0.146 C 
HETATM    2  C5  UNL     1      -2.844   3.820  15.027  1.00  0.00     0.001 C 
HETATM    3  C6  UNL     1      -2.133   4.848  14.639  1.00  0.00     0.027 C 
HETATM    4  C7  UNL     1      -1.877   5.272  13.240  1.00  0.00     0.330 C 
HETATM    5  N4  UNL     1      -3.163   5.300  12.591  1.00  0.00    -0.038 N 
ATOM      6  H41 UNL     1      -3.191   6.042  11.892  1.00  0.00     0.281 HD
ATOM      7  H42 UNL     1      -3.877   5.639  13.236  1.00  0.00     0.281 HD
HETATM    8  C11 UNL     1      -3.564   4.066  12.017  1.00  0.00     0.153 C 
HETATM    9  C12 UNL     1      -4.887   4.399  11.289  1.00  0.00     0.049 C 
HETATM   10  C13 UNL     1      -2.607   3.889  10.812  1.00  0.00     0.049 C 
HETATM   11  C14 UNL     1      -3.622   2.861  12.824  1.00  0.00     0.110 C 
HETATM   12  C15 UNL     1      -4.883   2.084  12.381  1.00  0.00     0.051 C 
ENDROOT
BRANCH   4  13
HETATM   13  N2  UNL     1      -1.378   6.635  13.256  1.00  0.00    -0.269 N 
HETATM   14  C8  UNL     1      -1.780   7.652  14.166  1.00  0.00     0.114 A 
HETATM   15  C9  UNL     1      -1.113   8.750  13.871  1.00  0.00     0.037 A 
HETATM   16  C10 UNL     1      -0.258   8.429  12.742  1.00  0.00     0.108 A 
HETATM   17  N3  UNL     1      -0.422   7.194  12.393  1.00  0.00    -0.308 N 
ATOM     18  H3  UNL     1       0.055   6.714  11.630  1.00  0.00     0.186 HD
ENDBRANCH   4  13
BRANCH   1  19
HETATM   19  N1  UNL     1      -4.859   2.678  14.950  1.00  0.00    -0.346 N 
HETATM   20  C2  UNL     1      -5.143   1.627  15.886  1.00  0.00     0.216 C 
HETATM   21  C1  UNL     1      -6.427   1.503  16.572  1.00  0.00     0.117 C 
HETATM   22  O1  UNL     1      -4.192   0.796  16.085  1.00  0.00    -0.274 OA
HETATM   23  C3  UNL     1      -5.941   3.618  14.733  1.00  0.00     0.153 C 
ENDBRANCH   1  19
BRANCH  11  24
HETATM   24  O2  UNL     1      -2.601   1.983  12.332  1.00  0.00    -0.385 OA
ATOM     25  H2  UNL     1      -2.961   1.521  11.584  1.00  0.00     0.210 HD
ENDBRANCH  11  24
TORSDOF 3
ENDMDL
