MODEL 1
REMARK VINA RESULT: -8.620645530      0.000      0.000
REMARK  8 active torsions:
REMARK  status: ('A' for Active; 'I' for Inactive)
REMARK    1  A    between atoms: O1_2  and  C2_3 
REMARK    2  A    between atoms: C5_8  and  N2_9 
REMARK    3  A    between atoms: C6_14  and  C7_15 
REMARK    4  A    between atoms: N5_16  and  N6_18 
REMARK    5  A    between atoms: N10_27  and  N11_29 
REMARK    6  A    between atoms: C10_31  and  C11_32 
REMARK    7  A    between atoms: C15_36  and  O2_37 
REMARK    8  A    between atoms: C16_39  and  O3_40 
ROOT
HETATM    1  N6  UNL     1      11.957   3.771 103.996  1.00  0.00    -0.131 N 
ATOM      2  H6  UNL     1      12.508   3.918 103.150  1.00  0.00     0.205 HD
HETATM    3  C8  UNL     1      12.313   2.820 104.782  1.00  0.00     0.724 C 
HETATM    4  N7  UNL     1      13.428   1.981 104.520  1.00  0.00    -0.114 N 
ATOM      5  H7  UNL     1      13.763   1.891 103.561  1.00  0.00     0.203 HD
HETATM    6  N8  UNL     1      14.079   1.272 105.536  1.00  0.00     0.007 NA
HETATM    7  N9  UNL     1      13.148   0.753 106.419  1.00  0.00    -0.114 N 
ATOM      8  H9  UNL     1      13.278  -0.186 106.798  1.00  0.00     0.203 HD
HETATM    9  C9  UNL     1      12.023   1.512 106.798  1.00  0.00     0.724 C 
HETATM   10  N10 UNL     1      11.399   1.240 107.889  1.00  0.00    -0.131 N 
ATOM     11  H10 UNL     1      10.587   1.801 108.143  1.00  0.00     0.205 HD
HETATM   12  N12 UNL     1      11.566   2.590 105.969  1.00  0.00    -0.018 N 
ATOM     13  H12 UNL     1      10.755   3.157 106.217  1.00  0.00     0.203 HD
ENDROOT
BRANCH   1  14
HETATM   14  N5  UNL     1      10.883   4.607 104.214  1.00  0.00    -0.294 N 
HETATM   15  C7  UNL     1      10.796   5.812 103.776  1.00  0.00     0.159 C 
ATOM     16  H5  UNL     1      10.103   4.244 104.763  1.00  0.00     0.186 HD
BRANCH  15  17
HETATM   17  C6  UNL     1      11.839   6.446 102.982  1.00  0.00     0.154 A 
HETATM   18  N4  UNL     1      12.719   7.338 103.478  1.00  0.00    -0.267 N 
HETATM   19  N3  UNL     1      13.514   7.701 102.480  1.00  0.00    -0.218 N 
ATOM     20  H4  UNL     1      12.764   7.673 104.440  1.00  0.00     0.190 HD
HETATM   21  N2  UNL     1      13.177   7.077 101.372  1.00  0.00    -0.161 N 
ATOM     22  H3  UNL     1      14.279   8.370 102.560  1.00  0.00     0.210 HD
HETATM   23  N13 UNL     1      12.149   6.313 101.702  1.00  0.00    -0.259 N 
ATOM     24  H13 UNL     1      11.658   5.699 101.052  1.00  0.00     0.191 HD
BRANCH  21  25
HETATM   25  C5  UNL     1      13.801   7.212 100.102  1.00  0.00     0.180 A 
HETATM   26  C2  UNL     1      13.452   8.017  99.047  1.00  0.00     0.117 A 
HETATM   27  C3  UNL     1      14.356   7.794  98.044  1.00  0.00     0.058 A 
HETATM   28  C4  UNL     1      15.262   6.851  98.477  1.00  0.00     0.092 A 
HETATM   29  N1  UNL     1      14.910   6.515  99.717  1.00  0.00    -0.347 N 
ATOM     30  H1  UNL     1      15.399   5.834 100.297  1.00  0.00     0.167 HD
BRANCH  26  31
HETATM   31  O1  UNL     1      12.399   8.902  98.964  1.00  0.00    -0.352 OA
HETATM   32  C1  UNL     1      11.070   8.547  98.752  1.00  0.00     0.210 C 
ENDBRANCH  26  31
ENDBRANCH  21  25
ENDBRANCH  15  17
ENDBRANCH   1  14
BRANCH  10  33
HETATM   33  N11 UNL     1      11.770   0.263 108.692  1.00  0.00    -0.297 N 
HETATM   34  C10 UNL     1      11.824   0.075 109.904  1.00  0.00     0.122 C 
ATOM     35  H11 UNL     1      12.099  -0.549 108.170  1.00  0.00     0.186 HD
BRANCH  34  36
HETATM   36  C11 UNL     1      11.449   0.987 110.968  1.00  0.00     0.017 A 
HETATM   37  C12 UNL     1      10.160   1.346 111.220  1.00  0.00     0.016 A 
HETATM   38  C13 UNL     1       9.792   2.226 112.244  1.00  0.00     0.004 A 
HETATM   39  C14 UNL     1      10.784   2.736 113.017  1.00  0.00     0.039 A 
HETATM   40  C15 UNL     1      12.092   2.410 112.809  1.00  0.00     0.099 A 
HETATM   41  C16 UNL     1      12.444   1.538 111.790  1.00  0.00     0.110 A 
BRANCH  40  42
HETATM   42  O2  UNL     1      13.118   2.927 113.595  1.00  0.00    -0.358 OA
ATOM     43  H2  UNL     1      13.252   3.862 113.701  1.00  0.00     0.217 HD
ENDBRANCH  40  42
BRANCH  41  44
HETATM   44  O3  UNL     1      13.764   1.232 111.609  1.00  0.00    -0.357 OA
ATOM     45  H3  UNL     1      14.450   1.828 111.886  1.00  0.00     0.217 HD
ENDBRANCH  41  44
ENDBRANCH  34  36
ENDBRANCH  10  33
TORSDOF 8
ENDMDL
MODEL 2
REMARK VINA RESULT: -8.572572966      3.003      4.321
REMARK  8 active torsions:
REMARK  status: ('A' for Active; 'I' for Inactive)
REMARK    1  A    between atoms: O1_2  and  C2_3 
REMARK    2  A    between atoms: C5_8  and  N2_9 
REMARK    3  A    between atoms: C6_14  and  C7_15 
REMARK    4  A    between atoms: N5_16  and  N6_18 
REMARK    5  A    between atoms: N10_27  and  N11_29 
REMARK    6  A    between atoms: C10_31  and  C11_32 
REMARK    7  A    between atoms: C15_36  and  O2_37 
REMARK    8  A    between atoms: C16_39  and  O3_40 
ROOT
HETATM    1  N6  UNL     1       7.987   5.713 104.207  1.00  0.00    -0.131 N 
ATOM      2  H6  UNL     1       7.956   6.698 103.944  1.00  0.00     0.205 HD
HETATM    3  C8  UNL     1       8.451   5.420 105.368  1.00  0.00     0.724 C 
HETATM    4  N7  UNL     1       8.915   6.402 106.283  1.00  0.00    -0.114 N 
ATOM      5  H7  UNL     1       9.201   7.313 105.925  1.00  0.00     0.203 HD
HETATM    6  N8  UNL     1       8.991   6.158 107.658  1.00  0.00     0.007 NA
HETATM    7  N9  UNL     1       9.465   4.877 107.884  1.00  0.00    -0.114 N 
ATOM      8  H9  UNL     1      10.127   4.708 108.641  1.00  0.00     0.203 HD
HETATM    9  C9  UNL     1       9.037   3.806 107.074  1.00  0.00     0.724 C 
HETATM   10  N10 UNL     1       9.122   2.597 107.507  1.00  0.00    -0.131 N 
ATOM     11  H10 UNL     1       8.808   1.837 106.903  1.00  0.00     0.205 HD
HETATM   12  N12 UNL     1       8.507   4.056 105.765  1.00  0.00    -0.018 N 
ATOM     13  H12 UNL     1       8.190   3.301 105.156  1.00  0.00     0.203 HD
ENDROOT
BRANCH   1  14
HETATM   14  N5  UNL     1       7.527   4.790 103.292  1.00  0.00    -0.294 N 
HETATM   15  C7  UNL     1       8.170   4.420 102.243  1.00  0.00     0.159 C 
ATOM     16  H5  UNL     1       6.612   4.371 103.459  1.00  0.00     0.186 HD
BRANCH  15  17
HETATM   17  C6  UNL     1       9.484   4.942 101.892  1.00  0.00     0.154 A 
HETATM   18  N4  UNL     1      10.640   4.307 102.172  1.00  0.00    -0.267 N 
HETATM   19  N3  UNL     1      11.625   5.066 101.711  1.00  0.00    -0.218 N 
ATOM     20  H4  UNL     1      10.739   3.412 102.650  1.00  0.00     0.190 HD
HETATM   21  N2  UNL     1      11.145   6.154 101.150  1.00  0.00    -0.161 N 
ATOM     22  H3  UNL     1      12.617   4.838 101.781  1.00  0.00     0.210 HD
HETATM   23  N13 UNL     1       9.832   6.058 101.272  1.00  0.00    -0.259 N 
ATOM     24  H13 UNL     1       9.170   6.756 100.931  1.00  0.00     0.191 HD
BRANCH  21  25
HETATM   25  C5  UNL     1      11.898   7.199 100.547  1.00  0.00     0.180 A 
HETATM   26  C2  UNL     1      13.099   7.130  99.886  1.00  0.00     0.117 A 
HETATM   27  C3  UNL     1      13.420   8.399  99.486  1.00  0.00     0.058 A 
HETATM   28  C4  UNL     1      12.421   9.251  99.901  1.00  0.00     0.092 A 
HETATM   29  N1  UNL     1      11.516   8.509 100.537  1.00  0.00    -0.347 N 
ATOM     30  H1  UNL     1      10.658   8.868 100.957  1.00  0.00     0.167 HD
BRANCH  26  31
HETATM   31  O1  UNL     1      13.874   6.017  99.642  1.00  0.00    -0.352 OA
HETATM   32  C1  UNL     1      15.051   6.008  98.899  1.00  0.00     0.210 C 
ENDBRANCH  26  31
ENDBRANCH  21  25
ENDBRANCH  15  17
ENDBRANCH   1  14
BRANCH  10  33
HETATM   33  N11 UNL     1       9.599   2.304 108.699  1.00  0.00    -0.297 N 
HETATM   34  C10 UNL     1      10.514   1.622 109.152  1.00  0.00     0.122 C 
ATOM     35  H11 UNL     1       9.069   2.762 109.440  1.00  0.00     0.186 HD
BRANCH  34  36
HETATM   36  C11 UNL     1      11.480   0.823 108.421  1.00  0.00     0.017 A 
HETATM   37  C12 UNL     1      12.026   1.216 107.237  1.00  0.00     0.016 A 
HETATM   38  C13 UNL     1      12.958   0.450 106.527  1.00  0.00     0.004 A 
HETATM   39  C14 UNL     1      13.324  -0.743 107.063  1.00  0.00     0.039 A 
HETATM   40  C15 UNL     1      12.808  -1.185 108.245  1.00  0.00     0.099 A 
HETATM   41  C16 UNL     1      11.886  -0.416 108.938  1.00  0.00     0.110 A 
BRANCH  40  42
HETATM   42  O2  UNL     1      13.176  -2.406 108.803  1.00  0.00    -0.358 OA
ATOM     43  H2  UNL     1      13.062  -2.595 109.727  1.00  0.00     0.217 HD
ENDBRANCH  40  42
BRANCH  41  44
HETATM   44  O3  UNL     1      11.389  -0.889 110.121  1.00  0.00    -0.357 OA
ATOM     45  H3  UNL     1      11.863  -0.776 110.936  1.00  0.00     0.217 HD
ENDBRANCH  41  44
ENDBRANCH  34  36
ENDBRANCH  10  33
TORSDOF 8
ENDMDL
MODEL 3
REMARK VINA RESULT: -8.512791703      1.102      1.609
REMARK  8 active torsions:
REMARK  status: ('A' for Active; 'I' for Inactive)
REMARK    1  A    between atoms: O1_2  and  C2_3 
REMARK    2  A    between atoms: C5_8  and  N2_9 
REMARK    3  A    between atoms: C6_14  and  C7_15 
REMARK    4  A    between atoms: N5_16  and  N6_18 
REMARK    5  A    between atoms: N10_27  and  N11_29 
REMARK    6  A    between atoms: C10_31  and  C11_32 
REMARK    7  A    between atoms: C15_36  and  O2_37 
REMARK    8  A    between atoms: C16_39  and  O3_40 
ROOT
HETATM    1  N6  UNL     1      11.280   4.411 104.280  1.00  0.00    -0.131 N 
ATOM      2  H6  UNL     1      11.712   4.576 103.371  1.00  0.00     0.205 HD
HETATM    3  C8  UNL     1      11.669   3.386 104.949  1.00  0.00     0.724 C 
HETATM    4  N7  UNL     1      12.662   2.488 104.475  1.00  0.00    -0.114 N 
ATOM      5  H7  UNL     1      12.847   2.441 103.473  1.00  0.00     0.203 HD
HETATM    6  N8  UNL     1      13.395   1.668 105.339  1.00  0.00     0.007 NA
HETATM    7  N9  UNL     1      12.564   1.156 106.320  1.00  0.00    -0.114 N 
ATOM      8  H9  UNL     1      12.671   0.187 106.621  1.00  0.00     0.203 HD
HETATM    9  C9  UNL     1      11.570   1.966 106.906  1.00  0.00     0.724 C 
HETATM   10  N10 UNL     1      11.092   1.664 108.062  1.00  0.00    -0.131 N 
ATOM     11  H10 UNL     1      10.372   2.263 108.467  1.00  0.00     0.205 HD
HETATM   12  N12 UNL     1      11.086   3.128 106.219  1.00  0.00    -0.018 N 
ATOM     13  H12 UNL     1      10.368   3.733 106.618  1.00  0.00     0.203 HD
ENDROOT
BRANCH   1  14
HETATM   14  N5  UNL     1      10.321   5.305 104.705  1.00  0.00    -0.294 N 
HETATM   15  C7  UNL     1      10.220   6.518 104.293  1.00  0.00     0.159 C 
ATOM     16  H5  UNL     1       9.642   4.980 105.395  1.00  0.00     0.186 HD
BRANCH  15  17
HETATM   17  C6  UNL     1      11.124   7.100 103.312  1.00  0.00     0.154 A 
HETATM   18  N4  UNL     1      12.319   7.641 103.623  1.00  0.00    -0.267 N 
HETATM   19  N3  UNL     1      12.863   8.069 102.491  1.00  0.00    -0.218 N 
ATOM     20  H4  UNL     1      12.728   7.709 104.555  1.00  0.00     0.190 HD
HETATM   21  N2  UNL     1      12.065   7.823 101.475  1.00  0.00    -0.161 N 
ATOM     22  H3  UNL     1      13.772   8.525 102.419  1.00  0.00     0.210 HD
HETATM   23  N13 UNL     1      11.006   7.230 102.000  1.00  0.00    -0.259 N 
ATOM     24  H13 UNL     1      10.200   6.911 101.461  1.00  0.00     0.191 HD
BRANCH  21  25
HETATM   25  C5  UNL     1      12.311   8.138 100.111  1.00  0.00     0.180 A 
HETATM   26  C2  UNL     1      13.492   8.103  99.413  1.00  0.00     0.117 A 
HETATM   27  C3  UNL     1      13.223   8.493  98.130  1.00  0.00     0.058 A 
HETATM   28  C4  UNL     1      11.876   8.770  98.033  1.00  0.00     0.092 A 
HETATM   29  N1  UNL     1      11.348   8.550  99.236  1.00  0.00    -0.347 N 
ATOM     30  H1  UNL     1      10.362   8.672  99.470  1.00  0.00     0.167 HD
BRANCH  26  31
HETATM   31  O1  UNL     1      14.742   7.749  99.873  1.00  0.00    -0.352 OA
HETATM   32  C1  UNL     1      15.663   6.976  99.172  1.00  0.00     0.210 C 
ENDBRANCH  26  31
ENDBRANCH  21  25
ENDBRANCH  15  17
ENDBRANCH   1  14
BRANCH  10  33
HETATM   33  N11 UNL     1      11.495   0.611 108.743  1.00  0.00    -0.297 N 
HETATM   34  C10 UNL     1      11.651   0.317 109.924  1.00  0.00     0.122 C 
ATOM     35  H11 UNL     1      11.744  -0.163 108.127  1.00  0.00     0.186 HD
BRANCH  34  36
HETATM   36  C11 UNL     1      11.410   1.146 111.091  1.00  0.00     0.017 A 
HETATM   37  C12 UNL     1      10.165   1.543 111.476  1.00  0.00     0.016 A 
HETATM   38  C13 UNL     1       9.925   2.342 112.600  1.00  0.00     0.004 A 
HETATM   39  C14 UNL     1      11.001   2.730 113.331  1.00  0.00     0.039 A 
HETATM   40  C15 UNL     1      12.269   2.361 112.992  1.00  0.00     0.099 A 
HETATM   41  C16 UNL     1      12.493   1.569 111.876  1.00  0.00     0.110 A 
BRANCH  40  42
HETATM   42  O2  UNL     1      13.379   2.753 113.734  1.00  0.00    -0.358 OA
ATOM     43  H2  UNL     1      13.862   2.144 114.282  1.00  0.00     0.217 HD
ENDBRANCH  40  42
BRANCH  41  44
HETATM   44  O3  UNL     1      13.776   1.217 111.563  1.00  0.00    -0.357 OA
ATOM     45  H3  UNL     1      14.511   1.517 112.085  1.00  0.00     0.217 HD
ENDBRANCH  41  44
ENDBRANCH  34  36
ENDBRANCH  10  33
TORSDOF 8
ENDMDL
MODEL 4
REMARK VINA RESULT: -8.367711815      1.133      1.407
REMARK  8 active torsions:
REMARK  status: ('A' for Active; 'I' for Inactive)
REMARK    1  A    between atoms: O1_2  and  C2_3 
REMARK    2  A    between atoms: C5_8  and  N2_9 
REMARK    3  A    between atoms: C6_14  and  C7_15 
REMARK    4  A    between atoms: N5_16  and  N6_18 
REMARK    5  A    between atoms: N10_27  and  N11_29 
REMARK    6  A    between atoms: C10_31  and  C11_32 
REMARK    7  A    between atoms: C15_36  and  O2_37 
REMARK    8  A    between atoms: C16_39  and  O3_40 
ROOT
HETATM    1  N6  UNL     1      11.980   3.788 104.132  1.00  0.00    -0.131 N 
ATOM      2  H6  UNL     1      12.551   3.968 103.306  1.00  0.00     0.205 HD
HETATM    3  C8  UNL     1      12.335   2.824 104.903  1.00  0.00     0.724 C 
HETATM    4  N7  UNL     1      13.473   2.014 104.651  1.00  0.00    -0.114 N 
ATOM      5  H7  UNL     1      13.837   1.956 103.700  1.00  0.00     0.203 HD
HETATM    6  N8  UNL     1      14.111   1.293 105.665  1.00  0.00     0.007 NA
HETATM    7  N9  UNL     1      13.168   0.731 106.508  1.00  0.00    -0.114 N 
ATOM      8  H9  UNL     1      13.307  -0.214 106.866  1.00  0.00     0.203 HD
HETATM    9  C9  UNL     1      12.017   1.457 106.875  1.00  0.00     0.724 C 
HETATM   10  N10 UNL     1      11.370   1.143 107.942  1.00  0.00    -0.131 N 
ATOM     11  H10 UNL     1      10.539   1.681 108.187  1.00  0.00     0.205 HD
HETATM   12  N12 UNL     1      11.560   2.547 106.063  1.00  0.00    -0.018 N 
ATOM     13  H12 UNL     1      10.731   3.091 106.302  1.00  0.00     0.203 HD
ENDROOT
BRANCH   1  14
HETATM   14  N5  UNL     1      10.884   4.596 104.342  1.00  0.00    -0.294 N 
HETATM   15  C7  UNL     1      10.767   5.796 103.899  1.00  0.00     0.159 C 
ATOM     16  H5  UNL     1      10.111   4.214 104.887  1.00  0.00     0.186 HD
BRANCH  15  17
HETATM   17  C6  UNL     1      11.797   6.455 103.109  1.00  0.00     0.154 A 
HETATM   18  N4  UNL     1      12.628   7.397 103.598  1.00  0.00    -0.267 N 
HETATM   19  N3  UNL     1      13.427   7.769 102.607  1.00  0.00    -0.218 N 
ATOM     20  H4  UNL     1      12.640   7.757 104.553  1.00  0.00     0.190 HD
HETATM   21  N2  UNL     1      13.139   7.105 101.509  1.00  0.00    -0.161 N 
ATOM     22  H3  UNL     1      14.161   8.473 102.685  1.00  0.00     0.210 HD
HETATM   23  N13 UNL     1      12.138   6.305 101.839  1.00  0.00    -0.259 N 
ATOM     24  H13 UNL     1      11.686   5.655 101.195  1.00  0.00     0.191 HD
BRANCH  21  25
HETATM   25  C5  UNL     1      13.781   7.235 100.248  1.00  0.00     0.180 A 
HETATM   26  C2  UNL     1      13.376   7.934  99.137  1.00  0.00     0.117 A 
HETATM   27  C3  UNL     1      14.328   7.757  98.171  1.00  0.00     0.058 A 
HETATM   28  C4  UNL     1      15.321   6.949  98.682  1.00  0.00     0.092 A 
HETATM   29  N1  UNL     1      14.972   6.647  99.931  1.00  0.00    -0.347 N 
ATOM     30  H1  UNL     1      15.517   6.060 100.563  1.00  0.00     0.167 HD
BRANCH  26  31
HETATM   31  O1  UNL     1      12.234   8.688  98.977  1.00  0.00    -0.352 OA
HETATM   32  C1  UNL     1      11.546   8.852  97.778  1.00  0.00     0.210 C 
ENDBRANCH  26  31
ENDBRANCH  21  25
ENDBRANCH  15  17
ENDBRANCH   1  14
BRANCH  10  33
HETATM   33  N11 UNL     1      11.739   0.153 108.729  1.00  0.00    -0.297 N 
HETATM   34  C10 UNL     1      11.919  -0.011 109.932  1.00  0.00     0.122 C 
ATOM     35  H11 UNL     1      11.923  -0.699 108.201  1.00  0.00     0.186 HD
BRANCH  34  36
HETATM   36  C11 UNL     1      11.763   0.958 111.000  1.00  0.00     0.017 A 
HETATM   37  C12 UNL     1      12.802   1.391 111.768  1.00  0.00     0.016 A 
HETATM   38  C13 UNL     1      12.659   2.325 112.800  1.00  0.00     0.004 A 
HETATM   39  C14 UNL     1      11.415   2.815 113.032  1.00  0.00     0.039 A 
HETATM   40  C15 UNL     1      10.340   2.417 112.293  1.00  0.00     0.099 A 
HETATM   41  C16 UNL     1      10.495   1.491 111.274  1.00  0.00     0.110 A 
BRANCH  40  42
HETATM   42  O2  UNL     1       9.060   2.913 112.522  1.00  0.00    -0.358 OA
ATOM     43  H2  UNL     1       8.400   2.947 111.838  1.00  0.00     0.217 HD
ENDBRANCH  40  42
BRANCH  41  44
HETATM   44  O3  UNL     1       9.396   1.113 110.552  1.00  0.00    -0.357 OA
ATOM     45  H3  UNL     1       9.461   0.474 109.853  1.00  0.00     0.217 HD
ENDBRANCH  41  44
ENDBRANCH  34  36
ENDBRANCH  10  33
TORSDOF 8
ENDMDL
MODEL 5
REMARK VINA RESULT: -8.233749302      1.484      2.063
REMARK  8 active torsions:
REMARK  status: ('A' for Active; 'I' for Inactive)
REMARK    1  A    between atoms: O1_2  and  C2_3 
REMARK    2  A    between atoms: C5_8  and  N2_9 
REMARK    3  A    between atoms: C6_14  and  C7_15 
REMARK    4  A    between atoms: N5_16  and  N6_18 
REMARK    5  A    between atoms: N10_27  and  N11_29 
REMARK    6  A    between atoms: C10_31  and  C11_32 
REMARK    7  A    between atoms: C15_36  and  O2_37 
REMARK    8  A    between atoms: C16_39  and  O3_40 
ROOT
HETATM    1  N6  UNL     1      11.536   4.193 104.222  1.00  0.00    -0.131 N 
ATOM      2  H6  UNL     1      12.028   4.410 103.355  1.00  0.00     0.205 HD
HETATM    3  C8  UNL     1      11.948   3.188 104.907  1.00  0.00     0.724 C 
HETATM    4  N7  UNL     1      13.047   2.382 104.507  1.00  0.00    -0.114 N 
ATOM      5  H7  UNL     1      13.319   2.370 103.524  1.00  0.00     0.203 HD
HETATM    6  N8  UNL     1      13.768   1.604 105.419  1.00  0.00     0.007 NA
HETATM    7  N9  UNL     1      12.901   1.009 106.319  1.00  0.00    -0.114 N 
ATOM      8  H9  UNL     1      13.061   0.045 106.614  1.00  0.00     0.203 HD
HETATM    9  C9  UNL     1      11.800   1.725 106.829  1.00  0.00     0.724 C 
HETATM   10  N10 UNL     1      11.252   1.363 107.935  1.00  0.00    -0.131 N 
ATOM     11  H10 UNL     1      10.455   1.895 108.285  1.00  0.00     0.205 HD
HETATM   12  N12 UNL     1      11.283   2.859 106.119  1.00  0.00    -0.018 N 
ATOM     13  H12 UNL     1      10.487   3.397 106.463  1.00  0.00     0.203 HD
ENDROOT
BRANCH   1  14
HETATM   14  N5  UNL     1      10.475   4.999 104.575  1.00  0.00    -0.294 N 
HETATM   15  C7  UNL     1      10.285   6.190 104.133  1.00  0.00     0.159 C 
ATOM     16  H5  UNL     1       9.793   4.623 105.234  1.00  0.00     0.186 HD
BRANCH  15  17
HETATM   17  C6  UNL     1      11.184   6.840 103.190  1.00  0.00     0.154 A 
HETATM   18  N4  UNL     1      12.380   7.360 103.532  1.00  0.00    -0.267 N 
HETATM   19  N3  UNL     1      12.918   7.865 102.430  1.00  0.00    -0.218 N 
ATOM     20  H4  UNL     1      12.792   7.366 104.465  1.00  0.00     0.190 HD
HETATM   21  N2  UNL     1      12.117   7.687 101.402  1.00  0.00    -0.161 N 
ATOM     22  H3  UNL     1      13.827   8.326 102.385  1.00  0.00     0.210 HD
HETATM   23  N13 UNL     1      11.061   7.057 101.890  1.00  0.00    -0.259 N 
ATOM     24  H13 UNL     1      10.253   6.774 101.334  1.00  0.00     0.191 HD
BRANCH  21  25
HETATM   25  C5  UNL     1      12.356   8.094 100.062  1.00  0.00     0.180 A 
HETATM   26  C2  UNL     1      13.540   8.134  99.367  1.00  0.00     0.117 A 
HETATM   27  C3  UNL     1      13.262   8.597  98.110  1.00  0.00     0.058 A 
HETATM   28  C4  UNL     1      11.909   8.844  98.026  1.00  0.00     0.092 A 
HETATM   29  N1  UNL     1      11.384   8.534  99.211  1.00  0.00    -0.347 N 
ATOM     30  H1  UNL     1      10.396   8.615  99.449  1.00  0.00     0.167 HD
BRANCH  26  31
HETATM   31  O1  UNL     1      14.798   7.785  99.808  1.00  0.00    -0.352 OA
HETATM   32  C1  UNL     1      15.656   6.902  99.160  1.00  0.00     0.210 C 
ENDBRANCH  26  31
ENDBRANCH  21  25
ENDBRANCH  15  17
ENDBRANCH   1  14
BRANCH  10  33
HETATM   33  N11 UNL     1      11.680   0.331 108.633  1.00  0.00    -0.297 N 
HETATM   34  C10 UNL     1      11.927   0.091 109.811  1.00  0.00     0.122 C 
ATOM     35  H11 UNL     1      11.852  -0.480 108.040  1.00  0.00     0.186 HD
BRANCH  34  36
HETATM   36  C11 UNL     1      11.812   0.983 110.950  1.00  0.00     0.017 A 
HETATM   37  C12 UNL     1      12.879   1.370 111.702  1.00  0.00     0.016 A 
HETATM   38  C13 UNL     1      12.775   2.230 112.801  1.00  0.00     0.004 A 
HETATM   39  C14 UNL     1      11.539   2.693 113.117  1.00  0.00     0.039 A 
HETATM   40  C15 UNL     1      10.436   2.338 112.398  1.00  0.00     0.099 A 
HETATM   41  C16 UNL     1      10.553   1.485 111.311  1.00  0.00     0.110 A 
BRANCH  40  42
HETATM   42  O2  UNL     1       9.164   2.807 112.713  1.00  0.00    -0.358 OA
ATOM     43  H2  UNL     1       8.375   2.350 112.444  1.00  0.00     0.217 HD
ENDBRANCH  40  42
BRANCH  41  44
HETATM   44  O3  UNL     1       9.427   1.149 110.612  1.00  0.00    -0.357 OA
ATOM     45  H3  UNL     1       8.590   1.042 111.047  1.00  0.00     0.217 HD
ENDBRANCH  41  44
ENDBRANCH  34  36
ENDBRANCH  10  33
TORSDOF 8
ENDMDL
