MODEL 1
REMARK VINA RESULT: -9.286014926      0.000      0.000
REMARK  19 active torsions:
REMARK  status: ('A' for Active; 'I' for Inactive)
REMARK    1  A    between atoms: C2_2  and  N1_3 
REMARK    2  A    between atoms: N2_11  and  C9_12 
REMARK    3  A    between atoms: C9_12  and  O2_14 
REMARK    4  A    between atoms: C9_12  and  C11_16 
REMARK    5  A    between atoms: C11_16  and  N3_17 
REMARK    6  A    between atoms: C11_16  and  C28_42 
REMARK    7  A    between atoms: N3_17  and  C12_19 
REMARK    8  A    between atoms: C12_19  and  C13_20 
REMARK    9  A    between atoms: C13_20  and  C14_21 
REMARK   10  A    between atoms: C14_21  and  C15_22 
REMARK   11  A    between atoms: C15_22  and  C16_23 
REMARK   12  A    between atoms: C16_23  and  N4_24 
REMARK   13  A    between atoms: C16_23  and  C17_28 
REMARK   14  A    between atoms: C17_28  and  C18_29 
REMARK       I    between atoms: C18_29  and  N5_31 
REMARK   15  A    between atoms: N6_34  and  C21_35 
REMARK   16  A    between atoms: C21_35  and  C22_36 
REMARK   17  A    between atoms: C22_36  and  C23_37 
REMARK   18  A    between atoms: C31_45  and  C32_46 
REMARK   19  A    between atoms: C32_46  and  N7_47 
ROOT
HETATM    1  C11 UNL     1      19.932  -2.690  16.094  1.00  0.00     0.169 C 
ENDROOT
BRANCH   1   2
HETATM    2  C9  UNL     1      20.759  -2.458  17.284  1.00  0.00     0.157 C 
HETATM    3  C10 UNL     1      22.157  -3.031  17.186  1.00  0.00     0.074 C 
BRANCH   2   4
HETATM    4  N2  UNL     1      20.724  -1.195  17.959  1.00  0.00    -0.314 N 
HETATM    5  C8  UNL     1      19.485  -0.562  18.249  1.00  0.00     0.228 C 
HETATM    6  C7  UNL     1      19.307   0.913  18.097  1.00  0.00     0.161 C 
HETATM    7  O1  UNL     1      18.500  -1.203  18.642  1.00  0.00    -0.273 OA
HETATM    8  C6  UNL     1      20.477   1.601  18.711  1.00  0.00     0.029 A 
HETATM    9  N1  UNL     1      20.654   2.808  19.226  1.00  0.00    -0.353 N 
HETATM   10  C5  UNL     1      21.650   0.917  18.810  1.00  0.00    -0.009 A 
HETATM   11  C3  UNL     1      21.917   2.947  19.666  1.00  0.00     0.018 A 
HETATM   12  C4  UNL     1      22.584   1.766  19.420  1.00  0.00    -0.025 A 
HETATM   13  C38 UNL     1      22.837   3.935  20.325  1.00  0.00     0.058 C 
HETATM   14  C36 UNL     1      23.990   1.916  19.910  1.00  0.00     0.041 C 
HETATM   15  C37 UNL     1      24.194   3.396  20.013  1.00  0.00     0.011 C 
HETATM   16  C35 UNL     1      21.918  -0.457  18.364  1.00  0.00     0.170 C 
BRANCH   9  17
HETATM   17  C2  UNL     1      19.586   3.812  19.280  1.00  0.00     0.124 C 
HETATM   18  C1  UNL     1      18.626   3.546  20.404  1.00  0.00     0.027 C 
ENDBRANCH   9  17
ENDBRANCH   2   4
BRANCH   2  19
HETATM   19  O2  UNL     1      20.154  -3.347  18.257  1.00  0.00    -0.369 OA
ATOM     20  H2  UNL     1      20.084  -4.162  17.772  1.00  0.00     0.212 HD
ENDBRANCH   2  19
ENDBRANCH   1   2
BRANCH   1  21
HETATM   21  N3  UNL     1      18.607  -3.096  16.139  1.00  0.00    -0.389 N 
ATOM     22  H3  UNL     1      18.343  -3.817  16.810  1.00  0.00     0.159 HD
BRANCH  21  23
HETATM   23  C12 UNL     1      17.609  -2.560  15.302  1.00  0.00     0.056 C 
BRANCH  23  24
HETATM   24  C13 UNL     1      16.574  -3.530  14.810  1.00  0.00     0.044 C 
BRANCH  24  25
HETATM   25  C14 UNL     1      16.836  -4.947  15.182  1.00  0.00     0.007 C 
BRANCH  25  26
HETATM   26  C15 UNL     1      15.993  -6.009  14.678  1.00  0.00     0.037 C 
BRANCH  26  27
HETATM   27  C16 UNL     1      15.208  -5.932  13.425  1.00  0.00     0.211 C 
BRANCH  27  28
HETATM   28  N4  UNL     1      14.124  -7.008  13.515  1.00  0.00    -0.072 N 
ATOM     29  H43 UNL     1      13.807  -7.179  14.469  1.00  0.00     0.275 HD
ATOM     30  H42 UNL     1      13.228  -6.708  13.132  1.00  0.00     0.275 HD
ATOM     31  H41 UNL     1      14.496  -7.841  13.059  1.00  0.00     0.275 HD
ENDBRANCH  27  28
BRANCH  27  32
HETATM   32  C17 UNL     1      15.866  -6.340  12.146  1.00  0.00     0.079 C 
BRANCH  32  33
HETATM   33  C18 UNL     1      17.268  -6.617  12.047  1.00  0.00     0.241 C 
HETATM   34  O3  UNL     1      18.141  -5.751  11.884  1.00  0.00    -0.269 OA
HETATM   35  N5  UNL     1      17.726  -7.969  12.141  1.00  0.00    -0.346 N 
HETATM   36  C19 UNL     1      16.849  -9.099  12.328  1.00  0.00     0.156 C 
HETATM   37  C27 UNL     1      19.131  -8.246  12.050  1.00  0.00     0.156 C 
HETATM   38  C20 UNL     1      17.192  -9.635  13.724  1.00  0.00     0.292 C 
HETATM   39  N6  UNL     1      18.588  -9.919  13.759  1.00  0.00     0.091 N 
HETATM   40  C26 UNL     1      19.337  -9.651  12.588  1.00  0.00     0.292 C 
BRANCH  39  41
HETATM   41  C21 UNL     1      18.777 -11.209  14.327  1.00  0.00     0.273 C 
BRANCH  41  42
HETATM   42  C22 UNL     1      20.211 -11.601  14.448  1.00  0.00     0.034 C 
BRANCH  42  43
HETATM   43  C23 UNL     1      20.740 -11.205  15.820  1.00  0.00    -0.021 C 
HETATM   44  C24 UNL     1      21.437  -9.868  15.670  1.00  0.00     0.009 C 
HETATM   45  C25 UNL     1      21.757 -12.194  16.343  1.00  0.00     0.009 C 
ENDBRANCH  42  43
ENDBRANCH  41  42
ENDBRANCH  39  41
ENDBRANCH  32  33
ENDBRANCH  27  32
ENDBRANCH  26  27
ENDBRANCH  25  26
ENDBRANCH  24  25
ENDBRANCH  23  24
ENDBRANCH  21  23
ENDBRANCH   1  21
BRANCH   1  46
HETATM   46  C28 UNL     1      20.639  -3.607  15.121  1.00  0.00    -0.031 A 
HETATM   47  C29 UNL     1      21.589  -3.175  14.239  1.00  0.00     0.010 A 
HETATM   48  C30 UNL     1      22.166  -4.082  13.380  1.00  0.00     0.009 A 
HETATM   49  C31 UNL     1      21.832  -5.424  13.361  1.00  0.00    -0.033 A 
HETATM   50  C33 UNL     1      20.874  -5.833  14.259  1.00  0.00     0.009 A 
HETATM   51  C34 UNL     1      20.300  -4.934  15.113  1.00  0.00     0.010 A 
BRANCH  49  52
HETATM   52  C32 UNL     1      22.482  -6.378  12.410  1.00  0.00     0.268 C 
BRANCH  52  53
HETATM   53  N7  UNL     1      22.507  -7.718  12.963  1.00  0.00    -0.075 N 
ATOM     54  H73 UNL     1      22.999  -8.370  12.353  1.00  0.00     0.274 HD
ATOM     55  H72 UNL     1      23.120  -7.778  13.777  1.00  0.00     0.274 HD
ATOM     56  H71 UNL     1      21.563  -8.039  13.177  1.00  0.00     0.274 HD
ENDBRANCH  52  53
ENDBRANCH  49  52
ENDBRANCH   1  46
TORSDOF 19
ENDMDL
MODEL 2
REMARK VINA RESULT: -9.008268007      0.928      1.565
REMARK  19 active torsions:
REMARK  status: ('A' for Active; 'I' for Inactive)
REMARK    1  A    between atoms: C2_2  and  N1_3 
REMARK    2  A    between atoms: N2_11  and  C9_12 
REMARK    3  A    between atoms: C9_12  and  O2_14 
REMARK    4  A    between atoms: C9_12  and  C11_16 
REMARK    5  A    between atoms: C11_16  and  N3_17 
REMARK    6  A    between atoms: C11_16  and  C28_42 
REMARK    7  A    between atoms: N3_17  and  C12_19 
REMARK    8  A    between atoms: C12_19  and  C13_20 
REMARK    9  A    between atoms: C13_20  and  C14_21 
REMARK   10  A    between atoms: C14_21  and  C15_22 
REMARK   11  A    between atoms: C15_22  and  C16_23 
REMARK   12  A    between atoms: C16_23  and  N4_24 
REMARK   13  A    between atoms: C16_23  and  C17_28 
REMARK   14  A    between atoms: C17_28  and  C18_29 
REMARK       I    between atoms: C18_29  and  N5_31 
REMARK   15  A    between atoms: N6_34  and  C21_35 
REMARK   16  A    between atoms: C21_35  and  C22_36 
REMARK   17  A    between atoms: C22_36  and  C23_37 
REMARK   18  A    between atoms: C31_45  and  C32_46 
REMARK   19  A    between atoms: C32_46  and  N7_47 
ROOT
HETATM    1  C11 UNL     1      19.995  -2.666  16.043  1.00  0.00     0.169 C 
ENDROOT
BRANCH   1   2
HETATM    2  C9  UNL     1      20.809  -2.429  17.241  1.00  0.00     0.157 C 
HETATM    3  C10 UNL     1      22.219  -2.971  17.145  1.00  0.00     0.074 C 
BRANCH   2   4
HETATM    4  N2  UNL     1      20.742  -1.175  17.928  1.00  0.00    -0.314 N 
HETATM    5  C8  UNL     1      19.487  -0.577  18.225  1.00  0.00     0.228 C 
HETATM    6  C7  UNL     1      19.272   0.896  18.088  1.00  0.00     0.161 C 
HETATM    7  O1  UNL     1      18.519  -1.246  18.611  1.00  0.00    -0.273 OA
HETATM    8  C6  UNL     1      20.425   1.606  18.710  1.00  0.00     0.029 A 
HETATM    9  N1  UNL     1      20.572   2.811  19.237  1.00  0.00    -0.353 N 
HETATM   10  C5  UNL     1      21.615   0.950  18.802  1.00  0.00    -0.009 A 
HETATM   11  C3  UNL     1      21.831   2.977  19.679  1.00  0.00     0.018 A 
HETATM   12  C4  UNL     1      22.527   1.816  19.421  1.00  0.00    -0.025 A 
HETATM   13  C38 UNL     1      22.726   3.981  20.349  1.00  0.00     0.058 C 
HETATM   14  C36 UNL     1      23.929   1.996  19.913  1.00  0.00     0.041 C 
HETATM   15  C37 UNL     1      24.096   3.480  20.031  1.00  0.00     0.011 C 
HETATM   16  C35 UNL     1      21.918  -0.411  18.341  1.00  0.00     0.170 C 
BRANCH   9  17
HETATM   17  C2  UNL     1      19.479   3.788  19.302  1.00  0.00     0.124 C 
HETATM   18  C1  UNL     1      18.531   3.491  20.428  1.00  0.00     0.027 C 
ENDBRANCH   9  17
ENDBRANCH   2   4
BRANCH   2  19
HETATM   19  O2  UNL     1      20.217  -3.342  18.200  1.00  0.00    -0.369 OA
ATOM     20  H2  UNL     1      20.873  -4.027  18.261  1.00  0.00     0.212 HD
ENDBRANCH   2  19
ENDBRANCH   1   2
BRANCH   1  21
HETATM   21  N3  UNL     1      18.658  -3.030  16.074  1.00  0.00    -0.389 N 
ATOM     22  H3  UNL     1      18.357  -3.714  16.769  1.00  0.00     0.159 HD
BRANCH  21  23
HETATM   23  C12 UNL     1      17.695  -2.500  15.193  1.00  0.00     0.056 C 
BRANCH  23  24
HETATM   24  C13 UNL     1      16.610  -3.444  14.760  1.00  0.00     0.044 C 
BRANCH  24  25
HETATM   25  C14 UNL     1      16.784  -4.841  15.246  1.00  0.00     0.007 C 
BRANCH  25  26
HETATM   26  C15 UNL     1      15.991  -5.917  14.693  1.00  0.00     0.037 C 
BRANCH  26  27
HETATM   27  C16 UNL     1      15.218  -5.826  13.434  1.00  0.00     0.211 C 
BRANCH  27  28
HETATM   28  N4  UNL     1      14.137  -6.907  13.498  1.00  0.00    -0.072 N 
ATOM     29  H43 UNL     1      14.338  -7.634  14.185  1.00  0.00     0.275 HD
ATOM     30  H42 UNL     1      13.264  -6.578  13.910  1.00  0.00     0.275 HD
ATOM     31  H41 UNL     1      14.023  -7.268  12.551  1.00  0.00     0.275 HD
ENDBRANCH  27  28
BRANCH  27  32
HETATM   32  C17 UNL     1      15.890  -6.215  12.156  1.00  0.00     0.079 C 
BRANCH  32  33
HETATM   33  C18 UNL     1      17.274  -6.580  12.086  1.00  0.00     0.241 C 
HETATM   34  O3  UNL     1      18.205  -5.769  11.969  1.00  0.00    -0.269 OA
HETATM   35  N5  UNL     1      17.640  -7.961  12.153  1.00  0.00    -0.346 N 
HETATM   36  C19 UNL     1      16.687  -9.035  12.286  1.00  0.00     0.156 C 
HETATM   37  C27 UNL     1      19.026  -8.327  12.091  1.00  0.00     0.156 C 
HETATM   38  C20 UNL     1      16.956  -9.629  13.675  1.00  0.00     0.292 C 
HETATM   39  N6  UNL     1      18.328 -10.006  13.737  1.00  0.00     0.091 N 
HETATM   40  C26 UNL     1      19.126  -9.757  12.594  1.00  0.00     0.292 C 
BRANCH  39  41
HETATM   41  C21 UNL     1      18.417 -11.320  14.273  1.00  0.00     0.273 C 
BRANCH  41  42
HETATM   42  C22 UNL     1      17.097 -12.003  14.398  1.00  0.00     0.034 C 
BRANCH  42  43
HETATM   43  C23 UNL     1      17.118 -13.314  13.623  1.00  0.00    -0.021 C 
HETATM   44  C24 UNL     1      16.305 -13.110  12.361  1.00  0.00     0.009 C 
HETATM   45  C25 UNL     1      16.480 -14.442  14.400  1.00  0.00     0.009 C 
ENDBRANCH  42  43
ENDBRANCH  41  42
ENDBRANCH  39  41
ENDBRANCH  32  33
ENDBRANCH  27  32
ENDBRANCH  26  27
ENDBRANCH  25  26
ENDBRANCH  24  25
ENDBRANCH  23  24
ENDBRANCH  21  23
ENDBRANCH   1  21
BRANCH   1  46
HETATM   46  C28 UNL     1      20.689  -3.629  15.105  1.00  0.00    -0.031 A 
HETATM   47  C29 UNL     1      21.648  -3.245  14.211  1.00  0.00     0.010 A 
HETATM   48  C30 UNL     1      22.212  -4.192  13.387  1.00  0.00     0.009 A 
HETATM   49  C31 UNL     1      21.856  -5.528  13.415  1.00  0.00    -0.033 A 
HETATM   50  C33 UNL     1      20.889  -5.888  14.324  1.00  0.00     0.009 A 
HETATM   51  C34 UNL     1      20.328  -4.949  15.143  1.00  0.00     0.010 A 
BRANCH  49  52
HETATM   52  C32 UNL     1      22.493  -6.526  12.501  1.00  0.00     0.268 C 
BRANCH  52  53
HETATM   53  N7  UNL     1      22.315  -7.872  13.007  1.00  0.00    -0.075 N 
ATOM     54  H73 UNL     1      22.915  -8.541  12.524  1.00  0.00     0.274 HD
ATOM     55  H72 UNL     1      22.697  -7.975  13.948  1.00  0.00     0.274 HD
ATOM     56  H71 UNL     1      21.334  -8.148  12.966  1.00  0.00     0.274 HD
ENDBRANCH  52  53
ENDBRANCH  49  52
ENDBRANCH   1  46
TORSDOF 19
ENDMDL
MODEL 3
REMARK VINA RESULT: -8.990735820      2.122      4.247
REMARK  19 active torsions:
REMARK  status: ('A' for Active; 'I' for Inactive)
REMARK    1  A    between atoms: C2_2  and  N1_3 
REMARK    2  A    between atoms: N2_11  and  C9_12 
REMARK    3  A    between atoms: C9_12  and  O2_14 
REMARK    4  A    between atoms: C9_12  and  C11_16 
REMARK    5  A    between atoms: C11_16  and  N3_17 
REMARK    6  A    between atoms: C11_16  and  C28_42 
REMARK    7  A    between atoms: N3_17  and  C12_19 
REMARK    8  A    between atoms: C12_19  and  C13_20 
REMARK    9  A    between atoms: C13_20  and  C14_21 
REMARK   10  A    between atoms: C14_21  and  C15_22 
REMARK   11  A    between atoms: C15_22  and  C16_23 
REMARK   12  A    between atoms: C16_23  and  N4_24 
REMARK   13  A    between atoms: C16_23  and  C17_28 
REMARK   14  A    between atoms: C17_28  and  C18_29 
REMARK       I    between atoms: C18_29  and  N5_31 
REMARK   15  A    between atoms: N6_34  and  C21_35 
REMARK   16  A    between atoms: C21_35  and  C22_36 
REMARK   17  A    between atoms: C22_36  and  C23_37 
REMARK   18  A    between atoms: C31_45  and  C32_46 
REMARK   19  A    between atoms: C32_46  and  N7_47 
ROOT
HETATM    1  C11 UNL     1      19.967  -3.312  14.751  1.00  0.00     0.169 C 
ENDROOT
BRANCH   1   2
HETATM    2  C9  UNL     1      19.518  -1.946  15.046  1.00  0.00     0.157 C 
HETATM    3  C10 UNL     1      18.021  -1.750  14.933  1.00  0.00     0.074 C 
BRANCH   2   4
HETATM    4  N2  UNL     1      20.093  -1.211  16.133  1.00  0.00    -0.314 N 
HETATM    5  C8  UNL     1      19.276  -0.711  17.183  1.00  0.00     0.228 C 
HETATM    6  C7  UNL     1      19.505   0.643  17.773  1.00  0.00     0.161 C 
HETATM    7  O1  UNL     1      18.342  -1.372  17.655  1.00  0.00    -0.273 OA
HETATM    8  C6  UNL     1      20.963   0.811  18.030  1.00  0.00     0.029 A 
HETATM    9  N1  UNL     1      21.657   1.561  18.872  1.00  0.00    -0.353 N 
HETATM   10  C5  UNL     1      21.839   0.072  17.294  1.00  0.00    -0.009 A 
HETATM   11  C3  UNL     1      22.974   1.341  18.717  1.00  0.00     0.018 A 
HETATM   12  C4  UNL     1      23.133   0.401  17.722  1.00  0.00    -0.025 A 
HETATM   13  C38 UNL     1      24.313   1.765  19.250  1.00  0.00     0.058 C 
HETATM   14  C36 UNL     1      24.598   0.153  17.547  1.00  0.00     0.041 C 
HETATM   15  C37 UNL     1      25.256   1.345  18.170  1.00  0.00     0.011 C 
HETATM   16  C35 UNL     1      21.516  -0.895  16.236  1.00  0.00     0.170 C 
BRANCH   9  17
HETATM   17  C2  UNL     1      21.022   2.485  19.819  1.00  0.00     0.124 C 
HETATM   18  C1  UNL     1      21.131   3.912  19.366  1.00  0.00     0.027 C 
ENDBRANCH   9  17
ENDBRANCH   2   4
BRANCH   2  19
HETATM   19  O2  UNL     1      19.991  -1.211  13.889  1.00  0.00    -0.369 OA
ATOM     20  H2  UNL     1      19.504  -1.613  13.179  1.00  0.00     0.212 HD
ENDBRANCH   2  19
ENDBRANCH   1   2
BRANCH   1  21
HETATM   21  N3  UNL     1      20.869  -3.631  13.748  1.00  0.00    -0.389 N 
ATOM     22  H3  UNL     1      20.521  -3.726  12.794  1.00  0.00     0.159 HD
BRANCH  21  23
HETATM   23  C12 UNL     1      22.243  -3.831  13.984  1.00  0.00     0.056 C 
BRANCH  23  24
HETATM   24  C13 UNL     1      22.624  -4.183  15.393  1.00  0.00     0.044 C 
BRANCH  24  25
HETATM   25  C14 UNL     1      23.155  -5.564  15.557  1.00  0.00     0.007 C 
BRANCH  25  26
HETATM   26  C15 UNL     1      22.683  -6.639  14.712  1.00  0.00     0.037 C 
BRANCH  26  27
HETATM   27  C16 UNL     1      21.332  -7.239  14.795  1.00  0.00     0.211 C 
BRANCH  27  28
HETATM   28  N4  UNL     1      21.506  -8.641  15.382  1.00  0.00    -0.072 N 
ATOM     29  H43 UNL     1      22.128  -8.663  16.190  1.00  0.00     0.275 HD
ATOM     30  H42 UNL     1      20.670  -8.985  15.854  1.00  0.00     0.275 HD
ATOM     31  H41 UNL     1      21.814  -9.245  14.620  1.00  0.00     0.275 HD
ENDBRANCH  27  28
BRANCH  27  32
HETATM   32  C17 UNL     1      20.626  -7.582  13.522  1.00  0.00     0.079 C 
BRANCH  32  33
HETATM   33  C18 UNL     1      20.906  -8.771  12.775  1.00  0.00     0.241 C 
HETATM   34  O3  UNL     1      22.018  -9.055  12.305  1.00  0.00    -0.269 OA
HETATM   35  N5  UNL     1      19.858  -9.715  12.537  1.00  0.00    -0.346 N 
HETATM   36  C19 UNL     1      18.505  -9.543  13.007  1.00  0.00     0.156 C 
HETATM   37  C27 UNL     1      20.140 -10.911  11.795  1.00  0.00     0.156 C 
HETATM   38  C20 UNL     1      18.306 -10.656  14.045  1.00  0.00     0.292 C 
HETATM   39  N6  UNL     1      18.591 -11.902  13.417  1.00  0.00     0.091 N 
HETATM   40  C26 UNL     1      18.995 -11.873  12.061  1.00  0.00     0.292 C 
BRANCH  39  41
HETATM   41  C21 UNL     1      17.549 -12.819  13.728  1.00  0.00     0.273 C 
BRANCH  41  42
HETATM   42  C22 UNL     1      16.330 -12.166  14.289  1.00  0.00     0.034 C 
BRANCH  42  43
HETATM   43  C23 UNL     1      15.181 -12.277  13.295  1.00  0.00    -0.021 C 
HETATM   44  C24 UNL     1      15.420 -13.520  12.462  1.00  0.00     0.009 C 
HETATM   45  C25 UNL     1      15.131 -11.097  12.351  1.00  0.00     0.009 C 
ENDBRANCH  42  43
ENDBRANCH  41  42
ENDBRANCH  39  41
ENDBRANCH  32  33
ENDBRANCH  27  32
ENDBRANCH  26  27
ENDBRANCH  25  26
ENDBRANCH  24  25
ENDBRANCH  23  24
ENDBRANCH  21  23
ENDBRANCH   1  21
BRANCH   1  46
HETATM   46  C28 UNL     1      18.784  -4.240  14.589  1.00  0.00    -0.031 A 
HETATM   47  C29 UNL     1      18.024  -4.675  15.637  1.00  0.00     0.010 A 
HETATM   48  C30 UNL     1      16.976  -5.534  15.393  1.00  0.00     0.009 A 
HETATM   49  C31 UNL     1      16.647  -5.985  14.128  1.00  0.00    -0.033 A 
HETATM   50  C33 UNL     1      17.428  -5.532  13.090  1.00  0.00     0.009 A 
HETATM   51  C34 UNL     1      18.468  -4.680  13.331  1.00  0.00     0.010 A 
BRANCH  49  52
HETATM   52  C32 UNL     1      15.500  -6.919  13.904  1.00  0.00     0.268 C 
BRANCH  52  53
HETATM   53  N7  UNL     1      15.506  -7.423  12.545  1.00  0.00    -0.075 N 
ATOM     54  H73 UNL     1      14.725  -7.055  12.002  1.00  0.00     0.274 HD
ATOM     55  H72 UNL     1      16.272  -7.027  11.999  1.00  0.00     0.274 HD
ATOM     56  H71 UNL     1      15.524  -8.442  12.537  1.00  0.00     0.274 HD
ENDBRANCH  52  53
ENDBRANCH  49  52
ENDBRANCH   1  46
TORSDOF 19
ENDMDL
MODEL 4
REMARK VINA RESULT: -8.891290395      2.499     10.876
REMARK  19 active torsions:
REMARK  status: ('A' for Active; 'I' for Inactive)
REMARK    1  A    between atoms: C2_2  and  N1_3 
REMARK    2  A    between atoms: N2_11  and  C9_12 
REMARK    3  A    between atoms: C9_12  and  O2_14 
REMARK    4  A    between atoms: C9_12  and  C11_16 
REMARK    5  A    between atoms: C11_16  and  N3_17 
REMARK    6  A    between atoms: C11_16  and  C28_42 
REMARK    7  A    between atoms: N3_17  and  C12_19 
REMARK    8  A    between atoms: C12_19  and  C13_20 
REMARK    9  A    between atoms: C13_20  and  C14_21 
REMARK   10  A    between atoms: C14_21  and  C15_22 
REMARK   11  A    between atoms: C15_22  and  C16_23 
REMARK   12  A    between atoms: C16_23  and  N4_24 
REMARK   13  A    between atoms: C16_23  and  C17_28 
REMARK   14  A    between atoms: C17_28  and  C18_29 
REMARK       I    between atoms: C18_29  and  N5_31 
REMARK   15  A    between atoms: N6_34  and  C21_35 
REMARK   16  A    between atoms: C21_35  and  C22_36 
REMARK   17  A    between atoms: C22_36  and  C23_37 
REMARK   18  A    between atoms: C31_45  and  C32_46 
REMARK   19  A    between atoms: C32_46  and  N7_47 
ROOT
HETATM    1  C11 UNL     1      20.613  -4.920  14.600  1.00  0.00     0.169 C 
ENDROOT
BRANCH   1   2
HETATM    2  C9  UNL     1      21.666  -5.930  14.433  1.00  0.00     0.157 C 
HETATM    3  C10 UNL     1      22.809  -5.799  15.417  1.00  0.00     0.074 C 
BRANCH   2   4
HETATM    4  N2  UNL     1      21.328  -7.293  14.154  1.00  0.00    -0.314 N 
HETATM    5  C8  UNL     1      20.445  -7.618  13.089  1.00  0.00     0.228 C 
HETATM    6  C7  UNL     1      19.410  -8.686  13.231  1.00  0.00     0.161 C 
HETATM    7  O1  UNL     1      20.494  -7.034  11.998  1.00  0.00    -0.273 OA
HETATM    8  C6  UNL     1      20.041  -9.881  13.858  1.00  0.00     0.029 A 
HETATM    9  N1  UNL     1      19.758 -11.175  13.836  1.00  0.00    -0.353 N 
HETATM   10  C5  UNL     1      21.149  -9.699  14.627  1.00  0.00    -0.009 A 
HETATM   11  C3  UNL     1      20.651 -11.860  14.572  1.00  0.00     0.018 A 
HETATM   12  C4  UNL     1      21.553 -10.958  15.093  1.00  0.00    -0.025 A 
HETATM   13  C38 UNL     1      20.996 -13.254  15.014  1.00  0.00     0.058 C 
HETATM   14  C36 UNL     1      22.549 -11.717  15.912  1.00  0.00     0.041 C 
HETATM   15  C37 UNL     1      21.879 -13.025  16.197  1.00  0.00     0.011 C 
HETATM   16  C35 UNL     1      21.818  -8.427  14.934  1.00  0.00     0.170 C 
BRANCH   9  17
HETATM   17  C2  UNL     1      18.617 -11.725  13.096  1.00  0.00     0.124 C 
HETATM   18  C1  UNL     1      17.509 -12.152  14.014  1.00  0.00     0.027 C 
ENDBRANCH   9  17
ENDBRANCH   2   4
BRANCH   2  19
HETATM   19  O2  UNL     1      22.302  -5.508  13.199  1.00  0.00    -0.369 OA
ATOM     20  H2  UNL     1      22.973  -6.170  13.079  1.00  0.00     0.212 HD
ENDBRANCH   2  19
ENDBRANCH   1   2
BRANCH   1  21
HETATM   21  N3  UNL     1      19.823  -4.447  13.565  1.00  0.00    -0.389 N 
ATOM     22  H3  UNL     1      20.260  -3.874  12.843  1.00  0.00     0.159 HD
BRANCH  21  23
HETATM   23  C12 UNL     1      18.445  -4.719  13.463  1.00  0.00     0.056 C 
BRANCH  23  24
HETATM   24  C13 UNL     1      17.725  -4.966  14.757  1.00  0.00     0.044 C 
BRANCH  24  25
HETATM   25  C14 UNL     1      17.032  -3.771  15.311  1.00  0.00     0.007 C 
BRANCH  25  26
HETATM   26  C15 UNL     1      17.732  -2.853  16.184  1.00  0.00     0.037 C 
BRANCH  26  27
HETATM   27  C16 UNL     1      17.731  -1.381  16.025  1.00  0.00     0.211 C 
BRANCH  27  28
HETATM   28  N4  UNL     1      18.695  -1.060  14.881  1.00  0.00    -0.072 N 
ATOM     29  H43 UNL     1      19.442  -1.746  14.780  1.00  0.00     0.275 HD
ATOM     30  H42 UNL     1      18.279  -1.186  13.958  1.00  0.00     0.275 HD
ATOM     31  H41 UNL     1      19.037  -0.112  15.040  1.00  0.00     0.275 HD
ENDBRANCH  27  28
BRANCH  27  32
HETATM   32  C17 UNL     1      18.337  -0.547  17.109  1.00  0.00     0.079 C 
BRANCH  32  33
HETATM   33  C18 UNL     1      18.085   0.856  17.242  1.00  0.00     0.241 C 
HETATM   34  O3  UNL     1      17.556   1.557  16.366  1.00  0.00    -0.269 OA
HETATM   35  N5  UNL     1      18.455   1.525  18.451  1.00  0.00    -0.346 N 
HETATM   36  C19 UNL     1      19.082   0.865  19.570  1.00  0.00     0.156 C 
HETATM   37  C27 UNL     1      18.196   2.930  18.588  1.00  0.00     0.156 C 
HETATM   38  C20 UNL     1      18.040   0.922  20.694  1.00  0.00     0.292 C 
HETATM   39  N6  UNL     1      17.683   2.286  20.898  1.00  0.00     0.091 N 
HETATM   40  C26 UNL     1      18.300   3.253  20.069  1.00  0.00     0.292 C 
BRANCH  39  41
HETATM   41  C21 UNL     1      17.716   2.563  22.293  1.00  0.00     0.273 C 
BRANCH  41  42
HETATM   42  C22 UNL     1      18.525   1.583  23.075  1.00  0.00     0.034 C 
BRANCH  42  43
HETATM   43  C23 UNL     1      18.299   1.801  24.565  1.00  0.00    -0.021 C 
HETATM   44  C24 UNL     1      19.475   2.598  25.092  1.00  0.00     0.009 C 
HETATM   45  C25 UNL     1      18.254   0.496  25.328  1.00  0.00     0.009 C 
ENDBRANCH  42  43
ENDBRANCH  41  42
ENDBRANCH  39  41
ENDBRANCH  32  33
ENDBRANCH  27  32
ENDBRANCH  26  27
ENDBRANCH  25  26
ENDBRANCH  24  25
ENDBRANCH  23  24
ENDBRANCH  21  23
ENDBRANCH   1  21
BRANCH   1  46
HETATM   46  C28 UNL     1      21.144  -3.711  15.336  1.00  0.00    -0.031 A 
HETATM   47  C29 UNL     1      21.783  -2.676  14.714  1.00  0.00     0.010 A 
HETATM   48  C30 UNL     1      22.247  -1.624  15.471  1.00  0.00     0.009 A 
HETATM   49  C31 UNL     1      22.098  -1.557  16.844  1.00  0.00    -0.033 A 
HETATM   50  C33 UNL     1      21.451  -2.611  17.446  1.00  0.00     0.009 A 
HETATM   51  C34 UNL     1      20.990  -3.656  16.696  1.00  0.00     0.010 A 
BRANCH  49  52
HETATM   52  C32 UNL     1      22.618  -0.396  17.631  1.00  0.00     0.268 C 
BRANCH  52  53
HETATM   53  N7  UNL     1      21.895   0.816  17.297  1.00  0.00    -0.075 N 
ATOM     54  H73 UNL     1      21.163   1.019  17.977  1.00  0.00     0.274 HD
ATOM     55  H72 UNL     1      22.469   1.648  17.436  1.00  0.00     0.274 HD
ATOM     56  H71 UNL     1      21.525   0.766  16.348  1.00  0.00     0.274 HD
ENDBRANCH  52  53
ENDBRANCH  49  52
ENDBRANCH   1  46
TORSDOF 19
ENDMDL
MODEL 5
REMARK VINA RESULT: -8.846320549      2.189     11.020
REMARK  19 active torsions:
REMARK  status: ('A' for Active; 'I' for Inactive)
REMARK    1  A    between atoms: C2_2  and  N1_3 
REMARK    2  A    between atoms: N2_11  and  C9_12 
REMARK    3  A    between atoms: C9_12  and  O2_14 
REMARK    4  A    between atoms: C9_12  and  C11_16 
REMARK    5  A    between atoms: C11_16  and  N3_17 
REMARK    6  A    between atoms: C11_16  and  C28_42 
REMARK    7  A    between atoms: N3_17  and  C12_19 
REMARK    8  A    between atoms: C12_19  and  C13_20 
REMARK    9  A    between atoms: C13_20  and  C14_21 
REMARK   10  A    between atoms: C14_21  and  C15_22 
REMARK   11  A    between atoms: C15_22  and  C16_23 
REMARK   12  A    between atoms: C16_23  and  N4_24 
REMARK   13  A    between atoms: C16_23  and  C17_28 
REMARK   14  A    between atoms: C17_28  and  C18_29 
REMARK       I    between atoms: C18_29  and  N5_31 
REMARK   15  A    between atoms: N6_34  and  C21_35 
REMARK   16  A    between atoms: C21_35  and  C22_36 
REMARK   17  A    between atoms: C22_36  and  C23_37 
REMARK   18  A    between atoms: C31_45  and  C32_46 
REMARK   19  A    between atoms: C32_46  and  N7_47 
ROOT
HETATM    1  C11 UNL     1      20.792  -4.133  15.146  1.00  0.00     0.169 C 
ENDROOT
BRANCH   1   2
HETATM    2  C9  UNL     1      21.800  -5.172  14.908  1.00  0.00     0.157 C 
HETATM    3  C10 UNL     1      22.863  -5.260  15.982  1.00  0.00     0.074 C 
BRANCH   2   4
HETATM    4  N2  UNL     1      21.416  -6.456  14.403  1.00  0.00    -0.314 N 
HETATM    5  C8  UNL     1      20.642  -6.566  13.216  1.00  0.00     0.228 C 
HETATM    6  C7  UNL     1      19.536  -7.564  13.095  1.00  0.00     0.161 C 
HETATM    7  O1  UNL     1      20.849  -5.844  12.231  1.00  0.00    -0.273 OA
HETATM    8  C6  UNL     1      20.019  -8.877  13.606  1.00  0.00     0.029 A 
HETATM    9  N1  UNL     1      19.665 -10.130  13.370  1.00  0.00    -0.353 N 
HETATM   10  C5  UNL     1      21.042  -8.884  14.505  1.00  0.00    -0.009 A 
HETATM   11  C3  UNL     1      20.426 -10.974  14.089  1.00  0.00     0.018 A 
HETATM   12  C4  UNL     1      21.315 -10.221  14.825  1.00  0.00    -0.025 A 
HETATM   13  C38 UNL     1      20.636 -12.437  14.360  1.00  0.00     0.058 C 
HETATM   14  C36 UNL     1      22.165 -11.156  15.626  1.00  0.00     0.041 C 
HETATM   15  C37 UNL     1      21.390 -12.438  15.649  1.00  0.00     0.011 C 
HETATM   16  C35 UNL     1      21.746  -7.719  15.059  1.00  0.00     0.170 C 
BRANCH   9  17
HETATM   17  C2  UNL     1      18.584 -10.488  12.444  1.00  0.00     0.124 C 
HETATM   18  C1  UNL     1      17.244 -10.479  13.119  1.00  0.00     0.027 C 
ENDBRANCH   9  17
ENDBRANCH   2   4
BRANCH   2  19
HETATM   19  O2  UNL     1      22.558  -4.617  13.802  1.00  0.00    -0.369 OA
ATOM     20  H2  UNL     1      23.367  -5.115  13.839  1.00  0.00     0.212 HD
ENDBRANCH   2  19
ENDBRANCH   1   2
BRANCH   1  21
HETATM   21  N3  UNL     1      20.047  -3.532  14.144  1.00  0.00    -0.389 N 
ATOM     22  H3  UNL     1      20.538  -3.159  13.331  1.00  0.00     0.159 HD
BRANCH  21  23
HETATM   23  C12 UNL     1      18.644  -3.411  14.194  1.00  0.00     0.056 C 
BRANCH  23  24
HETATM   24  C13 UNL     1      18.115  -2.144  14.800  1.00  0.00     0.044 C 
BRANCH  24  25
HETATM   25  C14 UNL     1      17.693  -2.274  16.222  1.00  0.00     0.007 C 
BRANCH  25  26
HETATM   26  C15 UNL     1      18.070  -1.273  17.196  1.00  0.00     0.037 C 
BRANCH  26  27
HETATM   27  C16 UNL     1      18.005   0.188  16.965  1.00  0.00     0.211 C 
BRANCH  27  28
HETATM   28  N4  UNL     1      19.445   0.704  16.990  1.00  0.00    -0.072 N 
ATOM     29  H43 UNL     1      20.138  -0.033  16.857  1.00  0.00     0.275 HD
ATOM     30  H42 UNL     1      19.687   1.258  16.168  1.00  0.00     0.275 HD
ATOM     31  H41 UNL     1      19.562   1.213  17.866  1.00  0.00     0.275 HD
ENDBRANCH  27  28
BRANCH  27  32
HETATM   32  C17 UNL     1      17.407   1.051  18.029  1.00  0.00     0.079 C 
BRANCH  32  33
HETATM   33  C18 UNL     1      17.774   0.948  19.410  1.00  0.00     0.241 C 
HETATM   34  O3  UNL     1      17.561  -0.049  20.117  1.00  0.00    -0.269 OA
HETATM   35  N5  UNL     1      18.430   2.048  20.047  1.00  0.00    -0.346 N 
HETATM   36  C19 UNL     1      18.751   3.284  19.377  1.00  0.00     0.156 C 
HETATM   37  C27 UNL     1      18.805   1.942  21.428  1.00  0.00     0.156 C 
HETATM   38  C20 UNL     1      20.284   3.318  19.328  1.00  0.00     0.292 C 
HETATM   39  N6  UNL     1      20.772   3.189  20.660  1.00  0.00     0.091 N 
HETATM   40  C26 UNL     1      19.816   3.044  21.695  1.00  0.00     0.292 C 
BRANCH  39  41
HETATM   41  C21 UNL     1      21.768   4.181  20.880  1.00  0.00     0.273 C 
BRANCH  41  42
HETATM   42  C22 UNL     1      23.071   3.871  20.223  1.00  0.00     0.034 C 
BRANCH  42  43
HETATM   43  C23 UNL     1      23.824   2.827  21.037  1.00  0.00    -0.021 C 
HETATM   44  C24 UNL     1      24.093   3.423  22.403  1.00  0.00     0.009 C 
HETATM   45  C25 UNL     1      25.160   2.481  20.418  1.00  0.00     0.009 C 
ENDBRANCH  42  43
ENDBRANCH  41  42
ENDBRANCH  39  41
ENDBRANCH  32  33
ENDBRANCH  27  32
ENDBRANCH  26  27
ENDBRANCH  25  26
ENDBRANCH  24  25
ENDBRANCH  23  24
ENDBRANCH  21  23
ENDBRANCH   1  21
BRANCH   1  46
HETATM   46  C28 UNL     1      21.361  -3.020  15.997  1.00  0.00    -0.031 A 
HETATM   47  C29 UNL     1      22.103  -1.992  15.488  1.00  0.00     0.010 A 
HETATM   48  C30 UNL     1      22.593  -1.033  16.345  1.00  0.00     0.009 A 
HETATM   49  C31 UNL     1      22.372  -1.053  17.710  1.00  0.00    -0.033 A 
HETATM   50  C33 UNL     1      21.622  -2.098  18.196  1.00  0.00     0.009 A 
HETATM   51  C34 UNL     1      21.135  -3.051  17.347  1.00  0.00     0.010 A 
BRANCH  49  52
HETATM   52  C32 UNL     1      22.924   0.008  18.607  1.00  0.00     0.268 C 
BRANCH  52  53
HETATM   53  N7  UNL     1      22.885  -0.419  19.992  1.00  0.00    -0.075 N 
ATOM     54  H73 UNL     1      22.830  -1.434  20.073  1.00  0.00     0.274 HD
ATOM     55  H72 UNL     1      23.782  -0.276  20.456  1.00  0.00     0.274 HD
ATOM     56  H71 UNL     1      22.124   0.041  20.491  1.00  0.00     0.274 HD
ENDBRANCH  52  53
ENDBRANCH  49  52
ENDBRANCH   1  46
TORSDOF 19
ENDMDL
