MODEL 1
REMARK VINA RESULT: -6.347373709      0.000      0.000
REMARK  16 active torsions:
REMARK  status: ('A' for Active; 'I' for Inactive)
REMARK    1  A    between atoms: C2_2  and  C3_3 
REMARK    2  A    between atoms: C3_3  and  C4_4 
REMARK    3  A    between atoms: C4_4  and  C5_5 
REMARK    4  A    between atoms: C5_5  and  C6_6 
REMARK    5  A    between atoms: C6_6  and  C7_7 
REMARK    6  A    between atoms: C7_7  and  C8_8 
REMARK    7  A    between atoms: C10_12  and  C11_13 
REMARK       I    between atoms: N1_14  and  C12_16 
REMARK       I    between atoms: C12_16  and  N2_18 
REMARK    8  A    between atoms: N2_18  and  C13_20 
REMARK    9  A    between atoms: C13_20  and  C14_21 
REMARK   10  A    between atoms: C14_21  and  C15_22 
REMARK   11  A    between atoms: C15_22  and  C16_23 
REMARK   12  A    between atoms: C18_27  and  C19_28 
REMARK   13  A    between atoms: C19_28  and  C20_29 
REMARK   14  A    between atoms: C23_32  and  O6_33 
REMARK   15  A    between atoms: C24_37  and  C25_38 
REMARK   16  A    between atoms: C25_38  and  C26_39 
ROOT
HETATM    1  C8  UNL     1      19.411  -6.463  13.689  1.00  0.00     0.186 C 
HETATM    2  C9  UNL     1      20.663  -7.260  13.595  1.00  0.00     0.282 C 
HETATM    3  O1  UNL     1      21.552  -6.845  14.438  1.00  0.00    -0.263 OA
HETATM    4  O2  UNL     1      20.786  -8.261  12.729  1.00  0.00    -0.309 OA
HETATM    5  C10 UNL     1      20.662  -9.637  12.738  1.00  0.00     0.171 C 
HETATM    6  C17 UNL     1      19.855 -10.228  13.819  1.00  0.00     0.051 C 
HETATM    7  C18 UNL     1      18.758 -11.192  13.393  1.00  0.00     0.063 C 
HETATM    8  C23 UNL     1      18.516 -11.111  11.927  1.00  0.00     0.116 C 
HETATM    9  N3  UNL     1      17.736 -10.181  11.222  1.00  0.00    -0.361 N 
ATOM     10  H3  UNL     1      18.287  -9.586  10.603  1.00  0.00     0.162 HD
HETATM   11  C24 UNL     1      16.351  -9.889  11.182  1.00  0.00     0.175 C 
HETATM   12  C29 UNL     1      15.657  -9.748  12.478  1.00  0.00     0.241 C 
HETATM   13  O7  UNL     1      15.129 -10.805  12.989  1.00  0.00    -0.271 OA
HETATM   14  N4  UNL     1      15.499  -8.567  13.238  1.00  0.00    -0.346 N 
ATOM     15  H4  UNL     1      14.543  -8.325  13.497  1.00  0.00     0.163 HD
HETATM   16  C30 UNL     1      16.528  -7.664  13.691  1.00  0.00     0.172 C 
HETATM   17  C31 UNL     1      15.927  -6.786  14.811  1.00  0.00     0.042 C 
HETATM   18  C32 UNL     1      17.136  -6.831  12.646  1.00  0.00     0.242 C 
HETATM   19  O8  UNL     1      16.334  -6.346  11.779  1.00  0.00    -0.271 OA
HETATM   20  N5  UNL     1      18.531  -6.555  12.573  1.00  0.00    -0.341 N 
HETATM   21  C33 UNL     1      19.081  -6.334  11.250  1.00  0.00     0.153 C 
ENDROOT
BRANCH   5  22
HETATM   22  C11 UNL     1      22.056 -10.208  12.858  1.00  0.00     0.098 C 
HETATM   23  N1  UNL     1      22.255 -11.359  12.316  1.00  0.00    -0.320 N 
HETATM   24  C12 UNL     1      23.471 -12.043  12.322  1.00  0.00     0.319 C 
ATOM     25  H1  UNL     1      21.465 -11.803  11.847  1.00  0.00     0.169 HD
HETATM   26  O3  UNL     1      23.504 -13.291  12.375  1.00  0.00    -0.247 OA
HETATM   27  N2  UNL     1      24.687 -11.323  12.270  1.00  0.00    -0.343 N 
ATOM     28  H2  UNL     1      24.664 -10.305  12.227  1.00  0.00     0.164 HD
BRANCH  27  29
HETATM   29  C13 UNL     1      25.985 -12.017  12.275  1.00  0.00     0.125 C 
BRANCH  29  30
HETATM   30  C14 UNL     1      26.884 -11.547  11.190  1.00  0.00     0.030 C 
BRANCH  30  31
HETATM   31  C15 UNL     1      26.212 -11.621   9.859  1.00  0.00     0.114 C 
BRANCH  31  32
HETATM   32  C16 UNL     1      25.819 -10.305   9.380  1.00  0.00     0.172 C 
HETATM   33  O4  UNL     1      26.557  -9.495   8.793  1.00  0.00    -0.648 OA
HETATM   34  O5  UNL     1      24.490  -9.869   9.580  1.00  0.00    -0.648 OA
ENDBRANCH  31  32
ENDBRANCH  30  31
ENDBRANCH  29  30
ENDBRANCH  27  29
ENDBRANCH   5  22
BRANCH   7  35
HETATM   35  C19 UNL     1      19.193 -12.596  13.739  1.00  0.00     0.016 C 
BRANCH  35  36
HETATM   36  C20 UNL     1      18.136 -13.636  13.738  1.00  0.00    -0.022 C 
HETATM   37  C21 UNL     1      18.741 -14.844  14.491  1.00  0.00     0.009 C 
HETATM   38  C22 UNL     1      16.910 -13.236  14.529  1.00  0.00     0.009 C 
ENDBRANCH  35  36
ENDBRANCH   7  35
BRANCH   1  39
HETATM   39  C7  UNL     1      19.766  -4.971  13.864  1.00  0.00     0.035 C 
BRANCH  39  40
HETATM   40  C6  UNL     1      18.617  -4.150  14.329  1.00  0.00     0.002 C 
BRANCH  40  41
HETATM   41  C5  UNL     1      18.559  -4.286  15.849  1.00  0.00     0.000 C 
BRANCH  41  42
HETATM   42  C4  UNL     1      18.994  -3.007  16.514  1.00  0.00     0.000 C 
BRANCH  42  43
HETATM   43  C3  UNL     1      20.107  -3.236  17.500  1.00  0.00    -0.000 C 
BRANCH  43  44
HETATM   44  C2  UNL     1      21.419  -2.652  17.024  1.00  0.00    -0.005 C 
HETATM   45  C1  UNL     1      22.293  -3.734  16.406  1.00  0.00     0.005 C 
ENDBRANCH  43  44
ENDBRANCH  42  43
ENDBRANCH  41  42
ENDBRANCH  40  41
ENDBRANCH  39  40
ENDBRANCH   1  39
BRANCH   8  46
HETATM   46  O6  UNL     1      19.137 -12.048  11.261  1.00  0.00    -0.349 OA
ATOM     47  H6  UNL     1      19.220 -11.847  10.337  1.00  0.00     0.219 HD
ENDBRANCH   8  46
BRANCH  11  48
HETATM   48  C25 UNL     1      15.582 -10.885  10.287  1.00  0.00     0.038 C 
BRANCH  48  49
HETATM   49  C26 UNL     1      16.162 -10.867   8.897  1.00  0.00    -0.020 C 
HETATM   50  C27 UNL     1      15.141 -10.406   7.875  1.00  0.00     0.009 C 
HETATM   51  C28 UNL     1      16.603 -12.282   8.488  1.00  0.00     0.009 C 
ENDBRANCH  48  49
ENDBRANCH  11  48
TORSDOF 16
ENDMDL
MODEL 2
REMARK VINA RESULT: -6.301048889      1.651      2.330
REMARK  16 active torsions:
REMARK  status: ('A' for Active; 'I' for Inactive)
REMARK    1  A    between atoms: C2_2  and  C3_3 
REMARK    2  A    between atoms: C3_3  and  C4_4 
REMARK    3  A    between atoms: C4_4  and  C5_5 
REMARK    4  A    between atoms: C5_5  and  C6_6 
REMARK    5  A    between atoms: C6_6  and  C7_7 
REMARK    6  A    between atoms: C7_7  and  C8_8 
REMARK    7  A    between atoms: C10_12  and  C11_13 
REMARK       I    between atoms: N1_14  and  C12_16 
REMARK       I    between atoms: C12_16  and  N2_18 
REMARK    8  A    between atoms: N2_18  and  C13_20 
REMARK    9  A    between atoms: C13_20  and  C14_21 
REMARK   10  A    between atoms: C14_21  and  C15_22 
REMARK   11  A    between atoms: C15_22  and  C16_23 
REMARK   12  A    between atoms: C18_27  and  C19_28 
REMARK   13  A    between atoms: C19_28  and  C20_29 
REMARK   14  A    between atoms: C23_32  and  O6_33 
REMARK   15  A    between atoms: C24_37  and  C25_38 
REMARK   16  A    between atoms: C25_38  and  C26_39 
ROOT
HETATM    1  C8  UNL     1      21.378  -5.724  13.613  1.00  0.00     0.186 C 
HETATM    2  C9  UNL     1      22.447  -6.756  13.538  1.00  0.00     0.282 C 
HETATM    3  O1  UNL     1      23.500  -6.393  14.196  1.00  0.00    -0.263 OA
HETATM    4  O2  UNL     1      22.275  -7.887  12.862  1.00  0.00    -0.309 OA
HETATM    5  C10 UNL     1      21.914  -9.192  13.134  1.00  0.00     0.171 C 
HETATM    6  C17 UNL     1      21.169  -9.433  14.382  1.00  0.00     0.051 C 
HETATM    7  C18 UNL     1      19.874 -10.219  14.254  1.00  0.00     0.063 C 
HETATM    8  C23 UNL     1      19.454 -10.329  12.830  1.00  0.00     0.116 C 
HETATM    9  N3  UNL     1      18.760  -9.389  12.051  1.00  0.00    -0.361 N 
ATOM     10  H3  UNL     1      19.319  -9.021  11.281  1.00  0.00     0.162 HD
HETATM   11  C24 UNL     1      17.455  -8.841  12.101  1.00  0.00     0.175 C 
HETATM   12  C29 UNL     1      16.978  -8.362  13.413  1.00  0.00     0.241 C 
HETATM   13  O7  UNL     1      16.347  -9.199  14.160  1.00  0.00    -0.271 OA
HETATM   14  N4  UNL     1      17.133  -7.067  13.957  1.00  0.00    -0.346 N 
ATOM     15  H4  UNL     1      16.278  -6.604  14.264  1.00  0.00     0.163 HD
HETATM   16  C30 UNL     1      18.356  -6.321  14.130  1.00  0.00     0.172 C 
HETATM   17  C31 UNL     1      18.075  -5.176  15.126  1.00  0.00     0.042 C 
HETATM   18  C32 UNL     1      18.954  -5.802  12.894  1.00  0.00     0.242 C 
HETATM   19  O8  UNL     1      18.139  -5.315  12.039  1.00  0.00    -0.271 OA
HETATM   20  N5  UNL     1      20.352  -5.820  12.628  1.00  0.00    -0.341 N 
HETATM   21  C33 UNL     1      20.749  -5.926  11.238  1.00  0.00     0.153 C 
ENDROOT
BRANCH   5  22
HETATM   22  C11 UNL     1      23.190  -9.999  13.213  1.00  0.00     0.098 C 
HETATM   23  N1  UNL     1      23.189 -11.137  12.612  1.00  0.00    -0.320 N 
HETATM   24  C12 UNL     1      24.270 -12.019  12.573  1.00  0.00     0.319 C 
ATOM     25  H1  UNL     1      22.335 -11.415  12.128  1.00  0.00     0.169 HD
HETATM   26  O3  UNL     1      24.088 -13.255  12.562  1.00  0.00    -0.247 OA
HETATM   27  N2  UNL     1      25.591 -11.516  12.546  1.00  0.00    -0.343 N 
ATOM     28  H2  UNL     1      25.743 -10.507  12.555  1.00  0.00     0.164 HD
BRANCH  27  29
HETATM   29  C13 UNL     1      26.751 -12.421  12.505  1.00  0.00     0.125 C 
BRANCH  29  30
HETATM   30  C14 UNL     1      27.484 -12.345  11.215  1.00  0.00     0.030 C 
BRANCH  30  31
HETATM   31  C15 UNL     1      28.048 -10.981  10.990  1.00  0.00     0.114 C 
BRANCH  31  32
HETATM   32  C16 UNL     1      27.473 -10.347   9.814  1.00  0.00     0.172 C 
HETATM   33  O4  UNL     1      28.100  -9.701   8.956  1.00  0.00    -0.648 OA
HETATM   34  O5  UNL     1      26.081 -10.450   9.589  1.00  0.00    -0.648 OA
ENDBRANCH  31  32
ENDBRANCH  30  31
ENDBRANCH  29  30
ENDBRANCH  27  29
ENDBRANCH   5  22
BRANCH   7  35
HETATM   35  C19 UNL     1      20.098 -11.607  14.804  1.00  0.00     0.016 C 
BRANCH  35  36
HETATM   36  C20 UNL     1      21.407 -11.860  15.453  1.00  0.00    -0.022 C 
HETATM   37  C21 UNL     1      21.239 -11.395  16.919  1.00  0.00     0.009 C 
HETATM   38  C22 UNL     1      21.756 -13.330  15.530  1.00  0.00     0.009 C 
ENDBRANCH  35  36
ENDBRANCH   7  35
BRANCH   1  39
HETATM   39  C7  UNL     1      22.008  -4.323  13.475  1.00  0.00     0.035 C 
BRANCH  39  40
HETATM   40  C6  UNL     1      21.426  -3.327  14.414  1.00  0.00     0.002 C 
BRANCH  40  41
HETATM   41  C5  UNL     1      21.541  -3.918  15.817  1.00  0.00     0.000 C 
BRANCH  41  42
HETATM   42  C4  UNL     1      22.318  -2.996  16.719  1.00  0.00     0.000 C 
BRANCH  42  43
HETATM   43  C3  UNL     1      21.443  -2.363  17.766  1.00  0.00    -0.000 C 
BRANCH  43  44
HETATM   44  C2  UNL     1      20.036  -2.921  17.745  1.00  0.00    -0.005 C 
HETATM   45  C1  UNL     1      19.031  -1.828  17.414  1.00  0.00     0.005 C 
ENDBRANCH  43  44
ENDBRANCH  42  43
ENDBRANCH  41  42
ENDBRANCH  40  41
ENDBRANCH  39  40
ENDBRANCH   1  39
BRANCH   8  46
HETATM   46  O6  UNL     1      19.805 -11.463  12.287  1.00  0.00    -0.349 OA
ATOM     47  H6  UNL     1      19.325 -12.203  12.640  1.00  0.00     0.219 HD
ENDBRANCH   8  46
BRANCH  11  48
HETATM   48  C25 UNL     1      16.410  -9.798  11.486  1.00  0.00     0.038 C 
BRANCH  48  49
HETATM   49  C26 UNL     1      17.026 -11.159  11.291  1.00  0.00    -0.020 C 
HETATM   50  C27 UNL     1      16.887 -11.631   9.856  1.00  0.00     0.009 C 
HETATM   51  C28 UNL     1      16.314 -12.195  12.176  1.00  0.00     0.009 C 
ENDBRANCH  48  49
ENDBRANCH  11  48
TORSDOF 16
ENDMDL
MODEL 3
REMARK VINA RESULT: -6.240707618      2.032      2.812
REMARK  16 active torsions:
REMARK  status: ('A' for Active; 'I' for Inactive)
REMARK    1  A    between atoms: C2_2  and  C3_3 
REMARK    2  A    between atoms: C3_3  and  C4_4 
REMARK    3  A    between atoms: C4_4  and  C5_5 
REMARK    4  A    between atoms: C5_5  and  C6_6 
REMARK    5  A    between atoms: C6_6  and  C7_7 
REMARK    6  A    between atoms: C7_7  and  C8_8 
REMARK    7  A    between atoms: C10_12  and  C11_13 
REMARK       I    between atoms: N1_14  and  C12_16 
REMARK       I    between atoms: C12_16  and  N2_18 
REMARK    8  A    between atoms: N2_18  and  C13_20 
REMARK    9  A    between atoms: C13_20  and  C14_21 
REMARK   10  A    between atoms: C14_21  and  C15_22 
REMARK   11  A    between atoms: C15_22  and  C16_23 
REMARK   12  A    between atoms: C18_27  and  C19_28 
REMARK   13  A    between atoms: C19_28  and  C20_29 
REMARK   14  A    between atoms: C23_32  and  O6_33 
REMARK   15  A    between atoms: C24_37  and  C25_38 
REMARK   16  A    between atoms: C25_38  and  C26_39 
ROOT
HETATM    1  C8  UNL     1      19.561  -6.754  13.995  1.00  0.00     0.186 C 
HETATM    2  C9  UNL     1      20.748  -7.643  14.113  1.00  0.00     0.282 C 
HETATM    3  O1  UNL     1      21.541  -7.248  15.054  1.00  0.00    -0.263 OA
HETATM    4  O2  UNL     1      20.910  -8.694  13.317  1.00  0.00    -0.309 OA
HETATM    5  C10 UNL     1      20.679 -10.055  13.366  1.00  0.00     0.171 C 
HETATM    6  C17 UNL     1      19.687 -10.529  14.346  1.00  0.00     0.051 C 
HETATM    7  C18 UNL     1      18.588 -11.434  13.811  1.00  0.00     0.063 C 
HETATM    8  C23 UNL     1      18.557 -11.414  12.323  1.00  0.00     0.116 C 
HETATM    9  N3  UNL     1      17.956 -10.469  11.476  1.00  0.00    -0.361 N 
ATOM     10  H3  UNL     1      18.632  -9.949  10.917  1.00  0.00     0.162 HD
HETATM   11  C24 UNL     1      16.617 -10.081  11.228  1.00  0.00     0.175 C 
HETATM   12  C29 UNL     1      15.764  -9.823  12.406  1.00  0.00     0.241 C 
HETATM   13  O7  UNL     1      15.090 -10.811  12.881  1.00  0.00    -0.271 OA
HETATM   14  N4  UNL     1      15.595  -8.595  13.085  1.00  0.00    -0.346 N 
ATOM     15  H4  UNL     1      14.635  -8.272  13.196  1.00  0.00     0.163 HD
HETATM   16  C30 UNL     1      16.620  -7.745  13.640  1.00  0.00     0.172 C 
HETATM   17  C31 UNL     1      15.940  -6.769  14.626  1.00  0.00     0.042 C 
HETATM   18  C32 UNL     1      17.429  -7.014  12.658  1.00  0.00     0.242 C 
HETATM   19  O8  UNL     1      16.794  -6.520  11.665  1.00  0.00    -0.271 OA
HETATM   20  N5  UNL     1      18.838  -6.842  12.770  1.00  0.00    -0.341 N 
HETATM   21  C33 UNL     1      19.580  -6.732  11.530  1.00  0.00     0.153 C 
ENDROOT
BRANCH   5  22
HETATM   22  C11 UNL     1      21.995 -10.717  13.706  1.00  0.00     0.098 C 
HETATM   23  N1  UNL     1      22.198 -11.884  13.202  1.00  0.00    -0.320 N 
HETATM   24  C12 UNL     1      23.349 -12.649  13.401  1.00  0.00     0.319 C 
ATOM     25  H1  UNL     1      21.465 -12.279  12.613  1.00  0.00     0.169 HD
HETATM   26  O3  UNL     1      23.288 -13.895  13.457  1.00  0.00    -0.247 OA
HETATM   27  N2  UNL     1      24.604 -12.012  13.543  1.00  0.00    -0.343 N 
ATOM     28  H2  UNL     1      24.657 -10.995  13.498  1.00  0.00     0.164 HD
BRANCH  27  29
HETATM   29  C13 UNL     1      25.834 -12.792  13.755  1.00  0.00     0.125 C 
BRANCH  29  30
HETATM   30  C14 UNL     1      26.378 -12.631  15.128  1.00  0.00     0.030 C 
BRANCH  30  31
HETATM   31  C15 UNL     1      25.676 -13.525  16.097  1.00  0.00     0.114 C 
BRANCH  31  32
HETATM   32  C16 UNL     1      24.887 -12.765  17.055  1.00  0.00     0.172 C 
HETATM   33  O4  UNL     1      25.259 -12.415  18.188  1.00  0.00    -0.648 OA
HETATM   34  O5  UNL     1      23.576 -12.371  16.706  1.00  0.00    -0.648 OA
ENDBRANCH  31  32
ENDBRANCH  30  31
ENDBRANCH  29  30
ENDBRANCH  27  29
ENDBRANCH   5  22
BRANCH   7  35
HETATM   35  C19 UNL     1      18.859 -12.845  14.274  1.00  0.00     0.016 C 
BRANCH  35  36
HETATM   36  C20 UNL     1      17.842 -13.865  13.923  1.00  0.00    -0.022 C 
HETATM   37  C21 UNL     1      18.314 -15.172  14.602  1.00  0.00     0.009 C 
HETATM   38  C22 UNL     1      16.480 -13.571  14.510  1.00  0.00     0.009 C 
ENDBRANCH  35  36
ENDBRANCH   7  35
BRANCH   1  39
HETATM   39  C7  UNL     1      20.003  -5.285  14.154  1.00  0.00     0.035 C 
BRANCH  39  40
HETATM   40  C6  UNL     1      19.087  -4.491  15.016  1.00  0.00     0.002 C 
BRANCH  40  41
HETATM   41  C5  UNL     1      18.297  -3.566  14.092  1.00  0.00     0.000 C 
BRANCH  41  42
HETATM   42  C4  UNL     1      17.271  -2.786  14.872  1.00  0.00     0.000 C 
BRANCH  42  43
HETATM   43  C3  UNL     1      17.693  -2.573  16.300  1.00  0.00    -0.000 C 
BRANCH  43  44
HETATM   44  C2  UNL     1      18.255  -1.187  16.526  1.00  0.00    -0.005 C 
HETATM   45  C1  UNL     1      18.159  -0.803  17.996  1.00  0.00     0.005 C 
ENDBRANCH  43  44
ENDBRANCH  42  43
ENDBRANCH  41  42
ENDBRANCH  40  41
ENDBRANCH  39  40
ENDBRANCH   1  39
BRANCH   8  46
HETATM   46  O6  UNL     1      19.188 -12.426  11.792  1.00  0.00    -0.349 OA
ATOM     47  H6  UNL     1      20.012 -12.175  11.391  1.00  0.00     0.219 HD
ENDBRANCH   8  46
BRANCH  11  48
HETATM   48  C25 UNL     1      15.903 -11.066  10.277  1.00  0.00     0.038 C 
BRANCH  48  49
HETATM   49  C26 UNL     1      16.912 -11.692   9.349  1.00  0.00    -0.020 C 
HETATM   50  C27 UNL     1      16.635 -11.330   7.902  1.00  0.00     0.009 C 
HETATM   51  C28 UNL     1      16.846 -13.224   9.450  1.00  0.00     0.009 C 
ENDBRANCH  48  49
ENDBRANCH  11  48
TORSDOF 16
ENDMDL
MODEL 4
REMARK VINA RESULT: -6.228137586      2.673      8.271
REMARK  16 active torsions:
REMARK  status: ('A' for Active; 'I' for Inactive)
REMARK    1  A    between atoms: C2_2  and  C3_3 
REMARK    2  A    between atoms: C3_3  and  C4_4 
REMARK    3  A    between atoms: C4_4  and  C5_5 
REMARK    4  A    between atoms: C5_5  and  C6_6 
REMARK    5  A    between atoms: C6_6  and  C7_7 
REMARK    6  A    between atoms: C7_7  and  C8_8 
REMARK    7  A    between atoms: C10_12  and  C11_13 
REMARK       I    between atoms: N1_14  and  C12_16 
REMARK       I    between atoms: C12_16  and  N2_18 
REMARK    8  A    between atoms: N2_18  and  C13_20 
REMARK    9  A    between atoms: C13_20  and  C14_21 
REMARK   10  A    between atoms: C14_21  and  C15_22 
REMARK   11  A    between atoms: C15_22  and  C16_23 
REMARK   12  A    between atoms: C18_27  and  C19_28 
REMARK   13  A    between atoms: C19_28  and  C20_29 
REMARK   14  A    between atoms: C23_32  and  O6_33 
REMARK   15  A    between atoms: C24_37  and  C25_38 
REMARK   16  A    between atoms: C25_38  and  C26_39 
ROOT
HETATM    1  C8  UNL     1      21.200 -10.869  13.232  1.00  0.00     0.186 C 
HETATM    2  C9  UNL     1      20.334  -9.662  13.146  1.00  0.00     0.282 C 
HETATM    3  O1  UNL     1      20.946  -8.683  12.563  1.00  0.00    -0.263 OA
HETATM    4  O2  UNL     1      19.096  -9.660  13.629  1.00  0.00    -0.309 OA
HETATM    5  C10 UNL     1      17.814  -9.836  13.146  1.00  0.00     0.171 C 
HETATM    6  C17 UNL     1      17.673 -10.559  11.871  1.00  0.00     0.051 C 
HETATM    7  C18 UNL     1      16.699 -11.727  11.861  1.00  0.00     0.063 C 
HETATM    8  C23 UNL     1      16.302 -12.103  13.246  1.00  0.00     0.116 C 
HETATM    9  N3  UNL     1      16.994 -12.910  14.162  1.00  0.00    -0.361 N 
ATOM     10  H3  UNL     1      17.310 -12.397  14.985  1.00  0.00     0.162 HD
HETATM   11  C24 UNL     1      17.350 -14.280  14.194  1.00  0.00     0.175 C 
HETATM   12  C29 UNL     1      17.961 -14.843  12.973  1.00  0.00     0.241 C 
HETATM   13  O7  UNL     1      17.173 -15.361  12.096  1.00  0.00    -0.271 OA
HETATM   14  N4  UNL     1      19.336 -14.884  12.647  1.00  0.00    -0.346 N 
ATOM     15  H4  UNL     1      19.715 -15.801  12.413  1.00  0.00     0.163 HD
HETATM   16  C30 UNL     1      20.267 -13.783  12.606  1.00  0.00     0.172 C 
HETATM   17  C31 UNL     1      21.506 -14.241  11.806  1.00  0.00     0.042 C 
HETATM   18  C32 UNL     1      20.660 -13.244  13.914  1.00  0.00     0.242 C 
HETATM   19  O8  UNL     1      20.881 -14.106  14.830  1.00  0.00    -0.271 OA
HETATM   20  N5  UNL     1      20.801 -11.853  14.182  1.00  0.00    -0.341 N 
HETATM   21  C33 UNL     1      20.530 -11.422  15.539  1.00  0.00     0.153 C 
ENDROOT
BRANCH   5  22
HETATM   22  C11 UNL     1      17.222  -8.459  12.946  1.00  0.00     0.098 C 
HETATM   23  N1  UNL     1      16.128  -8.206  13.575  1.00  0.00    -0.320 N 
HETATM   24  C12 UNL     1      15.436  -6.996  13.516  1.00  0.00     0.319 C 
ATOM     25  H1  UNL     1      15.738  -8.945  14.160  1.00  0.00     0.169 HD
HETATM   26  O3  UNL     1      14.188  -6.967  13.582  1.00  0.00    -0.247 OA
HETATM   27  N2  UNL     1      16.147  -5.781  13.379  1.00  0.00    -0.343 N 
ATOM     28  H2  UNL     1      17.166  -5.801  13.325  1.00  0.00     0.164 HD
BRANCH  27  29
HETATM   29  C13 UNL     1      15.445  -4.489  13.314  1.00  0.00     0.125 C 
BRANCH  29  30
HETATM   30  C14 UNL     1      15.527  -3.734  14.591  1.00  0.00     0.030 C 
BRANCH  30  31
HETATM   31  C15 UNL     1      16.823  -3.002  14.706  1.00  0.00     0.114 C 
BRANCH  31  32
HETATM   32  C16 UNL     1      17.706  -3.619  15.685  1.00  0.00     0.172 C 
HETATM   33  O4  UNL     1      17.939  -4.836  15.788  1.00  0.00    -0.648 OA
HETATM   34  O5  UNL     1      18.377  -2.799  16.619  1.00  0.00    -0.648 OA
ENDBRANCH  31  32
ENDBRANCH  30  31
ENDBRANCH  29  30
ENDBRANCH  27  29
ENDBRANCH   5  22
BRANCH   7  35
HETATM   35  C19 UNL     1      15.464 -11.316  11.095  1.00  0.00     0.016 C 
BRANCH  35  36
HETATM   36  C20 UNL     1      15.229 -11.999   9.801  1.00  0.00    -0.022 C 
HETATM   37  C21 UNL     1      15.463 -10.923   8.714  1.00  0.00     0.009 C 
HETATM   38  C22 UNL     1      16.237 -13.091   9.515  1.00  0.00     0.009 C 
ENDBRANCH  35  36
ENDBRANCH   7  35
BRANCH   1  39
HETATM   39  C7  UNL     1      22.637 -10.443  13.600  1.00  0.00     0.035 C 
BRANCH  39  40
HETATM   40  C6  UNL     1      23.678 -11.224  12.880  1.00  0.00     0.002 C 
BRANCH  40  41
HETATM   41  C5  UNL     1      24.575 -11.854  13.944  1.00  0.00     0.000 C 
BRANCH  41  42
HETATM   42  C4  UNL     1      24.360 -13.343  14.005  1.00  0.00     0.000 C 
BRANCH  42  43
HETATM   43  C3  UNL     1      24.289 -13.843  15.423  1.00  0.00    -0.000 C 
BRANCH  43  44
HETATM   44  C2  UNL     1      23.891 -12.751  16.392  1.00  0.00    -0.005 C 
HETATM   45  C1  UNL     1      23.077 -13.326  17.542  1.00  0.00     0.005 C 
ENDBRANCH  43  44
ENDBRANCH  42  43
ENDBRANCH  41  42
ENDBRANCH  40  41
ENDBRANCH  39  40
ENDBRANCH   1  39
BRANCH   8  46
HETATM   46  O6  UNL     1      15.157 -11.584  13.600  1.00  0.00    -0.349 OA
ATOM     47  H6  UNL     1      14.610 -12.196  14.077  1.00  0.00     0.219 HD
ENDBRANCH   8  46
BRANCH  11  48
HETATM   48  C25 UNL     1      16.166 -15.168  14.638  1.00  0.00     0.038 C 
BRANCH  48  49
HETATM   49  C26 UNL     1      16.643 -16.173  15.653  1.00  0.00    -0.020 C 
HETATM   50  C27 UNL     1      16.770 -17.557  15.047  1.00  0.00     0.009 C 
HETATM   51  C28 UNL     1      15.635 -16.278  16.809  1.00  0.00     0.009 C 
ENDBRANCH  48  49
ENDBRANCH  11  48
TORSDOF 16
ENDMDL
MODEL 5
REMARK VINA RESULT: -6.216998860      0.965      1.199
REMARK  16 active torsions:
REMARK  status: ('A' for Active; 'I' for Inactive)
REMARK    1  A    between atoms: C2_2  and  C3_3 
REMARK    2  A    between atoms: C3_3  and  C4_4 
REMARK    3  A    between atoms: C4_4  and  C5_5 
REMARK    4  A    between atoms: C5_5  and  C6_6 
REMARK    5  A    between atoms: C6_6  and  C7_7 
REMARK    6  A    between atoms: C7_7  and  C8_8 
REMARK    7  A    between atoms: C10_12  and  C11_13 
REMARK       I    between atoms: N1_14  and  C12_16 
REMARK       I    between atoms: C12_16  and  N2_18 
REMARK    8  A    between atoms: N2_18  and  C13_20 
REMARK    9  A    between atoms: C13_20  and  C14_21 
REMARK   10  A    between atoms: C14_21  and  C15_22 
REMARK   11  A    between atoms: C15_22  and  C16_23 
REMARK   12  A    between atoms: C18_27  and  C19_28 
REMARK   13  A    between atoms: C19_28  and  C20_29 
REMARK   14  A    between atoms: C23_32  and  O6_33 
REMARK   15  A    between atoms: C24_37  and  C25_38 
REMARK   16  A    between atoms: C25_38  and  C26_39 
ROOT
HETATM    1  C8  UNL     1      19.380  -6.428  13.832  1.00  0.00     0.186 C 
HETATM    2  C9  UNL     1      20.629  -7.235  13.856  1.00  0.00     0.282 C 
HETATM    3  O1  UNL     1      21.461  -6.789  14.740  1.00  0.00    -0.263 OA
HETATM    4  O2  UNL     1      20.804  -8.270  13.042  1.00  0.00    -0.309 OA
HETATM    5  C10 UNL     1      20.669  -9.644  13.097  1.00  0.00     0.171 C 
HETATM    6  C17 UNL     1      19.786 -10.187  14.143  1.00  0.00     0.051 C 
HETATM    7  C18 UNL     1      18.714 -11.162  13.683  1.00  0.00     0.063 C 
HETATM    8  C23 UNL     1      18.572 -11.141  12.201  1.00  0.00     0.116 C 
HETATM    9  N3  UNL     1      17.849 -10.237  11.408  1.00  0.00    -0.361 N 
ATOM     10  H3  UNL     1      18.445  -9.670  10.805  1.00  0.00     0.162 HD
HETATM   11  C24 UNL     1      16.472  -9.939  11.262  1.00  0.00     0.175 C 
HETATM   12  C29 UNL     1      15.692  -9.743  12.500  1.00  0.00     0.241 C 
HETATM   13  O7  UNL     1      15.123 -10.776  13.016  1.00  0.00    -0.271 OA
HETATM   14  N4  UNL     1      15.492  -8.531  13.200  1.00  0.00    -0.346 N 
ATOM     15  H4  UNL     1      14.522  -8.274  13.383  1.00  0.00     0.163 HD
HETATM   16  C30 UNL     1      16.494  -7.615  13.686  1.00  0.00     0.172 C 
HETATM   17  C31 UNL     1      15.825  -6.690  14.726  1.00  0.00     0.042 C 
HETATM   18  C32 UNL     1      17.178  -6.828  12.652  1.00  0.00     0.242 C 
HETATM   19  O8  UNL     1      16.440  -6.376  11.713  1.00  0.00    -0.271 OA
HETATM   20  N5  UNL     1      18.576  -6.562  12.663  1.00  0.00    -0.341 N 
HETATM   21  C33 UNL     1      19.217  -6.397  11.373  1.00  0.00     0.153 C 
ENDROOT
BRANCH   5  22
HETATM   22  C11 UNL     1      22.048 -10.216  13.335  1.00  0.00     0.098 C 
HETATM   23  N1  UNL     1      22.208 -11.463  13.058  1.00  0.00    -0.320 N 
HETATM   24  C12 UNL     1      23.405 -12.166  13.210  1.00  0.00     0.319 C 
ATOM     25  H1  UNL     1      21.402 -11.975  12.700  1.00  0.00     0.169 HD
HETATM   26  O3  UNL     1      23.402 -13.372  13.535  1.00  0.00    -0.247 OA
HETATM   27  N2  UNL     1      24.640 -11.511  12.997  1.00  0.00    -0.343 N 
ATOM     28  H2  UNL     1      24.646 -10.526  12.732  1.00  0.00     0.164 HD
BRANCH  27  29
HETATM   29  C13 UNL     1      25.918 -12.225  13.151  1.00  0.00     0.125 C 
BRANCH  29  30
HETATM   30  C14 UNL     1      26.518 -12.602  11.845  1.00  0.00     0.030 C 
BRANCH  30  31
HETATM   31  C15 UNL     1      26.845 -11.394  11.030  1.00  0.00     0.114 C 
BRANCH  31  32
HETATM   32  C16 UNL     1      28.224 -10.972  11.222  1.00  0.00     0.172 C 
HETATM   33  O4  UNL     1      29.133 -11.662  11.718  1.00  0.00    -0.648 OA
HETATM   34  O5  UNL     1      28.608  -9.672  10.824  1.00  0.00    -0.648 OA
ENDBRANCH  31  32
ENDBRANCH  30  31
ENDBRANCH  29  30
ENDBRANCH  27  29
ENDBRANCH   5  22
BRANCH   7  35
HETATM   35  C19 UNL     1      19.113 -12.553  14.114  1.00  0.00     0.016 C 
BRANCH  35  36
HETATM   36  C20 UNL     1      18.129 -13.633  13.863  1.00  0.00    -0.022 C 
HETATM   37  C21 UNL     1      18.714 -14.894  14.542  1.00  0.00     0.009 C 
HETATM   38  C22 UNL     1      16.797 -13.390  14.537  1.00  0.00     0.009 C 
ENDBRANCH  35  36
ENDBRANCH   7  35
BRANCH   1  39
HETATM   39  C7  UNL     1      19.732  -4.933  13.970  1.00  0.00     0.035 C 
BRANCH  39  40
HETATM   40  C6  UNL     1      18.543  -4.073  14.212  1.00  0.00     0.002 C 
BRANCH  40  41
HETATM   41  C5  UNL     1      18.256  -4.123  15.712  1.00  0.00     0.000 C 
BRANCH  41  42
HETATM   42  C4  UNL     1      17.905  -2.753  16.230  1.00  0.00     0.000 C 
BRANCH  42  43
HETATM   43  C3  UNL     1      19.018  -2.161  17.051  1.00  0.00    -0.000 C 
BRANCH  43  44
HETATM   44  C2  UNL     1      19.990  -3.214  17.537  1.00  0.00    -0.005 C 
HETATM   45  C1  UNL     1      21.417  -2.839  17.164  1.00  0.00     0.005 C 
ENDBRANCH  43  44
ENDBRANCH  42  43
ENDBRANCH  41  42
ENDBRANCH  40  41
ENDBRANCH  39  40
ENDBRANCH   1  39
BRANCH   8  46
HETATM   46  O6  UNL     1      19.230 -12.106  11.618  1.00  0.00    -0.349 OA
ATOM     47  H6  UNL     1      18.658 -12.738  11.199  1.00  0.00     0.219 HD
ENDBRANCH   8  46
BRANCH  11  48
HETATM   48  C25 UNL     1      15.758 -10.968  10.357  1.00  0.00     0.038 C 
BRANCH  48  49
HETATM   49  C26 UNL     1      16.281 -10.850   8.949  1.00  0.00    -0.020 C 
HETATM   50  C27 UNL     1      15.171 -10.518   7.971  1.00  0.00     0.009 C 
HETATM   51  C28 UNL     1      16.894 -12.186   8.499  1.00  0.00     0.009 C 
ENDBRANCH  48  49
ENDBRANCH  11  48
TORSDOF 16
ENDMDL
