MODEL 1
REMARK VINA RESULT: -9.877323617      0.000      0.000
REMARK  16 active torsions:
REMARK  status: ('A' for Active; 'I' for Inactive)
REMARK    1  A    between atoms: C2_2  and  C4_4 
REMARK    2  A    between atoms: C4_4  and  N1_5 
REMARK    3  A    between atoms: C4_4  and  C17_20 
REMARK       I    between atoms: N1_5  and  C5_7 
REMARK    4  A    between atoms: C5_7  and  C6_9 
REMARK    5  A    between atoms: C6_9  and  C7_10 
REMARK       I    between atoms: C17_20  and  N2_22 
REMARK    6  A    between atoms: N2_22  and  C18_24 
REMARK    7  A    between atoms: C18_24  and  C19_25 
REMARK    8  A    between atoms: C18_24  and  C25_35 
REMARK    9  A    between atoms: C19_25  and  O3_26 
REMARK   10  A    between atoms: C19_25  and  N3_28 
REMARK   11  A    between atoms: N3_28  and  C20_30 
REMARK       I    between atoms: C25_35  and  N4_37 
REMARK   12  A    between atoms: N4_37  and  C26_39 
REMARK   13  A    between atoms: C26_39  and  C27_40 
REMARK   14  A    between atoms: C26_39  and  C34_51 
REMARK   15  A    between atoms: C27_40  and  C28_42 
REMARK       I    between atoms: C28_42  and  N5_44 
REMARK   16  A    between atoms: N5_44  and  C29_46 
ROOT
HETATM    1  C18 UNL     1      18.114  31.958  15.455  1.00  0.00     0.251 C 
ENDROOT
BRANCH   1   2
HETATM    2  N2  UNL     1      18.428  31.523  14.069  1.00  0.00    -0.339 N 
HETATM    3  C17 UNL     1      18.399  30.168  13.721  1.00  0.00     0.241 C 
HETATM    4  O2  UNL     1      18.065  29.364  14.676  1.00  0.00    -0.271 OA
ATOM      5  H2  UNL     1      18.668  32.219  13.364  1.00  0.00     0.163 HD
BRANCH   3   6
HETATM    6  C4  UNL     1      18.696  29.626  12.405  1.00  0.00     0.180 C 
BRANCH   6   7
HETATM    7  C2  UNL     1      17.831  28.607  11.797  1.00  0.00     0.009 C 
HETATM    8  C1  UNL     1      18.657  27.310  11.652  1.00  0.00     0.012 C 
HETATM    9  C3  UNL     1      17.281  28.961  10.425  1.00  0.00     0.012 C 
ENDBRANCH   6   7
BRANCH   6  10
HETATM   10  N1  UNL     1      20.107  29.257  12.309  1.00  0.00    -0.347 N 
HETATM   11  C5  UNL     1      21.161  30.191  12.110  1.00  0.00     0.219 C 
HETATM   12  O1  UNL     1      20.821  31.391  12.011  1.00  0.00    -0.274 OA
ATOM     13  H1  UNL     1      20.350  28.270  12.390  1.00  0.00     0.163 HD
BRANCH  11  14
HETATM   14  C6  UNL     1      22.558  29.798  12.025  1.00  0.00     0.112 C 
BRANCH  14  15
HETATM   15  C7  UNL     1      22.879  28.531  11.324  1.00  0.00    -0.031 C 
HETATM   16  C8  UNL     1      22.340  28.400   9.932  1.00  0.00     0.014 C 
HETATM   17  C9  UNL     1      22.863  27.126   9.311  1.00  0.00    -0.013 C 
HETATM   18  C10 UNL     1      22.455  25.907  10.108  1.00  0.00     0.009 C 
HETATM   19  C14 UNL     1      24.370  27.090   9.199  1.00  0.00     0.009 C 
HETATM   20  C11 UNL     1      23.022  26.056  11.501  1.00  0.00    -0.013 C 
HETATM   21  C12 UNL     1      24.524  26.132  11.506  1.00  0.00     0.009 C 
HETATM   22  C16 UNL     1      22.446  27.313  12.112  1.00  0.00     0.014 C 
HETATM   23  C13 UNL     1      24.930  27.253  10.595  1.00  0.00    -0.013 C 
HETATM   24  C15 UNL     1      24.417  28.544  11.165  1.00  0.00     0.014 C 
ENDBRANCH  14  15
ENDBRANCH  11  14
ENDBRANCH   6  10
ENDBRANCH   3   6
ENDBRANCH   1   2
BRANCH   1  25
HETATM   25  C19 UNL     1      19.242  31.728  16.340  1.00  0.00     0.144 C 
BRANCH  25  26
HETATM   26  O3  UNL     1      19.139  30.685  17.114  1.00  0.00    -0.348 OA
ATOM     27  H3  UNL     1      19.296  29.849  16.691  1.00  0.00     0.219 HD
ENDBRANCH  25  26
BRANCH  25  28
HETATM   28  N3  UNL     1      20.427  32.499  16.458  1.00  0.00    -0.368 N 
ATOM     29  H3  UNL     1      21.019  32.426  17.286  1.00  0.00     0.161 HD
BRANCH  28  30
HETATM   30  C20 UNL     1      20.781  33.408  15.354  1.00  0.00     0.083 C 
HETATM   31  C21 UNL     1      22.088  33.060  14.727  1.00  0.00     0.025 C 
HETATM   32  C22 UNL     1      22.955  34.311  14.737  1.00  0.00     0.002 C 
HETATM   33  C23 UNL     1      22.068  35.439  15.156  1.00  0.00     0.002 C 
HETATM   34  C24 UNL     1      20.918  34.813  15.924  1.00  0.00     0.025 C 
ENDBRANCH  28  30
ENDBRANCH  25  28
ENDBRANCH   1  25
BRANCH   1  35
HETATM   35  C25 UNL     1      17.536  33.301  15.428  1.00  0.00     0.249 C 
HETATM   36  O4  UNL     1      17.205  33.819  14.325  1.00  0.00    -0.271 OA
HETATM   37  N4  UNL     1      17.320  34.039  16.604  1.00  0.00    -0.347 N 
ATOM     38  H4  UNL     1      17.599  33.651  17.505  1.00  0.00     0.163 HD
BRANCH  37  39
HETATM   39  C26 UNL     1      16.688  35.383  16.544  1.00  0.00     0.167 C 
BRANCH  39  40
HETATM   40  C27 UNL     1      17.350  36.315  17.448  1.00  0.00     0.239 C 
HETATM   41  O5  UNL     1      17.451  35.980  18.670  1.00  0.00    -0.285 OA
BRANCH  40  42
HETATM   42  C28 UNL     1      17.913  37.600  17.067  1.00  0.00     0.289 C 
HETATM   43  O6  UNL     1      17.204  38.535  16.588  1.00  0.00    -0.264 OA
HETATM   44  N5  UNL     1      19.290  37.864  17.220  1.00  0.00    -0.350 N 
ATOM     45  H5  UNL     1      19.912  37.147  17.593  1.00  0.00     0.163 HD
BRANCH  44  46
HETATM   46  C29 UNL     1      19.810  39.157  16.846  1.00  0.00     0.084 C 
HETATM   47  C30 UNL     1      20.330  39.933  18.043  1.00  0.00     0.025 C 
HETATM   48  C31 UNL     1      21.837  39.826  17.986  1.00  0.00     0.002 C 
HETATM   49  C32 UNL     1      22.146  38.816  16.910  1.00  0.00     0.002 C 
HETATM   50  C33 UNL     1      20.994  38.988  15.951  1.00  0.00     0.025 C 
ENDBRANCH  44  46
ENDBRANCH  40  42
ENDBRANCH  39  40
BRANCH  39  51
HETATM   51  C34 UNL     1      15.211  35.177  16.828  1.00  0.00     0.008 C 
HETATM   52  C35 UNL     1      14.942  33.999  17.730  1.00  0.00     0.012 C 
HETATM   53  C36 UNL     1      14.576  36.409  17.359  1.00  0.00     0.012 C 
ENDBRANCH  39  51
ENDBRANCH  37  39
ENDBRANCH   1  35
TORSDOF 16
ENDMDL
MODEL 2
REMARK VINA RESULT: -9.848380341      1.388      3.792
REMARK  16 active torsions:
REMARK  status: ('A' for Active; 'I' for Inactive)
REMARK    1  A    between atoms: C2_2  and  C4_4 
REMARK    2  A    between atoms: C4_4  and  N1_5 
REMARK    3  A    between atoms: C4_4  and  C17_20 
REMARK       I    between atoms: N1_5  and  C5_7 
REMARK    4  A    between atoms: C5_7  and  C6_9 
REMARK    5  A    between atoms: C6_9  and  C7_10 
REMARK       I    between atoms: C17_20  and  N2_22 
REMARK    6  A    between atoms: N2_22  and  C18_24 
REMARK    7  A    between atoms: C18_24  and  C19_25 
REMARK    8  A    between atoms: C18_24  and  C25_35 
REMARK    9  A    between atoms: C19_25  and  O3_26 
REMARK   10  A    between atoms: C19_25  and  N3_28 
REMARK   11  A    between atoms: N3_28  and  C20_30 
REMARK       I    between atoms: C25_35  and  N4_37 
REMARK   12  A    between atoms: N4_37  and  C26_39 
REMARK   13  A    between atoms: C26_39  and  C27_40 
REMARK   14  A    between atoms: C26_39  and  C34_51 
REMARK   15  A    between atoms: C27_40  and  C28_42 
REMARK       I    between atoms: C28_42  and  N5_44 
REMARK   16  A    between atoms: N5_44  and  C29_46 
ROOT
HETATM    1  C18 UNL     1      18.374  32.239  15.094  1.00  0.00     0.251 C 
ENDROOT
BRANCH   1   2
HETATM    2  N2  UNL     1      18.567  31.127  14.128  1.00  0.00    -0.339 N 
HETATM    3  C17 UNL     1      19.054  31.375  12.840  1.00  0.00     0.241 C 
HETATM    4  O2  UNL     1      19.331  32.612  12.587  1.00  0.00    -0.271 OA
ATOM      5  H2  UNL     1      18.342  30.172  14.406  1.00  0.00     0.163 HD
BRANCH   3   6
HETATM    6  C4  UNL     1      19.274  30.372  11.810  1.00  0.00     0.180 C 
BRANCH   6   7
HETATM    7  C2  UNL     1      18.565  29.087  11.847  1.00  0.00     0.009 C 
HETATM    8  C1  UNL     1      19.234  28.147  10.820  1.00  0.00     0.012 C 
HETATM    9  C3  UNL     1      17.084  29.157  11.514  1.00  0.00     0.012 C 
ENDBRANCH   6   7
BRANCH   6  10
HETATM   10  N1  UNL     1      20.704  30.187  11.572  1.00  0.00    -0.347 N 
HETATM   11  C5  UNL     1      21.656  29.935  12.599  1.00  0.00     0.219 C 
HETATM   12  O1  UNL     1      21.204  29.880  13.765  1.00  0.00    -0.274 OA
ATOM     13  H1  UNL     1      21.040  30.241  10.611  1.00  0.00     0.163 HD
BRANCH  11  14
HETATM   14  C6  UNL     1      23.073  29.747  12.335  1.00  0.00     0.112 C 
BRANCH  14  15
HETATM   15  C7  UNL     1      23.474  28.571  11.524  1.00  0.00    -0.031 C 
HETATM   16  C8  UNL     1      24.906  28.148  11.651  1.00  0.00     0.014 C 
HETATM   17  C9  UNL     1      25.119  26.869  10.877  1.00  0.00    -0.013 C 
HETATM   18  C10 UNL     1      24.791  27.041   9.410  1.00  0.00     0.009 C 
HETATM   19  C14 UNL     1      24.279  25.717  11.380  1.00  0.00     0.009 C 
HETATM   20  C11 UNL     1      23.340  27.453   9.308  1.00  0.00    -0.013 C 
HETATM   21  C12 UNL     1      22.406  26.418   9.874  1.00  0.00     0.009 C 
HETATM   22  C16 UNL     1      23.168  28.757  10.053  1.00  0.00     0.014 C 
HETATM   23  C13 UNL     1      22.830  26.142  11.287  1.00  0.00    -0.013 C 
HETATM   24  C15 UNL     1      22.649  27.396  12.096  1.00  0.00     0.014 C 
ENDBRANCH  14  15
ENDBRANCH  11  14
ENDBRANCH   6  10
ENDBRANCH   3   6
ENDBRANCH   1   2
BRANCH   1  25
HETATM   25  C19 UNL     1      17.201  32.013  15.920  1.00  0.00     0.144 C 
BRANCH  25  26
HETATM   26  O3  UNL     1      17.182  30.879  16.561  1.00  0.00    -0.348 OA
ATOM     27  H3  UNL     1      16.368  30.394  16.502  1.00  0.00     0.219 HD
ENDBRANCH  25  26
BRANCH  25  28
HETATM   28  N3  UNL     1      16.089  32.874  16.106  1.00  0.00    -0.368 N 
ATOM     29  H3  UNL     1      15.183  32.656  15.692  1.00  0.00     0.161 HD
BRANCH  28  30
HETATM   30  C20 UNL     1      16.278  34.093  16.912  1.00  0.00     0.083 C 
HETATM   31  C21 UNL     1      15.108  34.382  17.788  1.00  0.00     0.025 C 
HETATM   32  C22 UNL     1      14.661  35.810  17.510  1.00  0.00     0.002 C 
HETATM   33  C23 UNL     1      15.716  36.424  16.646  1.00  0.00     0.002 C 
HETATM   34  C24 UNL     1      16.426  35.271  15.960  1.00  0.00     0.025 C 
ENDBRANCH  28  30
ENDBRANCH  25  28
ENDBRANCH   1  25
BRANCH   1  35
HETATM   35  C25 UNL     1      19.638  32.522  15.774  1.00  0.00     0.249 C 
HETATM   36  O4  UNL     1      20.200  31.619  16.454  1.00  0.00    -0.271 OA
HETATM   37  N4  UNL     1      20.263  33.778  15.686  1.00  0.00    -0.347 N 
ATOM     38  H4  UNL     1      19.817  34.530  15.162  1.00  0.00     0.163 HD
BRANCH  37  39
HETATM   39  C26 UNL     1      21.569  34.017  16.354  1.00  0.00     0.167 C 
BRANCH  39  40
HETATM   40  C27 UNL     1      21.422  34.924  17.485  1.00  0.00     0.239 C 
HETATM   41  O5  UNL     1      21.930  34.569  18.595  1.00  0.00    -0.285 OA
BRANCH  40  42
HETATM   42  C28 UNL     1      20.745  36.210  17.449  1.00  0.00     0.289 C 
HETATM   43  O6  UNL     1      19.485  36.310  17.351  1.00  0.00    -0.264 OA
HETATM   44  N5  UNL     1      21.472  37.416  17.527  1.00  0.00    -0.350 N 
ATOM     45  H5  UNL     1      22.489  37.400  17.600  1.00  0.00     0.163 HD
BRANCH  44  46
HETATM   46  C29 UNL     1      20.764  38.674  17.504  1.00  0.00     0.084 C 
HETATM   47  C30 UNL     1      21.469  39.742  18.321  1.00  0.00     0.025 C 
HETATM   48  C31 UNL     1      22.159  40.643  17.321  1.00  0.00     0.002 C 
HETATM   49  C32 UNL     1      22.034  39.958  15.983  1.00  0.00     0.002 C 
HETATM   50  C33 UNL     1      20.729  39.211  16.112  1.00  0.00     0.025 C 
ENDBRANCH  44  46
ENDBRANCH  40  42
ENDBRANCH  39  40
BRANCH  39  51
HETATM   51  C34 UNL     1      22.519  34.507  15.276  1.00  0.00     0.008 C 
HETATM   52  C35 UNL     1      22.796  33.472  14.216  1.00  0.00     0.012 C 
HETATM   53  C36 UNL     1      22.050  35.779  14.668  1.00  0.00     0.012 C 
ENDBRANCH  39  51
ENDBRANCH  37  39
ENDBRANCH   1  35
TORSDOF 16
ENDMDL
MODEL 3
REMARK VINA RESULT: -9.812983533      1.645      3.876
REMARK  16 active torsions:
REMARK  status: ('A' for Active; 'I' for Inactive)
REMARK    1  A    between atoms: C2_2  and  C4_4 
REMARK    2  A    between atoms: C4_4  and  N1_5 
REMARK    3  A    between atoms: C4_4  and  C17_20 
REMARK       I    between atoms: N1_5  and  C5_7 
REMARK    4  A    between atoms: C5_7  and  C6_9 
REMARK    5  A    between atoms: C6_9  and  C7_10 
REMARK       I    between atoms: C17_20  and  N2_22 
REMARK    6  A    between atoms: N2_22  and  C18_24 
REMARK    7  A    between atoms: C18_24  and  C19_25 
REMARK    8  A    between atoms: C18_24  and  C25_35 
REMARK    9  A    between atoms: C19_25  and  O3_26 
REMARK   10  A    between atoms: C19_25  and  N3_28 
REMARK   11  A    between atoms: N3_28  and  C20_30 
REMARK       I    between atoms: C25_35  and  N4_37 
REMARK   12  A    between atoms: N4_37  and  C26_39 
REMARK   13  A    between atoms: C26_39  and  C27_40 
REMARK   14  A    between atoms: C26_39  and  C34_51 
REMARK   15  A    between atoms: C27_40  and  C28_42 
REMARK       I    between atoms: C28_42  and  N5_44 
REMARK   16  A    between atoms: N5_44  and  C29_46 
ROOT
HETATM    1  C18 UNL     1      17.639  33.872  15.096  1.00  0.00     0.251 C 
ENDROOT
BRANCH   1   2
HETATM    2  N2  UNL     1      18.024  32.963  13.986  1.00  0.00    -0.339 N 
HETATM    3  C17 UNL     1      18.063  31.577  14.176  1.00  0.00     0.241 C 
HETATM    4  O2  UNL     1      17.725  31.177  15.357  1.00  0.00    -0.271 OA
ATOM      5  H2  UNL     1      18.263  33.354  13.074  1.00  0.00     0.163 HD
BRANCH   3   6
HETATM    6  C4  UNL     1      18.433  30.595  13.170  1.00  0.00     0.180 C 
BRANCH   6   7
HETATM    7  C2  UNL     1      17.545  29.470  12.853  1.00  0.00     0.009 C 
HETATM    8  C1  UNL     1      18.145  28.198  13.494  1.00  0.00     0.012 C 
HETATM    9  C3  UNL     1      17.353  29.195  11.371  1.00  0.00     0.012 C 
ENDBRANCH   6   7
BRANCH   6  10
HETATM   10  N1  UNL     1      19.810  30.149  13.370  1.00  0.00    -0.347 N 
HETATM   11  C5  UNL     1      20.954  30.898  12.976  1.00  0.00     0.219 C 
HETATM   12  O1  UNL     1      20.726  31.997  12.423  1.00  0.00    -0.274 OA
ATOM     13  H1  UNL     1      19.961  29.247  13.821  1.00  0.00     0.163 HD
BRANCH  11  14
HETATM   14  C6  UNL     1      22.314  30.436  13.194  1.00  0.00     0.112 C 
BRANCH  14  15
HETATM   15  C7  UNL     1      22.776  29.258  12.419  1.00  0.00    -0.031 C 
HETATM   16  C8  UNL     1      22.373  27.921  12.961  1.00  0.00     0.014 C 
HETATM   17  C9  UNL     1      22.799  26.841  11.995  1.00  0.00    -0.013 C 
HETATM   18  C10 UNL     1      24.296  26.845  11.775  1.00  0.00     0.009 C 
HETATM   19  C14 UNL     1      22.157  26.969  10.632  1.00  0.00     0.009 C 
HETATM   20  C11 UNL     1      24.675  28.197  11.215  1.00  0.00    -0.013 C 
HETATM   21  C12 UNL     1      24.012  28.481   9.896  1.00  0.00     0.009 C 
HETATM   22  C16 UNL     1      24.278  29.252  12.223  1.00  0.00     0.014 C 
HETATM   23  C13 UNL     1      22.530  28.329  10.085  1.00  0.00    -0.013 C 
HETATM   24  C15 UNL     1      22.061  29.377  11.054  1.00  0.00     0.014 C 
ENDBRANCH  14  15
ENDBRANCH  11  14
ENDBRANCH   6  10
ENDBRANCH   3   6
ENDBRANCH   1   2
BRANCH   1  25
HETATM   25  C19 UNL     1      16.347  33.503  15.645  1.00  0.00     0.144 C 
BRANCH  25  26
HETATM   26  O3  UNL     1      15.429  33.218  14.766  1.00  0.00    -0.348 OA
ATOM     27  H3  UNL     1      14.675  32.749  15.103  1.00  0.00     0.219 HD
ENDBRANCH  25  26
BRANCH  25  28
HETATM   28  N3  UNL     1      15.974  33.418  17.012  1.00  0.00    -0.368 N 
ATOM     29  H3  UNL     1      16.083  32.546  17.531  1.00  0.00     0.161 HD
BRANCH  28  30
HETATM   30  C20 UNL     1      15.425  34.621  17.661  1.00  0.00     0.083 C 
HETATM   31  C21 UNL     1      15.014  35.662  16.677  1.00  0.00     0.025 C 
HETATM   32  C22 UNL     1      15.707  36.962  17.059  1.00  0.00     0.002 C 
HETATM   33  C23 UNL     1      16.333  36.732  18.398  1.00  0.00     0.002 C 
HETATM   34  C24 UNL     1      16.519  35.231  18.527  1.00  0.00     0.025 C 
ENDBRANCH  28  30
ENDBRANCH  25  28
ENDBRANCH   1  25
BRANCH   1  35
HETATM   35  C25 UNL     1      18.758  34.009  16.028  1.00  0.00     0.249 C 
HETATM   36  O4  UNL     1      18.753  33.364  17.113  1.00  0.00    -0.271 OA
HETATM   37  N4  UNL     1      19.860  34.836  15.748  1.00  0.00    -0.347 N 
ATOM     38  H4  UNL     1      19.876  35.384  14.888  1.00  0.00     0.163 HD
BRANCH  37  39
HETATM   39  C26 UNL     1      21.000  34.917  16.698  1.00  0.00     0.167 C 
BRANCH  39  40
HETATM   40  C27 UNL     1      21.301  36.301  17.039  1.00  0.00     0.239 C 
HETATM   41  O5  UNL     1      22.469  36.732  16.782  1.00  0.00    -0.285 OA
BRANCH  40  42
HETATM   42  C28 UNL     1      20.371  37.238  17.647  1.00  0.00     0.289 C 
HETATM   43  O6  UNL     1      19.868  37.046  18.795  1.00  0.00    -0.264 OA
HETATM   44  N5  UNL     1      19.987  38.419  16.978  1.00  0.00    -0.350 N 
ATOM     45  H5  UNL     1      20.353  38.625  16.048  1.00  0.00     0.163 HD
BRANCH  44  46
HETATM   46  C29 UNL     1      19.074  39.334  17.619  1.00  0.00     0.084 C 
HETATM   47  C30 UNL     1      19.782  40.560  18.168  1.00  0.00     0.025 C 
HETATM   48  C31 UNL     1      19.489  41.679  17.194  1.00  0.00     0.002 C 
HETATM   49  C32 UNL     1      18.822  41.038  16.004  1.00  0.00     0.002 C 
HETATM   50  C33 UNL     1      18.100  39.864  16.619  1.00  0.00     0.025 C 
ENDBRANCH  44  46
ENDBRANCH  40  42
ENDBRANCH  39  40
BRANCH  39  51
HETATM   51  C34 UNL     1      22.151  34.167  16.052  1.00  0.00     0.008 C 
HETATM   52  C35 UNL     1      22.211  32.715  16.455  1.00  0.00     0.012 C 
HETATM   53  C36 UNL     1      22.138  34.308  14.573  1.00  0.00     0.012 C 
ENDBRANCH  39  51
ENDBRANCH  37  39
ENDBRANCH   1  35
TORSDOF 16
ENDMDL
MODEL 4
REMARK VINA RESULT: -9.806593549      1.086      1.577
REMARK  16 active torsions:
REMARK  status: ('A' for Active; 'I' for Inactive)
REMARK    1  A    between atoms: C2_2  and  C4_4 
REMARK    2  A    between atoms: C4_4  and  N1_5 
REMARK    3  A    between atoms: C4_4  and  C17_20 
REMARK       I    between atoms: N1_5  and  C5_7 
REMARK    4  A    between atoms: C5_7  and  C6_9 
REMARK    5  A    between atoms: C6_9  and  C7_10 
REMARK       I    between atoms: C17_20  and  N2_22 
REMARK    6  A    between atoms: N2_22  and  C18_24 
REMARK    7  A    between atoms: C18_24  and  C19_25 
REMARK    8  A    between atoms: C18_24  and  C25_35 
REMARK    9  A    between atoms: C19_25  and  O3_26 
REMARK   10  A    between atoms: C19_25  and  N3_28 
REMARK   11  A    between atoms: N3_28  and  C20_30 
REMARK       I    between atoms: C25_35  and  N4_37 
REMARK   12  A    between atoms: N4_37  and  C26_39 
REMARK   13  A    between atoms: C26_39  and  C27_40 
REMARK   14  A    between atoms: C26_39  and  C34_51 
REMARK   15  A    between atoms: C27_40  and  C28_42 
REMARK       I    between atoms: C28_42  and  N5_44 
REMARK   16  A    between atoms: N5_44  and  C29_46 
ROOT
HETATM    1  C18 UNL     1      18.202  33.179  15.974  1.00  0.00     0.251 C 
ENDROOT
BRANCH   1   2
HETATM    2  N2  UNL     1      18.490  32.531  14.669  1.00  0.00    -0.339 N 
HETATM    3  C17 UNL     1      18.298  31.156  14.496  1.00  0.00     0.241 C 
HETATM    4  O2  UNL     1      17.843  30.531  15.531  1.00  0.00    -0.271 OA
ATOM      5  H2  UNL     1      18.832  33.095  13.891  1.00  0.00     0.163 HD
BRANCH   3   6
HETATM    6  C4  UNL     1      18.554  30.414  13.271  1.00  0.00     0.180 C 
BRANCH   6   7
HETATM    7  C2  UNL     1      17.601  29.408  12.787  1.00  0.00     0.009 C 
HETATM    8  C1  UNL     1      18.028  28.038  13.360  1.00  0.00     0.012 C 
HETATM    9  C3  UNL     1      17.517  29.271  11.276  1.00  0.00     0.012 C 
ENDBRANCH   6   7
BRANCH   6  10
HETATM   10  N1  UNL     1      19.924  29.904  13.259  1.00  0.00    -0.347 N 
HETATM   11  C5  UNL     1      21.040  30.635  12.767  1.00  0.00     0.219 C 
HETATM   12  O1  UNL     1      20.795  31.779  12.322  1.00  0.00    -0.274 OA
ATOM     13  H1  UNL     1      20.089  28.966  13.625  1.00  0.00     0.163 HD
BRANCH  11  14
HETATM   14  C6  UNL     1      22.395  30.108  12.772  1.00  0.00     0.112 C 
BRANCH  14  15
HETATM   15  C7  UNL     1      22.688  28.948  11.894  1.00  0.00    -0.031 C 
HETATM   16  C8  UNL     1      22.014  28.955  10.557  1.00  0.00     0.014 C 
HETATM   17  C9  UNL     1      22.517  27.789   9.738  1.00  0.00    -0.013 C 
HETATM   18  C10 UNL     1      22.238  26.466  10.418  1.00  0.00     0.009 C 
HETATM   19  C14 UNL     1      24.005  27.840   9.475  1.00  0.00     0.009 C 
HETATM   20  C11 UNL     1      22.941  26.480  11.756  1.00  0.00    -0.013 C 
HETATM   21  C12 UNL     1      24.431  26.628  11.624  1.00  0.00     0.009 C 
HETATM   22  C16 UNL     1      22.384  27.627  12.568  1.00  0.00     0.014 C 
HETATM   23  C13 UNL     1      24.699  27.866  10.819  1.00  0.00    -0.013 C 
HETATM   24  C15 UNL     1      24.200  29.056  11.589  1.00  0.00     0.014 C 
ENDBRANCH  14  15
ENDBRANCH  11  14
ENDBRANCH   6  10
ENDBRANCH   3   6
ENDBRANCH   1   2
BRANCH   1  25
HETATM   25  C19 UNL     1      19.401  33.268  16.788  1.00  0.00     0.144 C 
BRANCH  25  26
HETATM   26  O3  UNL     1      19.287  33.980  17.872  1.00  0.00    -0.348 OA
ATOM     27  H3  UNL     1      19.202  33.482  18.677  1.00  0.00     0.219 HD
ENDBRANCH  25  26
BRANCH  25  28
HETATM   28  N3  UNL     1      20.667  32.675  16.540  1.00  0.00    -0.368 N 
ATOM     29  H3  UNL     1      20.776  31.661  16.524  1.00  0.00     0.161 HD
BRANCH  28  30
HETATM   30  C20 UNL     1      21.819  33.563  16.308  1.00  0.00     0.083 C 
HETATM   31  C21 UNL     1      21.411  34.978  16.082  1.00  0.00     0.025 C 
HETATM   32  C22 UNL     1      22.035  35.438  14.772  1.00  0.00     0.002 C 
HETATM   33  C23 UNL     1      22.993  34.367  14.359  1.00  0.00     0.002 C 
HETATM   34  C24 UNL     1      22.528  33.095  15.044  1.00  0.00     0.025 C 
ENDBRANCH  28  30
ENDBRANCH  25  28
ENDBRANCH   1  25
BRANCH   1  35
HETATM   35  C25 UNL     1      17.440  34.408  15.754  1.00  0.00     0.249 C 
HETATM   36  O4  UNL     1      16.943  34.643  14.617  1.00  0.00    -0.271 OA
HETATM   37  N4  UNL     1      17.229  35.344  16.781  1.00  0.00    -0.347 N 
ATOM     38  H4  UNL     1      17.639  35.188  17.702  1.00  0.00     0.163 HD
BRANCH  37  39
HETATM   39  C26 UNL     1      16.411  36.561  16.534  1.00  0.00     0.167 C 
BRANCH  39  40
HETATM   40  C27 UNL     1      17.193  37.771  16.753  1.00  0.00     0.239 C 
HETATM   41  O5  UNL     1      16.651  38.884  16.462  1.00  0.00    -0.285 OA
BRANCH  40  42
HETATM   42  C28 UNL     1      18.545  37.814  17.284  1.00  0.00     0.289 C 
HETATM   43  O6  UNL     1      18.931  37.049  18.218  1.00  0.00    -0.264 OA
HETATM   44  N5  UNL     1      19.499  38.719  16.773  1.00  0.00    -0.350 N 
ATOM     45  H5  UNL     1      19.245  39.366  16.026  1.00  0.00     0.163 HD
BRANCH  44  46
HETATM   46  C29 UNL     1      20.836  38.723  17.314  1.00  0.00     0.084 C 
HETATM   47  C30 UNL     1      21.894  38.781  16.227  1.00  0.00     0.025 C 
HETATM   48  C31 UNL     1      22.396  40.207  16.210  1.00  0.00     0.002 C 
HETATM   49  C32 UNL     1      21.474  40.987  17.113  1.00  0.00     0.002 C 
HETATM   50  C33 UNL     1      21.051  39.955  18.130  1.00  0.00     0.025 C 
ENDBRANCH  44  46
ENDBRANCH  40  42
ENDBRANCH  39  40
BRANCH  39  51
HETATM   51  C34 UNL     1      15.183  36.440  17.416  1.00  0.00     0.008 C 
HETATM   52  C35 UNL     1      14.483  35.111  17.278  1.00  0.00     0.012 C 
HETATM   53  C36 UNL     1      15.497  36.729  18.838  1.00  0.00     0.012 C 
ENDBRANCH  39  51
ENDBRANCH  37  39
ENDBRANCH   1  35
TORSDOF 16
ENDMDL
MODEL 5
REMARK VINA RESULT: -9.785294403      1.039      1.719
REMARK  16 active torsions:
REMARK  status: ('A' for Active; 'I' for Inactive)
REMARK    1  A    between atoms: C2_2  and  C4_4 
REMARK    2  A    between atoms: C4_4  and  N1_5 
REMARK    3  A    between atoms: C4_4  and  C17_20 
REMARK       I    between atoms: N1_5  and  C5_7 
REMARK    4  A    between atoms: C5_7  and  C6_9 
REMARK    5  A    between atoms: C6_9  and  C7_10 
REMARK       I    between atoms: C17_20  and  N2_22 
REMARK    6  A    between atoms: N2_22  and  C18_24 
REMARK    7  A    between atoms: C18_24  and  C19_25 
REMARK    8  A    between atoms: C18_24  and  C25_35 
REMARK    9  A    between atoms: C19_25  and  O3_26 
REMARK   10  A    between atoms: C19_25  and  N3_28 
REMARK   11  A    between atoms: N3_28  and  C20_30 
REMARK       I    between atoms: C25_35  and  N4_37 
REMARK   12  A    between atoms: N4_37  and  C26_39 
REMARK   13  A    between atoms: C26_39  and  C27_40 
REMARK   14  A    between atoms: C26_39  and  C34_51 
REMARK   15  A    between atoms: C27_40  and  C28_42 
REMARK       I    between atoms: C28_42  and  N5_44 
REMARK   16  A    between atoms: N5_44  and  C29_46 
ROOT
HETATM    1  C18 UNL     1      18.890  31.595  15.533  1.00  0.00     0.251 C 
ENDROOT
BRANCH   1   2
HETATM    2  N2  UNL     1      19.074  31.401  14.072  1.00  0.00    -0.339 N 
HETATM    3  C17 UNL     1      18.593  30.250  13.437  1.00  0.00     0.241 C 
HETATM    4  O2  UNL     1      17.980  29.414  14.208  1.00  0.00    -0.271 OA
ATOM      5  H2  UNL     1      19.555  32.114  13.525  1.00  0.00     0.163 HD
BRANCH   3   6
HETATM    6  C4  UNL     1      18.723  29.948  12.020  1.00  0.00     0.180 C 
BRANCH   6   7
HETATM    7  C2  UNL     1      18.050  28.784  11.433  1.00  0.00     0.009 C 
HETATM    8  C1  UNL     1      19.096  27.995  10.614  1.00  0.00     0.012 C 
HETATM    9  C3  UNL     1      16.887  29.106  10.510  1.00  0.00     0.012 C 
ENDBRANCH   6   7
BRANCH   6  10
HETATM   10  N1  UNL     1      20.123  30.022  11.607  1.00  0.00    -0.347 N 
HETATM   11  C5  UNL     1      21.211  29.560  12.398  1.00  0.00     0.219 C 
HETATM   12  O1  UNL     1      20.913  29.072  13.511  1.00  0.00    -0.274 OA
ATOM     13  H1  UNL     1      20.333  30.429  10.695  1.00  0.00     0.163 HD
BRANCH  11  14
HETATM   14  C6  UNL     1      22.595  29.638  11.961  1.00  0.00     0.112 C 
BRANCH  14  15
HETATM   15  C7  UNL     1      23.154  28.477  11.225  1.00  0.00    -0.031 C 
HETATM   16  C8  UNL     1      24.637  28.291  11.327  1.00  0.00     0.014 C 
HETATM   17  C9  UNL     1      25.027  27.002  10.644  1.00  0.00    -0.013 C 
HETATM   18  C10 UNL     1      24.635  27.002   9.182  1.00  0.00     0.009 C 
HETATM   19  C14 UNL     1      24.393  25.779  11.266  1.00  0.00     0.009 C 
HETATM   20  C11 UNL     1      23.136  27.175   9.108  1.00  0.00    -0.013 C 
HETATM   21  C12 UNL     1      22.392  26.058   9.787  1.00  0.00     0.009 C 
HETATM   22  C16 UNL     1      22.781  28.494   9.758  1.00  0.00     0.014 C 
HETATM   23  C13 UNL     1      22.893  25.966  11.199  1.00  0.00    -0.013 C 
HETATM   24  C15 UNL     1      22.540  27.238  11.917  1.00  0.00     0.014 C 
ENDBRANCH  14  15
ENDBRANCH  11  14
ENDBRANCH   6  10
ENDBRANCH   3   6
ENDBRANCH   1   2
BRANCH   1  25
HETATM   25  C19 UNL     1      20.064  31.159  16.268  1.00  0.00     0.144 C 
BRANCH  25  26
HETATM   26  O3  UNL     1      20.304  29.879  16.224  1.00  0.00    -0.348 OA
ATOM     27  H3  UNL     1      20.827  29.540  16.941  1.00  0.00     0.219 HD
ENDBRANCH  25  26
BRANCH  25  28
HETATM   28  N3  UNL     1      20.967  31.956  17.017  1.00  0.00    -0.368 N 
ATOM     29  H3  UNL     1      20.833  32.097  18.019  1.00  0.00     0.161 HD
BRANCH  28  30
HETATM   30  C20 UNL     1      22.103  32.574  16.312  1.00  0.00     0.083 C 
HETATM   31  C21 UNL     1      21.984  34.057  16.230  1.00  0.00     0.025 C 
HETATM   32  C22 UNL     1      22.119  34.455  14.767  1.00  0.00     0.002 C 
HETATM   33  C23 UNL     1      22.550  33.226  14.032  1.00  0.00     0.002 C 
HETATM   34  C24 UNL     1      22.115  32.047  14.883  1.00  0.00     0.025 C 
ENDBRANCH  28  30
ENDBRANCH  25  28
ENDBRANCH   1  25
BRANCH   1  35
HETATM   35  C25 UNL     1      18.392  32.946  15.789  1.00  0.00     0.249 C 
HETATM   36  O4  UNL     1      18.601  33.862  14.946  1.00  0.00    -0.271 OA
HETATM   37  N4  UNL     1      17.668  33.262  16.952  1.00  0.00    -0.347 N 
ATOM     38  H4  UNL     1      17.506  32.544  17.659  1.00  0.00     0.163 HD
BRANCH  37  39
HETATM   39  C26 UNL     1      17.139  34.635  17.159  1.00  0.00     0.167 C 
BRANCH  39  40
HETATM   40  C27 UNL     1      18.043  35.426  17.985  1.00  0.00     0.239 C 
HETATM   41  O5  UNL     1      18.359  34.961  19.125  1.00  0.00    -0.285 OA
BRANCH  40  42
HETATM   42  C28 UNL     1      18.620  36.707  17.611  1.00  0.00     0.289 C 
HETATM   43  O6  UNL     1      17.938  37.774  17.579  1.00  0.00    -0.264 OA
HETATM   44  N5  UNL     1      19.984  36.816  17.267  1.00  0.00    -0.350 N 
ATOM     45  H5  UNL     1      20.582  35.990  17.266  1.00  0.00     0.163 HD
BRANCH  44  46
HETATM   46  C29 UNL     1      20.526  38.106  16.916  1.00  0.00     0.084 C 
HETATM   47  C30 UNL     1      21.073  38.845  18.124  1.00  0.00     0.025 C 
HETATM   48  C31 UNL     1      22.577  38.710  18.048  1.00  0.00     0.002 C 
HETATM   49  C32 UNL     1      22.855  37.719  16.946  1.00  0.00     0.002 C 
HETATM   50  C33 UNL     1      21.696  37.935  16.004  1.00  0.00     0.025 C 
ENDBRANCH  44  46
ENDBRANCH  40  42
ENDBRANCH  39  40
BRANCH  39  51
HETATM   51  C34 UNL     1      15.744  34.476  17.733  1.00  0.00     0.008 C 
HETATM   52  C35 UNL     1      14.934  35.747  17.681  1.00  0.00     0.012 C 
HETATM   53  C36 UNL     1      15.011  33.353  17.095  1.00  0.00     0.012 C 
ENDBRANCH  39  51
ENDBRANCH  37  39
ENDBRANCH   1  35
TORSDOF 16
ENDMDL
