MODEL 1
REMARK VINA RESULT: -9.635985391      0.000      0.000
REMARK  18 active torsions:
REMARK  status: ('A' for Active; 'I' for Inactive)
REMARK    1  A    between atoms: C2_2  and  C4_4 
REMARK    2  A    between atoms: C4_4  and  C5_5 
REMARK    3  A    between atoms: C5_5  and  N1_6 
REMARK    4  A    between atoms: C5_5  and  C26_37 
REMARK       I    between atoms: N1_6  and  C6_8 
REMARK    5  A    between atoms: C6_8  and  C7_10 
REMARK    6  A    between atoms: C7_10  and  N2_11 
REMARK    7  A    between atoms: C7_10  and  C22_33 
REMARK       I    between atoms: N2_11  and  C8_12 
REMARK       I    between atoms: C8_12  and  N4_16 
REMARK    8  A    between atoms: N4_16  and  C9_18 
REMARK    9  A    between atoms: C9_18  and  C10_19 
REMARK   10  A    between atoms: C9_18  and  C17_26 
REMARK   11  A    between atoms: C17_26  and  O2_27 
REMARK   12  A    between atoms: C17_26  and  C18_29 
REMARK       I    between atoms: C26_37  and  N5_39 
REMARK   13  A    between atoms: N5_39  and  C27_41 
REMARK   14  A    between atoms: C27_41  and  C28_42 
REMARK   15  A    between atoms: C27_41  and  C30_47 
REMARK   16  A    between atoms: N6_43  and  O4_45 
REMARK   17  A    between atoms: C30_47  and  C31_48 
REMARK   18  A    between atoms: C31_48  and  C32_49 
ROOT
HETATM    1  C7  UNL     1      20.299  31.644  14.341  1.00  0.00     0.163 C 
ENDROOT
BRANCH   1   2
HETATM    2  C6  UNL     1      19.203  32.131  15.256  1.00  0.00     0.279 C 
HETATM    3  N1  UNL     1      18.626  33.429  15.162  1.00  0.00    -0.342 N 
ATOM      4  H1  UNL     1      18.952  34.092  14.459  1.00  0.00     0.163 HD
HETATM    5  O1  UNL     1      18.801  31.339  16.124  1.00  0.00    -0.265 OA
BRANCH   3   6
HETATM    6  C5  UNL     1      17.566  33.792  16.084  1.00  0.00     0.177 C 
BRANCH   6   7
HETATM    7  C4  UNL     1      16.223  33.769  15.374  1.00  0.00     0.038 C 
BRANCH   7   8
HETATM    8  C2  UNL     1      15.061  33.263  16.148  1.00  0.00    -0.020 C 
HETATM    9  C1  UNL     1      14.115  34.491  16.428  1.00  0.00     0.009 C 
HETATM   10  C3  UNL     1      14.171  32.329  15.366  1.00  0.00     0.009 C 
ENDBRANCH   7   8
ENDBRANCH   6   7
BRANCH   6  11
HETATM   11  C26 UNL     1      17.750  34.972  16.886  1.00  0.00     0.241 C 
HETATM   12  O3  UNL     1      18.281  34.957  18.058  1.00  0.00    -0.271 OA
HETATM   13  N5  UNL     1      17.315  36.222  16.327  1.00  0.00    -0.350 N 
ATOM     14  H5  UNL     1      16.895  36.211  15.398  1.00  0.00     0.163 HD
BRANCH  13  15
HETATM   15  C27 UNL     1      17.435  37.473  16.993  1.00  0.00     0.125 C 
BRANCH  15  16
HETATM   16  C28 UNL     1      18.612  38.244  16.438  1.00  0.00     0.114 C 
HETATM   17  N6  UNL     1      19.735  38.146  17.038  1.00  0.00    -0.278 N 
HETATM   18  C29 UNL     1      20.945  38.834  16.623  1.00  0.00     0.184 C 
BRANCH  17  19
HETATM   19  O4  UNL     1      19.835  37.349  18.153  1.00  0.00    -0.289 OA
ATOM     20  H4  UNL     1      19.967  37.752  19.003  1.00  0.00     0.244 HD
ENDBRANCH  17  19
ENDBRANCH  15  16
BRANCH  15  21
HETATM   21  C30 UNL     1      16.181  38.304  16.910  1.00  0.00     0.039 C 
BRANCH  21  22
HETATM   22  C31 UNL     1      15.379  38.253  18.199  1.00  0.00     0.102 C 
BRANCH  22  23
HETATM   23  C32 UNL     1      14.878  39.615  18.551  1.00  0.00     0.231 C 
HETATM   24  N7  UNL     1      14.208  39.843  19.761  1.00  0.00    -0.062 NA
HETATM   25  O5  UNL     1      15.057  40.553  17.749  1.00  0.00    -0.277 OA
ENDBRANCH  22  23
ENDBRANCH  21  22
ENDBRANCH  15  21
ENDBRANCH  13  15
ENDBRANCH   6  11
ENDBRANCH   3   6
ENDBRANCH   1   2
BRANCH   1  26
HETATM   26  N2  UNL     1      20.011  30.725  13.664  1.00  0.00    -0.370 NA
HETATM   27  C8  UNL     1      19.743  29.646  12.911  1.00  0.00     0.249 C 
HETATM   28  N3  UNL     1      19.001  28.686  13.501  1.00  0.00    -0.360 N 
HETATM   29  N4  UNL     1      20.070  29.380  11.575  1.00  0.00    -0.340 N 
ATOM     30  H32 UNL     1      18.762  28.879  14.474  1.00  0.00     0.160 HD
ATOM     31  H31 UNL     1      18.797  27.866  12.928  1.00  0.00     0.160 HD
ATOM     32  H4  UNL     1      19.830  30.080  10.874  1.00  0.00     0.164 HD
BRANCH  29  33
HETATM   33  C9  UNL     1      20.769  28.093  11.107  1.00  0.00     0.138 C 
BRANCH  33  34
HETATM   34  C10 UNL     1      21.870  27.958  12.034  1.00  0.00     0.003 C 
HETATM   35  C11 UNL     1      23.200  27.469  11.739  1.00  0.00    -0.082 C 
HETATM   36  C12 UNL     1      23.421  26.104  11.202  1.00  0.00     0.034 C 
HETATM   37  C16 UNL     1      24.057  28.516  11.019  1.00  0.00     0.034 C 
HETATM   38  C13 UNL     1      24.932  25.978  10.910  1.00  0.00     0.004 C 
HETATM   39  C14 UNL     1      25.091  26.731   9.591  1.00  0.00     0.001 C 
HETATM   40  C15 UNL     1      24.485  28.079   9.659  1.00  0.00     0.004 C 
ENDBRANCH  33  34
BRANCH  33  41
HETATM   41  C17 UNL     1      19.644  27.216  10.979  1.00  0.00     0.152 C 
BRANCH  41  42
HETATM   42  O2  UNL     1      19.859  26.102  11.650  1.00  0.00    -0.392 OA
ATOM     43  H2  UNL     1      19.085  25.864  12.144  1.00  0.00     0.210 HD
ENDBRANCH  41  42
BRANCH  41  44
HETATM   44  C18 UNL     1      18.330  27.045  10.387  1.00  0.00    -0.016 A 
HETATM   45  C19 UNL     1      17.164  26.555  11.268  1.00  0.00     0.018 C 
HETATM   46  C20 UNL     1      18.279  26.473   8.991  1.00  0.00     0.012 A 
HETATM   47  C21 UNL     1      17.938  27.911   9.214  1.00  0.00     0.012 A 
ENDBRANCH  41  44
ENDBRANCH  33  41
ENDBRANCH  29  33
ENDBRANCH   1  26
BRANCH   1  48
HETATM   48  C22 UNL     1      21.574  32.400  14.478  1.00  0.00     0.010 C 
HETATM   49  C23 UNL     1      21.527  33.871  14.433  1.00  0.00     0.022 C 
HETATM   50  C24 UNL     1      22.531  31.950  13.361  1.00  0.00     0.022 C 
HETATM   51  C25 UNL     1      22.231  31.927  15.809  1.00  0.00     0.022 C 
ENDBRANCH   1  48
TORSDOF 18
ENDMDL
MODEL 2
REMARK VINA RESULT: -9.633659238      4.584     11.241
REMARK  18 active torsions:
REMARK  status: ('A' for Active; 'I' for Inactive)
REMARK    1  A    between atoms: C2_2  and  C4_4 
REMARK    2  A    between atoms: C4_4  and  C5_5 
REMARK    3  A    between atoms: C5_5  and  N1_6 
REMARK    4  A    between atoms: C5_5  and  C26_37 
REMARK       I    between atoms: N1_6  and  C6_8 
REMARK    5  A    between atoms: C6_8  and  C7_10 
REMARK    6  A    between atoms: C7_10  and  N2_11 
REMARK    7  A    between atoms: C7_10  and  C22_33 
REMARK       I    between atoms: N2_11  and  C8_12 
REMARK       I    between atoms: C8_12  and  N4_16 
REMARK    8  A    between atoms: N4_16  and  C9_18 
REMARK    9  A    between atoms: C9_18  and  C10_19 
REMARK   10  A    between atoms: C9_18  and  C17_26 
REMARK   11  A    between atoms: C17_26  and  O2_27 
REMARK   12  A    between atoms: C17_26  and  C18_29 
REMARK       I    between atoms: C26_37  and  N5_39 
REMARK   13  A    between atoms: N5_39  and  C27_41 
REMARK   14  A    between atoms: C27_41  and  C28_42 
REMARK   15  A    between atoms: C27_41  and  C30_47 
REMARK   16  A    between atoms: N6_43  and  O4_45 
REMARK   17  A    between atoms: C30_47  and  C31_48 
REMARK   18  A    between atoms: C31_48  and  C32_49 
ROOT
HETATM    1  C7  UNL     1      23.066  27.337  11.845  1.00  0.00     0.163 C 
ENDROOT
BRANCH   1   2
HETATM    2  C6  UNL     1      22.425  26.236  11.038  1.00  0.00     0.279 C 
HETATM    3  N1  UNL     1      21.998  26.401   9.690  1.00  0.00    -0.342 N 
ATOM      4  H1  UNL     1      22.106  27.299   9.219  1.00  0.00     0.163 HD
HETATM    5  O1  UNL     1      22.277  25.138  11.600  1.00  0.00    -0.265 OA
BRANCH   3   6
HETATM    6  C5  UNL     1      21.406  25.271   8.999  1.00  0.00     0.177 C 
BRANCH   6   7
HETATM    7  C4  UNL     1      22.302  24.827   7.856  1.00  0.00     0.038 C 
BRANCH   7   8
HETATM    8  C2  UNL     1      23.734  24.592   8.173  1.00  0.00    -0.020 C 
HETATM    9  C1  UNL     1      24.204  23.354   7.321  1.00  0.00     0.009 C 
HETATM   10  C3  UNL     1      24.649  25.692   7.696  1.00  0.00     0.009 C 
ENDBRANCH   7   8
ENDBRANCH   6   7
BRANCH   6  11
HETATM   11  C26 UNL     1      20.023  25.371   8.614  1.00  0.00     0.241 C 
HETATM   12  O3  UNL     1      19.142  24.476   8.898  1.00  0.00    -0.271 OA
HETATM   13  N5  UNL     1      19.627  26.538   7.878  1.00  0.00    -0.350 N 
ATOM     14  H5  UNL     1      20.341  27.233   7.661  1.00  0.00     0.163 HD
BRANCH  13  15
HETATM   15  C27 UNL     1      18.299  26.783   7.434  1.00  0.00     0.125 C 
BRANCH  15  16
HETATM   16  C28 UNL     1      17.843  25.664   6.523  1.00  0.00     0.114 C 
HETATM   17  N6  UNL     1      18.200  25.701   5.298  1.00  0.00    -0.278 N 
HETATM   18  C29 UNL     1      17.831  24.702   4.310  1.00  0.00     0.184 C 
BRANCH  17  19
HETATM   19  O4  UNL     1      18.980  26.742   4.853  1.00  0.00    -0.289 OA
ATOM     20  H4  UNL     1      18.718  27.635   5.046  1.00  0.00     0.244 HD
ENDBRANCH  17  19
ENDBRANCH  15  16
BRANCH  15  21
HETATM   21  C30 UNL     1      17.324  26.961   8.569  1.00  0.00     0.039 C 
BRANCH  21  22
HETATM   22  C31 UNL     1      17.443  28.333   9.209  1.00  0.00     0.102 C 
BRANCH  22  23
HETATM   23  C32 UNL     1      18.318  28.265  10.418  1.00  0.00     0.231 C 
HETATM   24  N7  UNL     1      19.685  28.567  10.333  1.00  0.00    -0.062 NA
HETATM   25  O5  UNL     1      17.819  27.931  11.510  1.00  0.00    -0.277 OA
ENDBRANCH  22  23
ENDBRANCH  21  22
ENDBRANCH  15  21
ENDBRANCH  13  15
ENDBRANCH   6  11
ENDBRANCH   3   6
ENDBRANCH   1   2
BRANCH   1  26
HETATM   26  N2  UNL     1      22.346  27.894  12.590  1.00  0.00    -0.370 NA
HETATM   27  C8  UNL     1      21.504  28.570  13.388  1.00  0.00     0.249 C 
HETATM   28  N3  UNL     1      20.263  28.054  13.507  1.00  0.00    -0.360 N 
HETATM   29  N4  UNL     1      21.729  29.712  14.167  1.00  0.00    -0.340 N 
ATOM     30  H32 UNL     1      20.099  27.223  12.939  1.00  0.00     0.160 HD
ATOM     31  H31 UNL     1      19.624  28.569  14.114  1.00  0.00     0.160 HD
ATOM     32  H4  UNL     1      22.524  29.708  14.806  1.00  0.00     0.164 HD
BRANCH  29  33
HETATM   33  C9  UNL     1      20.846  30.969  14.115  1.00  0.00     0.138 C 
BRANCH  33  34
HETATM   34  C10 UNL     1      20.077  30.885  15.337  1.00  0.00     0.003 C 
HETATM   35  C11 UNL     1      18.868  31.614  15.654  1.00  0.00    -0.082 C 
HETATM   36  C12 UNL     1      18.844  33.098  15.684  1.00  0.00     0.034 C 
HETATM   37  C16 UNL     1      17.637  31.034  14.951  1.00  0.00     0.034 C 
HETATM   38  C13 UNL     1      17.381  33.515  15.947  1.00  0.00     0.004 C 
HETATM   39  C14 UNL     1      16.724  33.340  14.580  1.00  0.00     0.001 C 
HETATM   40  C15 UNL     1      16.994  32.000  14.014  1.00  0.00     0.004 C 
ENDBRANCH  33  34
BRANCH  33  41
HETATM   41  C17 UNL     1      21.825  31.962  13.785  1.00  0.00     0.152 C 
BRANCH  41  42
HETATM   42  O2  UNL     1      22.305  31.740  12.578  1.00  0.00    -0.392 OA
ATOM     43  H2  UNL     1      23.181  32.099  12.505  1.00  0.00     0.210 HD
ENDBRANCH  41  42
BRANCH  41  44
HETATM   44  C18 UNL     1      22.529  33.141  14.255  1.00  0.00    -0.016 A 
HETATM   45  C19 UNL     1      23.807  33.597  13.523  1.00  0.00     0.018 C 
HETATM   46  C20 UNL     1      22.620  33.331  15.749  1.00  0.00     0.012 A 
HETATM   47  C21 UNL     1      21.747  34.235  14.940  1.00  0.00     0.012 A 
ENDBRANCH  41  44
ENDBRANCH  33  41
ENDBRANCH  29  33
ENDBRANCH   1  26
BRANCH   1  48
HETATM   48  C22 UNL     1      24.507  27.548  11.531  1.00  0.00     0.010 C 
HETATM   49  C23 UNL     1      25.374  26.367  11.382  1.00  0.00     0.022 C 
HETATM   50  C24 UNL     1      25.125  28.419  12.638  1.00  0.00     0.022 C 
HETATM   51  C25 UNL     1      24.559  28.414  10.238  1.00  0.00     0.022 C 
ENDBRANCH   1  48
TORSDOF 18
ENDMDL
MODEL 3
REMARK VINA RESULT: -9.604525210      0.845      1.079
REMARK  18 active torsions:
REMARK  status: ('A' for Active; 'I' for Inactive)
REMARK    1  A    between atoms: C2_2  and  C4_4 
REMARK    2  A    between atoms: C4_4  and  C5_5 
REMARK    3  A    between atoms: C5_5  and  N1_6 
REMARK    4  A    between atoms: C5_5  and  C26_37 
REMARK       I    between atoms: N1_6  and  C6_8 
REMARK    5  A    between atoms: C6_8  and  C7_10 
REMARK    6  A    between atoms: C7_10  and  N2_11 
REMARK    7  A    between atoms: C7_10  and  C22_33 
REMARK       I    between atoms: N2_11  and  C8_12 
REMARK       I    between atoms: C8_12  and  N4_16 
REMARK    8  A    between atoms: N4_16  and  C9_18 
REMARK    9  A    between atoms: C9_18  and  C10_19 
REMARK   10  A    between atoms: C9_18  and  C17_26 
REMARK   11  A    between atoms: C17_26  and  O2_27 
REMARK   12  A    between atoms: C17_26  and  C18_29 
REMARK       I    between atoms: C26_37  and  N5_39 
REMARK   13  A    between atoms: N5_39  and  C27_41 
REMARK   14  A    between atoms: C27_41  and  C28_42 
REMARK   15  A    between atoms: C27_41  and  C30_47 
REMARK   16  A    between atoms: N6_43  and  O4_45 
REMARK   17  A    between atoms: C30_47  and  C31_48 
REMARK   18  A    between atoms: C31_48  and  C32_49 
ROOT
HETATM    1  C7  UNL     1      20.300  31.811  14.147  1.00  0.00     0.163 C 
ENDROOT
BRANCH   1   2
HETATM    2  C6  UNL     1      19.206  32.231  15.096  1.00  0.00     0.279 C 
HETATM    3  N1  UNL     1      18.645  33.539  15.112  1.00  0.00    -0.342 N 
ATOM      4  H1  UNL     1      18.982  34.256  14.469  1.00  0.00     0.163 HD
HETATM    5  O1  UNL     1      18.791  31.373  15.893  1.00  0.00    -0.265 OA
BRANCH   3   6
HETATM    6  C5  UNL     1      17.585  33.835  16.057  1.00  0.00     0.177 C 
BRANCH   6   7
HETATM    7  C4  UNL     1      16.233  33.779  15.366  1.00  0.00     0.038 C 
BRANCH   7   8
HETATM    8  C2  UNL     1      15.092  33.258  16.159  1.00  0.00    -0.020 C 
HETATM    9  C1  UNL     1      14.118  34.467  16.426  1.00  0.00     0.009 C 
HETATM   10  C3  UNL     1      14.218  32.287  15.403  1.00  0.00     0.009 C 
ENDBRANCH   7   8
ENDBRANCH   6   7
BRANCH   6  11
HETATM   11  C26 UNL     1      17.734  35.000  16.888  1.00  0.00     0.241 C 
HETATM   12  O3  UNL     1      18.240  34.967  18.072  1.00  0.00    -0.271 OA
HETATM   13  N5  UNL     1      17.293  36.255  16.348  1.00  0.00    -0.350 N 
ATOM     14  H5  UNL     1      16.893  36.259  15.410  1.00  0.00     0.163 HD
BRANCH  13  15
HETATM   15  C27 UNL     1      17.380  37.493  17.043  1.00  0.00     0.125 C 
BRANCH  15  16
HETATM   16  C28 UNL     1      18.526  38.315  16.495  1.00  0.00     0.114 C 
HETATM   17  N6  UNL     1      19.662  38.223  17.069  1.00  0.00    -0.278 N 
HETATM   18  C29 UNL     1      20.846  38.957  16.657  1.00  0.00     0.184 C 
BRANCH  17  19
HETATM   19  O4  UNL     1      19.806  37.386  18.150  1.00  0.00    -0.289 OA
ATOM     20  H4  UNL     1      20.665  37.275  18.542  1.00  0.00     0.244 HD
ENDBRANCH  17  19
ENDBRANCH  15  16
BRANCH  15  21
HETATM   21  C30 UNL     1      16.098  38.285  16.994  1.00  0.00     0.039 C 
BRANCH  21  22
HETATM   22  C31 UNL     1      15.254  38.077  18.239  1.00  0.00     0.102 C 
BRANCH  22  23
HETATM   23  C32 UNL     1      15.194  39.337  19.039  1.00  0.00     0.231 C 
HETATM   24  N7  UNL     1      16.350  40.098  19.266  1.00  0.00    -0.062 NA
HETATM   25  O5  UNL     1      14.101  39.705  19.511  1.00  0.00    -0.277 OA
ENDBRANCH  22  23
ENDBRANCH  21  22
ENDBRANCH  15  21
ENDBRANCH  13  15
ENDBRANCH   6  11
ENDBRANCH   3   6
ENDBRANCH   1   2
BRANCH   1  26
HETATM   26  N2  UNL     1      19.988  30.999  13.354  1.00  0.00    -0.370 NA
HETATM   27  C8  UNL     1      19.683  30.034  12.472  1.00  0.00     0.249 C 
HETATM   28  N3  UNL     1      18.752  29.143  12.873  1.00  0.00    -0.360 N 
HETATM   29  N4  UNL     1      20.145  29.833  11.165  1.00  0.00    -0.340 N 
ATOM     30  H32 UNL     1      18.415  29.288  13.825  1.00  0.00     0.160 HD
ATOM     31  H31 UNL     1      18.521  28.409  12.202  1.00  0.00     0.160 HD
ATOM     32  H4  UNL     1      20.092  30.615  10.512  1.00  0.00     0.164 HD
BRANCH  29  33
HETATM   33  C9  UNL     1      20.727  28.503  10.659  1.00  0.00     0.138 C 
BRANCH  33  34
HETATM   34  C10 UNL     1      21.567  28.071  11.754  1.00  0.00     0.003 C 
HETATM   35  C11 UNL     1      22.857  27.424  11.656  1.00  0.00    -0.082 C 
HETATM   36  C12 UNL     1      23.021  26.126  10.955  1.00  0.00     0.034 C 
HETATM   37  C16 UNL     1      23.978  28.410  11.309  1.00  0.00     0.034 C 
HETATM   38  C13 UNL     1      24.531  25.804  10.958  1.00  0.00     0.004 C 
HETATM   39  C14 UNL     1      25.074  26.695   9.843  1.00  0.00     0.001 C 
HETATM   40  C15 UNL     1      24.642  28.100  10.010  1.00  0.00     0.004 C 
ENDBRANCH  33  34
BRANCH  33  41
HETATM   41  C17 UNL     1      19.538  27.860  10.186  1.00  0.00     0.152 C 
BRANCH  41  42
HETATM   42  O2  UNL     1      18.675  28.761   9.761  1.00  0.00    -0.392 OA
ATOM     43  H2  UNL     1      18.786  28.905   8.829  1.00  0.00     0.210 HD
ENDBRANCH  41  42
BRANCH  41  44
HETATM   44  C18 UNL     1      18.874  26.586   9.987  1.00  0.00    -0.016 A 
HETATM   45  C19 UNL     1      18.568  26.111   8.553  1.00  0.00     0.018 C 
HETATM   46  C20 UNL     1      17.776  26.229  10.959  1.00  0.00     0.012 A 
HETATM   47  C21 UNL     1      19.074  25.490  11.005  1.00  0.00     0.012 A 
ENDBRANCH  41  44
ENDBRANCH  33  41
ENDBRANCH  29  33
ENDBRANCH   1  26
BRANCH   1  48
HETATM   48  C22 UNL     1      21.605  32.481  14.402  1.00  0.00     0.010 C 
HETATM   49  C23 UNL     1      21.656  33.953  14.377  1.00  0.00     0.022 C 
HETATM   50  C24 UNL     1      22.623  31.982  13.362  1.00  0.00     0.022 C 
HETATM   51  C25 UNL     1      22.116  31.953  15.776  1.00  0.00     0.022 C 
ENDBRANCH   1  48
TORSDOF 18
ENDMDL
MODEL 4
REMARK VINA RESULT: -9.488870382      1.184      3.182
REMARK  18 active torsions:
REMARK  status: ('A' for Active; 'I' for Inactive)
REMARK    1  A    between atoms: C2_2  and  C4_4 
REMARK    2  A    between atoms: C4_4  and  C5_5 
REMARK    3  A    between atoms: C5_5  and  N1_6 
REMARK    4  A    between atoms: C5_5  and  C26_37 
REMARK       I    between atoms: N1_6  and  C6_8 
REMARK    5  A    between atoms: C6_8  and  C7_10 
REMARK    6  A    between atoms: C7_10  and  N2_11 
REMARK    7  A    between atoms: C7_10  and  C22_33 
REMARK       I    between atoms: N2_11  and  C8_12 
REMARK       I    between atoms: C8_12  and  N4_16 
REMARK    8  A    between atoms: N4_16  and  C9_18 
REMARK    9  A    between atoms: C9_18  and  C10_19 
REMARK   10  A    between atoms: C9_18  and  C17_26 
REMARK   11  A    between atoms: C17_26  and  O2_27 
REMARK   12  A    between atoms: C17_26  and  C18_29 
REMARK       I    between atoms: C26_37  and  N5_39 
REMARK   13  A    between atoms: N5_39  and  C27_41 
REMARK   14  A    between atoms: C27_41  and  C28_42 
REMARK   15  A    between atoms: C27_41  and  C30_47 
REMARK   16  A    between atoms: N6_43  and  O4_45 
REMARK   17  A    between atoms: C30_47  and  C31_48 
REMARK   18  A    between atoms: C31_48  and  C32_49 
ROOT
HETATM    1  C7  UNL     1      20.938  32.594  14.198  1.00  0.00     0.163 C 
ENDROOT
BRANCH   1   2
HETATM    2  C6  UNL     1      19.766  32.758  15.133  1.00  0.00     0.279 C 
HETATM    3  N1  UNL     1      18.773  33.766  14.973  1.00  0.00    -0.342 N 
ATOM      4  H1  UNL     1      18.832  34.434  14.204  1.00  0.00     0.163 HD
HETATM    5  O1  UNL     1      19.684  31.958  16.080  1.00  0.00    -0.265 OA
BRANCH   3   6
HETATM    6  C5  UNL     1      17.677  33.826  15.921  1.00  0.00     0.177 C 
BRANCH   6   7
HETATM    7  C4  UNL     1      16.351  33.632  15.204  1.00  0.00     0.038 C 
BRANCH   7   8
HETATM    8  C2  UNL     1      15.216  33.120  16.013  1.00  0.00    -0.020 C 
HETATM    9  C1  UNL     1      14.245  34.332  16.275  1.00  0.00     0.009 C 
HETATM   10  C3  UNL     1      14.337  32.141  15.275  1.00  0.00     0.009 C 
ENDBRANCH   7   8
ENDBRANCH   6   7
BRANCH   6  11
HETATM   11  C26 UNL     1      17.651  34.926  16.847  1.00  0.00     0.241 C 
HETATM   12  O3  UNL     1      17.911  34.803  18.102  1.00  0.00    -0.271 OA
HETATM   13  N5  UNL     1      17.319  36.221  16.322  1.00  0.00    -0.350 N 
ATOM     14  H5  UNL     1      17.114  36.296  15.326  1.00  0.00     0.163 HD
BRANCH  13  15
HETATM   15  C27 UNL     1      17.259  37.404  17.108  1.00  0.00     0.125 C 
BRANCH  15  16
HETATM   16  C28 UNL     1      18.393  38.333  16.732  1.00  0.00     0.114 C 
HETATM   17  N6  UNL     1      19.518  38.176  17.314  1.00  0.00    -0.278 N 
HETATM   18  C29 UNL     1      20.690  38.997  17.060  1.00  0.00     0.184 C 
BRANCH  17  19
HETATM   19  O4  UNL     1      19.662  37.178  18.248  1.00  0.00    -0.289 OA
ATOM     20  H4  UNL     1      19.792  36.283  17.957  1.00  0.00     0.244 HD
ENDBRANCH  17  19
ENDBRANCH  15  16
BRANCH  15  21
HETATM   21  C30 UNL     1      15.938  38.120  16.991  1.00  0.00     0.039 C 
BRANCH  21  22
HETATM   22  C31 UNL     1      15.213  38.195  18.324  1.00  0.00     0.102 C 
BRANCH  22  23
HETATM   23  C32 UNL     1      14.988  39.620  18.710  1.00  0.00     0.231 C 
HETATM   24  N7  UNL     1      14.209  39.946  19.830  1.00  0.00    -0.062 NA
HETATM   25  O5  UNL     1      15.499  40.524  18.020  1.00  0.00    -0.277 OA
ENDBRANCH  22  23
ENDBRANCH  21  22
ENDBRANCH  15  21
ENDBRANCH  13  15
ENDBRANCH   6  11
ENDBRANCH   3   6
ENDBRANCH   1   2
BRANCH   1  26
HETATM   26  N2  UNL     1      20.797  31.783  13.358  1.00  0.00    -0.370 NA
HETATM   27  C8  UNL     1      20.640  30.808  12.448  1.00  0.00     0.249 C 
HETATM   28  N3  UNL     1      19.366  30.479  12.151  1.00  0.00    -0.360 N 
HETATM   29  N4  UNL     1      21.601  30.107  11.709  1.00  0.00    -0.340 N 
ATOM     30  H32 UNL     1      18.665  30.991  12.689  1.00  0.00     0.160 HD
ATOM     31  H31 UNL     1      19.247  29.739  11.459  1.00  0.00     0.160 HD
ATOM     32  H4  UNL     1      22.296  30.645  11.192  1.00  0.00     0.164 HD
BRANCH  29  33
HETATM   33  C9  UNL     1      21.669  28.572  11.634  1.00  0.00     0.138 C 
BRANCH  33  34
HETATM   34  C10 UNL     1      21.175  28.283  10.307  1.00  0.00     0.003 C 
HETATM   35  C11 UNL     1      20.261  27.227   9.931  1.00  0.00    -0.082 C 
HETATM   36  C12 UNL     1      20.586  25.799  10.174  1.00  0.00     0.034 C 
HETATM   37  C16 UNL     1      18.810  27.556  10.297  1.00  0.00     0.034 C 
HETATM   38  C13 UNL     1      19.347  24.981   9.750  1.00  0.00     0.004 C 
HETATM   39  C14 UNL     1      18.395  25.165  10.929  1.00  0.00     0.001 C 
HETATM   40  C15 UNL     1      18.225  26.593  11.274  1.00  0.00     0.004 C 
ENDBRANCH  33  34
BRANCH  33  41
HETATM   41  C17 UNL     1      22.996  28.345  12.124  1.00  0.00     0.152 C 
BRANCH  41  42
HETATM   42  O2  UNL     1      23.061  28.639  13.407  1.00  0.00    -0.392 OA
ATOM     43  H2  UNL     1      23.446  29.499  13.526  1.00  0.00     0.210 HD
ENDBRANCH  41  42
BRANCH  41  44
HETATM   44  C18 UNL     1      24.337  27.920  11.771  1.00  0.00    -0.016 A 
HETATM   45  C19 UNL     1      25.519  28.332  12.670  1.00  0.00     0.018 C 
HETATM   46  C20 UNL     1      24.694  27.935  10.305  1.00  0.00     0.012 A 
HETATM   47  C21 UNL     1      24.519  26.629  11.010  1.00  0.00     0.012 A 
ENDBRANCH  41  44
ENDBRANCH  33  41
ENDBRANCH  29  33
ENDBRANCH   1  26
BRANCH   1  48
HETATM   48  C22 UNL     1      22.093  33.477  14.526  1.00  0.00     0.010 C 
HETATM   49  C23 UNL     1      21.875  34.933  14.563  1.00  0.00     0.022 C 
HETATM   50  C24 UNL     1      23.211  33.219  13.501  1.00  0.00     0.022 C 
HETATM   51  C25 UNL     1      22.654  32.986  15.893  1.00  0.00     0.022 C 
ENDBRANCH   1  48
TORSDOF 18
ENDMDL
MODEL 5
REMARK VINA RESULT: -9.204049961      1.835      3.210
REMARK  18 active torsions:
REMARK  status: ('A' for Active; 'I' for Inactive)
REMARK    1  A    between atoms: C2_2  and  C4_4 
REMARK    2  A    between atoms: C4_4  and  C5_5 
REMARK    3  A    between atoms: C5_5  and  N1_6 
REMARK    4  A    between atoms: C5_5  and  C26_37 
REMARK       I    between atoms: N1_6  and  C6_8 
REMARK    5  A    between atoms: C6_8  and  C7_10 
REMARK    6  A    between atoms: C7_10  and  N2_11 
REMARK    7  A    between atoms: C7_10  and  C22_33 
REMARK       I    between atoms: N2_11  and  C8_12 
REMARK       I    between atoms: C8_12  and  N4_16 
REMARK    8  A    between atoms: N4_16  and  C9_18 
REMARK    9  A    between atoms: C9_18  and  C10_19 
REMARK   10  A    between atoms: C9_18  and  C17_26 
REMARK   11  A    between atoms: C17_26  and  O2_27 
REMARK   12  A    between atoms: C17_26  and  C18_29 
REMARK       I    between atoms: C26_37  and  N5_39 
REMARK   13  A    between atoms: N5_39  and  C27_41 
REMARK   14  A    between atoms: C27_41  and  C28_42 
REMARK   15  A    between atoms: C27_41  and  C30_47 
REMARK   16  A    between atoms: N6_43  and  O4_45 
REMARK   17  A    between atoms: C30_47  and  C31_48 
REMARK   18  A    between atoms: C31_48  and  C32_49 
ROOT
HETATM    1  C7  UNL     1      20.768  31.825  15.045  1.00  0.00     0.163 C 
ENDROOT
BRANCH   1   2
HETATM    2  C6  UNL     1      19.774  32.881  15.460  1.00  0.00     0.279 C 
HETATM    3  N1  UNL     1      18.511  32.580  16.043  1.00  0.00    -0.342 N 
ATOM      4  H1  UNL     1      18.227  31.612  16.193  1.00  0.00     0.163 HD
HETATM    5  O1  UNL     1      20.100  34.065  15.275  1.00  0.00    -0.265 OA
BRANCH   3   6
HETATM    6  C5  UNL     1      17.635  33.673  16.420  1.00  0.00     0.177 C 
BRANCH   6   7
HETATM    7  C4  UNL     1      16.807  34.119  15.227  1.00  0.00     0.038 C 
BRANCH   7   8
HETATM    8  C2  UNL     1      15.336  33.939  15.323  1.00  0.00    -0.020 C 
HETATM    9  C1  UNL     1      15.040  32.404  15.130  1.00  0.00     0.009 C 
HETATM   10  C3  UNL     1      14.778  34.215  16.698  1.00  0.00     0.009 C 
ENDBRANCH   7   8
ENDBRANCH   6   7
BRANCH   6  11
HETATM   11  C26 UNL     1      18.213  34.778  17.138  1.00  0.00     0.241 C 
HETATM   12  O3  UNL     1      18.710  34.674  18.321  1.00  0.00    -0.271 OA
HETATM   13  N5  UNL     1      18.229  36.054  16.479  1.00  0.00    -0.350 N 
ATOM     14  H5  UNL     1      17.829  36.116  15.544  1.00  0.00     0.163 HD
BRANCH  13  15
HETATM   15  C27 UNL     1      18.771  37.237  17.054  1.00  0.00     0.125 C 
BRANCH  15  16
HETATM   16  C28 UNL     1      19.968  37.701  16.253  1.00  0.00     0.114 C 
HETATM   17  N6  UNL     1      21.091  37.133  16.464  1.00  0.00    -0.278 N 
HETATM   18  C29 UNL     1      22.323  37.479  15.776  1.00  0.00     0.184 C 
BRANCH  17  19
HETATM   19  O4  UNL     1      21.174  36.128  17.399  1.00  0.00    -0.289 OA
ATOM     20  H4  UNL     1      20.392  35.863  17.868  1.00  0.00     0.244 HD
ENDBRANCH  17  19
ENDBRANCH  15  16
BRANCH  15  21
HETATM   21  C30 UNL     1      17.760  38.348  17.172  1.00  0.00     0.039 C 
BRANCH  21  22
HETATM   22  C31 UNL     1      16.381  37.913  16.705  1.00  0.00     0.102 C 
BRANCH  22  23
HETATM   23  C32 UNL     1      15.355  38.257  17.734  1.00  0.00     0.231 C 
HETATM   24  N7  UNL     1      15.076  39.594  18.051  1.00  0.00    -0.062 NA
HETATM   25  O5  UNL     1      14.747  37.337  18.316  1.00  0.00    -0.277 OA
ENDBRANCH  22  23
ENDBRANCH  21  22
ENDBRANCH  15  21
ENDBRANCH  13  15
ENDBRANCH   6  11
ENDBRANCH   3   6
ENDBRANCH   1   2
BRANCH   1  26
HETATM   26  N2  UNL     1      20.323  30.742  14.921  1.00  0.00    -0.370 NA
HETATM   27  C8  UNL     1      19.867  29.493  14.736  1.00  0.00     0.249 C 
HETATM   28  N3  UNL     1      20.296  28.572  15.624  1.00  0.00    -0.360 N 
HETATM   29  N4  UNL     1      18.963  28.999  13.788  1.00  0.00    -0.340 N 
ATOM     30  H32 UNL     1      20.955  28.932  16.315  1.00  0.00     0.160 HD
ATOM     31  H31 UNL     1      19.949  27.623  15.483  1.00  0.00     0.160 HD
ATOM     32  H4  UNL     1      18.065  29.472  13.689  1.00  0.00     0.164 HD
BRANCH  29  33
HETATM   33  C9  UNL     1      19.247  27.785  12.888  1.00  0.00     0.138 C 
BRANCH  33  34
HETATM   34  C10 UNL     1      17.955  27.491  12.310  1.00  0.00     0.003 C 
HETATM   35  C11 UNL     1      17.669  27.209  10.920  1.00  0.00    -0.082 C 
HETATM   36  C12 UNL     1      17.977  28.193   9.852  1.00  0.00     0.034 C 
HETATM   37  C16 UNL     1      18.067  25.785  10.521  1.00  0.00     0.034 C 
HETATM   38  C13 UNL     1      17.641  27.511   8.507  1.00  0.00     0.004 C 
HETATM   39  C14 UNL     1      18.842  26.596   8.278  1.00  0.00     0.001 C 
HETATM   40  C15 UNL     1      19.115  25.750   9.460  1.00  0.00     0.004 C 
ENDBRANCH  33  34
BRANCH  33  41
HETATM   41  C17 UNL     1      20.413  28.243  12.192  1.00  0.00     0.152 C 
BRANCH  41  42
HETATM   42  O2  UNL     1      21.485  27.630  12.652  1.00  0.00    -0.392 OA
ATOM     43  H2  UNL     1      21.532  27.719  13.596  1.00  0.00     0.210 HD
ENDBRANCH  41  42
BRANCH  41  44
HETATM   44  C18 UNL     1      20.910  29.140  11.165  1.00  0.00    -0.016 A 
HETATM   45  C19 UNL     1      21.561  28.549   9.899  1.00  0.00     0.018 C 
HETATM   46  C20 UNL     1      21.596  30.400  11.633  1.00  0.00     0.012 A 
HETATM   47  C21 UNL     1      20.250  30.487  10.988  1.00  0.00     0.012 A 
ENDBRANCH  41  44
ENDBRANCH  33  41
ENDBRANCH  29  33
ENDBRANCH   1  26
BRANCH   1  48
HETATM   48  C22 UNL     1      22.158  32.338  14.893  1.00  0.00     0.010 C 
HETATM   49  C23 UNL     1      22.418  33.375  13.881  1.00  0.00     0.022 C 
HETATM   50  C24 UNL     1      23.082  31.152  14.564  1.00  0.00     0.022 C 
HETATM   51  C25 UNL     1      22.603  32.840  16.298  1.00  0.00     0.022 C 
ENDBRANCH   1  48
TORSDOF 18
ENDMDL
