MODEL 1
REMARK VINA RESULT: -6.213893599      0.000      0.000
REMARK  1 active torsions:
REMARK  status: ('A' for Active; 'I' for Inactive)
REMARK    1  A    between atoms: C2_2  and  N1_3 
ROOT
HETATM    1  N1  UNL     1      50.302  22.268  31.433  1.00  0.00    -0.262 NA
HETATM    2  C3  UNL     1      49.934  23.373  30.705  1.00  0.00     0.098 C 
HETATM    3  C4  UNL     1      49.877  23.454  29.195  1.00  0.00     0.026 C 
HETATM    4  C5  UNL     1      51.250  23.077  28.541  1.00  0.00     0.081 C 
HETATM    5  C6  UNL     1      52.023  22.485  29.556  1.00  0.00    -0.179 C 
HETATM    6  C7  UNL     1      52.661  21.901  30.660  1.00  0.00     0.133 C 
HETATM    7  C8  UNL     1      51.691  22.059  31.880  1.00  0.00     0.259 C 
HETATM    8  F1  UNL     1      52.036  23.221  32.546  1.00  0.00    -0.232 F 
ENDROOT
BRANCH   1   9
HETATM    9  C2  UNL     1      49.663  22.420  32.742  1.00  0.00     0.052 C 
HETATM   10  C1  UNL     1      48.793  21.598  33.241  1.00  0.00     0.024 C 
ENDBRANCH   1   9
TORSDOF 1
ENDMDL
MODEL 2
REMARK VINA RESULT: -6.204323177      1.999      3.832
REMARK  1 active torsions:
REMARK  status: ('A' for Active; 'I' for Inactive)
REMARK    1  A    between atoms: C2_2  and  N1_3 
ROOT
HETATM    1  N1  UNL     1      51.970  22.961  29.066  1.00  0.00    -0.262 NA
HETATM    2  C3  UNL     1      50.600  22.917  28.981  1.00  0.00     0.098 C 
HETATM    3  C4  UNL     1      49.636  23.555  29.957  1.00  0.00     0.026 C 
HETATM    4  C5  UNL     1      49.886  23.065  31.425  1.00  0.00     0.081 C 
HETATM    5  C6  UNL     1      51.131  22.412  31.417  1.00  0.00    -0.179 C 
HETATM    6  C7  UNL     1      52.389  21.812  31.258  1.00  0.00     0.133 C 
HETATM    7  C8  UNL     1      52.741  21.896  29.734  1.00  0.00     0.259 C 
HETATM    8  F1  UNL     1      52.325  20.719  29.139  1.00  0.00    -0.232 F 
ENDROOT
BRANCH   1   9
HETATM    9  C2  UNL     1      52.462  22.773  27.699  1.00  0.00     0.052 C 
HETATM   10  C1  UNL     1      53.537  23.318  27.219  1.00  0.00     0.024 C 
ENDBRANCH   1   9
TORSDOF 1
ENDMDL
MODEL 3
REMARK VINA RESULT: -6.193515537      0.957      1.189
REMARK  1 active torsions:
REMARK  status: ('A' for Active; 'I' for Inactive)
REMARK    1  A    between atoms: C2_2  and  N1_3 
ROOT
HETATM    1  N1  UNL     1      50.249  22.626  31.338  1.00  0.00    -0.262 NA
HETATM    2  C3  UNL     1      50.334  23.488  30.273  1.00  0.00     0.098 C 
HETATM    3  C4  UNL     1      50.499  23.085  28.825  1.00  0.00     0.026 C 
HETATM    4  C5  UNL     1      51.763  22.184  28.613  1.00  0.00     0.081 C 
HETATM    5  C6  UNL     1      52.181  21.781  29.894  1.00  0.00    -0.179 C 
HETATM    6  C7  UNL     1      52.462  21.448  31.227  1.00  0.00     0.133 C 
HETATM    7  C8  UNL     1      51.439  22.232  32.116  1.00  0.00     0.259 C 
HETATM    8  F1  UNL     1      52.034  23.422  32.495  1.00  0.00    -0.232 F 
ENDROOT
BRANCH   1   9
HETATM    9  C2  UNL     1      49.524  23.351  32.385  1.00  0.00     0.052 C 
HETATM   10  C1  UNL     1      48.949  24.502  32.224  1.00  0.00     0.024 C 
ENDBRANCH   1   9
TORSDOF 1
ENDMDL
MODEL 4
REMARK VINA RESULT: -6.088272221      1.714      2.742
REMARK  1 active torsions:
REMARK  status: ('A' for Active; 'I' for Inactive)
REMARK    1  A    between atoms: C2_2  and  N1_3 
ROOT
HETATM    1  N1  UNL     1      50.670  23.344  31.126  1.00  0.00    -0.262 NA
HETATM    2  C3  UNL     1      51.132  22.097  31.467  1.00  0.00     0.098 C 
HETATM    3  C4  UNL     1      52.534  21.582  31.231  1.00  0.00     0.026 C 
HETATM    4  C5  UNL     1      52.942  21.676  29.721  1.00  0.00     0.081 C 
HETATM    5  C6  UNL     1      51.980  22.495  29.102  1.00  0.00    -0.179 C 
HETATM    6  C7  UNL     1      50.963  23.339  28.633  1.00  0.00     0.133 C 
HETATM    7  C8  UNL     1      49.997  23.598  29.838  1.00  0.00     0.259 C 
HETATM    8  F1  UNL     1      48.979  22.664  29.771  1.00  0.00    -0.232 F 
ENDROOT
BRANCH   1   9
HETATM    9  C2  UNL     1      49.547  23.616  32.026  1.00  0.00     0.052 C 
HETATM   10  C1  UNL     1      48.964  24.767  32.155  1.00  0.00     0.024 C 
ENDBRANCH   1   9
TORSDOF 1
ENDMDL
MODEL 5
REMARK VINA RESULT: -5.242705623      1.841      3.938
REMARK  1 active torsions:
REMARK  status: ('A' for Active; 'I' for Inactive)
REMARK    1  A    between atoms: C2_2  and  N1_3 
ROOT
HETATM    1  N1  UNL     1      51.259  22.127  29.756  1.00  0.00    -0.262 NA
HETATM    2  C3  UNL     1      51.952  22.639  30.825  1.00  0.00     0.098 C 
HETATM    3  C4  UNL     1      51.440  22.725  32.246  1.00  0.00     0.026 C 
HETATM    4  C5  UNL     1      50.087  23.512  32.330  1.00  0.00     0.081 C 
HETATM    5  C6  UNL     1      49.616  23.630  31.010  1.00  0.00    -0.179 C 
HETATM    6  C7  UNL     1      49.269  23.651  29.651  1.00  0.00     0.133 C 
HETATM    7  C8  UNL     1      50.452  22.985  28.870  1.00  0.00     0.259 C 
HETATM    8  F1  UNL     1      51.308  23.992  28.462  1.00  0.00    -0.232 F 
ENDROOT
BRANCH   1   9
HETATM    9  C2  UNL     1      52.274  21.696  28.791  1.00  0.00     0.052 C 
HETATM   10  C1  UNL     1      53.546  21.920  28.905  1.00  0.00     0.024 C 
ENDBRANCH   1   9
TORSDOF 1
ENDMDL
