MODEL 1
REMARK VINA RESULT: -5.091678413      0.000      0.000
REMARK  1 active torsions:
REMARK  status: ('A' for Active; 'I' for Inactive)
REMARK    1  A    between atoms: C2_2  and  C3_3 
ROOT
HETATM    1  C1  UNL     1      49.466  23.378  29.806  1.00  0.00     0.026 C 
HETATM    2  C2  UNL     1      50.279  22.996  31.018  1.00  0.00     0.047 C 
HETATM    3  C4  UNL     1      51.744  23.158  30.936  1.00  0.00     0.038 C 
HETATM    4  C5  UNL     1      51.707  22.050  29.912  1.00  0.00     0.017 C 
HETATM    5  C6  UNL     1      50.787  21.576  31.011  1.00  0.00     0.038 C 
HETATM    6  C7  UNL     1      51.845  22.034  31.936  1.00  0.00     0.180 C 
HETATM    7  F1  UNL     1      53.008  21.296  31.862  1.00  0.00    -0.249 F 
ENDROOT
BRANCH   2   8
HETATM    8  C3  UNL     1      49.594  23.373  32.273  1.00  0.00     0.240 C 
HETATM    9  N1  UNL     1      49.012  22.318  33.026  1.00  0.00    -0.061 NA
HETATM   10  O1  UNL     1      49.529  24.571  32.652  1.00  0.00    -0.276 OA
ENDBRANCH   2   8
TORSDOF 1
ENDMDL
MODEL 2
REMARK VINA RESULT: -5.043727204      1.599      1.881
REMARK  1 active torsions:
REMARK  status: ('A' for Active; 'I' for Inactive)
REMARK    1  A    between atoms: C2_2  and  C3_3 
ROOT
HETATM    1  C1  UNL     1      49.451  23.391  29.387  1.00  0.00     0.026 C 
HETATM    2  C2  UNL     1      50.789  22.951  29.929  1.00  0.00     0.047 C 
HETATM    3  C4  UNL     1      51.996  23.385  29.200  1.00  0.00     0.038 C 
HETATM    4  C5  UNL     1      51.520  22.488  28.083  1.00  0.00     0.017 C 
HETATM    5  C6  UNL     1      51.315  21.669  29.334  1.00  0.00     0.038 C 
HETATM    6  C7  UNL     1      52.663  22.137  29.722  1.00  0.00     0.180 C 
HETATM    7  F1  UNL     1      53.675  21.644  28.924  1.00  0.00    -0.249 F 
ENDROOT
BRANCH   2   8
HETATM    8  C3  UNL     1      50.809  22.969  31.407  1.00  0.00     0.240 C 
HETATM    9  N1  UNL     1      50.047  21.970  32.070  1.00  0.00    -0.061 NA
HETATM   10  O1  UNL     1      51.468  23.831  32.045  1.00  0.00    -0.276 OA
ENDBRANCH   2   8
TORSDOF 1
ENDMDL
MODEL 3
REMARK VINA RESULT: -5.032934163      2.242      2.615
REMARK  1 active torsions:
REMARK  status: ('A' for Active; 'I' for Inactive)
REMARK    1  A    between atoms: C2_2  and  C3_3 
ROOT
HETATM    1  C1  UNL     1      49.739  23.063  29.229  1.00  0.00     0.026 C 
HETATM    2  C2  UNL     1      51.160  22.765  29.641  1.00  0.00     0.047 C 
HETATM    3  C4  UNL     1      52.242  23.438  28.896  1.00  0.00     0.038 C 
HETATM    4  C5  UNL     1      51.812  22.599  27.717  1.00  0.00     0.017 C 
HETATM    5  C6  UNL     1      51.811  21.638  28.881  1.00  0.00     0.038 C 
HETATM    6  C7  UNL     1      53.108  22.252  29.239  1.00  0.00     0.180 C 
HETATM    7  F1  UNL     1      54.117  21.992  28.335  1.00  0.00    -0.249 F 
ENDROOT
BRANCH   2   8
HETATM    8  C3  UNL     1      51.284  22.638  31.109  1.00  0.00     0.240 C 
HETATM    9  N1  UNL     1      51.062  23.813  31.874  1.00  0.00    -0.061 NA
HETATM   10  O1  UNL     1      51.575  21.540  31.652  1.00  0.00    -0.276 OA
ENDBRANCH   2   8
TORSDOF 1
ENDMDL
MODEL 4
REMARK VINA RESULT: -4.864233839      2.855      3.416
REMARK  1 active torsions:
REMARK  status: ('A' for Active; 'I' for Inactive)
REMARK    1  A    between atoms: C2_2  and  C3_3 
ROOT
HETATM    1  C1  UNL     1      51.916  21.231  30.975  1.00  0.00     0.026 C 
HETATM    2  C2  UNL     1      51.104  22.496  30.839  1.00  0.00     0.047 C 
HETATM    3  C4  UNL     1      51.115  23.438  31.975  1.00  0.00     0.038 C 
HETATM    4  C5  UNL     1      50.367  22.370  32.736  1.00  0.00     0.017 C 
HETATM    5  C6  UNL     1      49.701  22.402  31.382  1.00  0.00     0.038 C 
HETATM    6  C7  UNL     1      49.743  23.873  31.524  1.00  0.00     0.180 C 
HETATM    7  F1  UNL     1      48.931  24.360  32.528  1.00  0.00    -0.249 F 
ENDROOT
BRANCH   2   8
HETATM    8  C3  UNL     1      51.173  23.040  29.467  1.00  0.00     0.240 C 
HETATM    9  N1  UNL     1      52.438  22.996  28.823  1.00  0.00    -0.061 NA
HETATM   10  O1  UNL     1      50.158  23.522  28.898  1.00  0.00    -0.276 OA
ENDBRANCH   2   8
TORSDOF 1
ENDMDL
MODEL 5
REMARK VINA RESULT: -4.766430868      2.712      3.179
REMARK  1 active torsions:
REMARK  status: ('A' for Active; 'I' for Inactive)
REMARK    1  A    between atoms: C2_2  and  C3_3 
ROOT
HETATM    1  C1  UNL     1      50.960  23.481  29.176  1.00  0.00     0.026 C 
HETATM    2  C2  UNL     1      51.016  22.701  30.466  1.00  0.00     0.047 C 
HETATM    3  C4  UNL     1      49.736  22.269  31.059  1.00  0.00     0.038 C 
HETATM    4  C5  UNL     1      49.471  23.735  31.301  1.00  0.00     0.017 C 
HETATM    5  C6  UNL     1      50.910  23.541  31.713  1.00  0.00     0.038 C 
HETATM    6  C7  UNL     1      50.429  22.322  32.397  1.00  0.00     0.180 C 
HETATM    7  F1  UNL     1      49.598  22.575  33.469  1.00  0.00    -0.249 F 
ENDROOT
BRANCH   2   8
HETATM    8  C3  UNL     1      52.157  21.760  30.481  1.00  0.00     0.240 C 
HETATM    9  N1  UNL     1      52.343  20.961  29.322  1.00  0.00    -0.061 NA
HETATM   10  O1  UNL     1      52.923  21.672  31.476  1.00  0.00    -0.276 OA
ENDBRANCH   2   8
TORSDOF 1
ENDMDL
