MODEL 1
REMARK VINA RESULT: -7.452952586      0.000      0.000
REMARK  6 active torsions:
REMARK  status: ('A' for Active; 'I' for Inactive)
REMARK       I    between atoms: C1_2  and  N1_3 
REMARK       I    between atoms: C1_2  and  N3_12 
REMARK    1  A    between atoms: N1_3  and  C2_5 
REMARK    2  A    between atoms: N3_12  and  C5_14 
REMARK    3  A    between atoms: N4_17  and  C7_18 
REMARK    4  A    between atoms: C9_20  and  C10_21 
REMARK    5  A    between atoms: C13_26  and  O4_27 
REMARK    6  A    between atoms: O4_27  and  C14_28 
ROOT
HETATM    1  C5  UNL     1      -3.333  39.902  12.813  1.00  0.00     0.195 C 
HETATM    2  C6  UNL     1      -2.512  40.029  11.585  1.00  0.00     0.248 C 
HETATM    3  O3  UNL     1      -1.336  39.650  11.456  1.00  0.00    -0.271 OA
HETATM    4  N4  UNL     1      -3.355  40.660  10.636  1.00  0.00    -0.312 N 
HETATM    5  C18 UNL     1      -4.751  40.520  11.051  1.00  0.00     0.150 C 
HETATM    6  C19 UNL     1      -4.665  39.595  12.212  1.00  0.00     0.076 A 
HETATM    7  C20 UNL     1      -5.135  38.212  12.194  1.00  0.00     0.100 A 
HETATM    8  C21 UNL     1      -5.859  39.262  13.000  1.00  0.00     0.256 A 
HETATM    9  F3  UNL     1      -7.075  39.643  12.436  1.00  0.00    -0.205 F 
HETATM   10  F4  UNL     1      -5.862  39.219  14.362  1.00  0.00    -0.205 F 
ENDROOT
BRANCH   4  11
HETATM   11  C7  UNL     1      -2.936  41.341   9.450  1.00  0.00     0.082 A 
HETATM   12  C8  UNL     1      -2.223  42.511   9.496  1.00  0.00     0.058 A 
HETATM   13  C9  UNL     1      -1.801  43.195   8.376  1.00  0.00     0.018 A 
HETATM   14  N5  UNL     1      -2.103  42.691   7.178  1.00  0.00    -0.338 N 
HETATM   15  C13 UNL     1      -2.799  41.551   7.098  1.00  0.00     0.185 A 
ATOM     16  H5  UNL     1      -1.807  43.173   6.329  1.00  0.00     0.168 HD
HETATM   17  C17 UNL     1      -3.240  40.836   8.191  1.00  0.00     0.194 A 
HETATM   18  F2  UNL     1      -3.935  39.692   8.058  1.00  0.00    -0.199 F 
BRANCH  13  19
HETATM   19  C10 UNL     1      -1.015  44.483   8.502  1.00  0.00     0.036 A 
HETATM   20  C11 UNL     1      -1.891  45.761   8.454  1.00  0.00     0.011 A 
HETATM   21  C12 UNL     1      -1.201  45.327   9.682  1.00  0.00     0.011 A 
ENDBRANCH  13  19
BRANCH  15  22
HETATM   22  O4  UNL     1      -3.096  41.056   5.836  1.00  0.00    -0.328 OA
BRANCH  22  23
HETATM   23  C14 UNL     1      -4.295  41.267   5.142  1.00  0.00     0.131 A 
HETATM   24  C15 UNL     1      -4.090  41.506   3.659  1.00  0.00     0.035 A 
HETATM   25  C16 UNL     1      -4.668  42.560   4.570  1.00  0.00     0.035 A 
ENDBRANCH  22  23
ENDBRANCH  15  22
ENDBRANCH   4  11
BRANCH   1  26
HETATM   26  N3  UNL     1      -2.842  38.968  13.768  1.00  0.00    -0.328 N 
HETATM   27  C1  UNL     1      -1.856  39.264  14.743  1.00  0.00     0.324 C 
HETATM   28  O1  UNL     1      -1.373  40.414  14.781  1.00  0.00    -0.247 OA
HETATM   29  N1  UNL     1      -1.402  38.299  15.670  1.00  0.00    -0.274 N 
ATOM     30  H1  UNL     1      -1.248  38.602  16.631  1.00  0.00     0.174 HD
ATOM     31  H3  UNL     1      -3.224  38.023  13.750  1.00  0.00     0.165 HD
BRANCH  29  32
HETATM   32  C2  UNL     1      -1.169  37.064  15.387  1.00  0.00     0.234 A 
HETATM   33  N2  UNL     1      -0.138  36.393  15.958  1.00  0.00    -0.327 N 
HETATM   34  C3  UNL     1      -0.161  35.149  15.466  1.00  0.00     0.161 A 
ATOM     35  H2  UNL     1       0.529  36.767  16.633  1.00  0.00     0.169 HD
HETATM   36  C4  UNL     1      -1.216  35.066  14.588  1.00  0.00     0.248 A 
HETATM   37  F1  UNL     1      -1.562  33.958  13.890  1.00  0.00    -0.176 F 
HETATM   38  O2  UNL     1      -1.786  36.246  14.580  1.00  0.00    -0.250 OA
ENDBRANCH  29  32
ENDBRANCH   1  26
TORSDOF 6
ENDMDL
MODEL 2
REMARK VINA RESULT: -7.387612314      2.566      9.120
REMARK  6 active torsions:
REMARK  status: ('A' for Active; 'I' for Inactive)
REMARK       I    between atoms: C1_2  and  N1_3 
REMARK       I    between atoms: C1_2  and  N3_12 
REMARK    1  A    between atoms: N1_3  and  C2_5 
REMARK    2  A    between atoms: N3_12  and  C5_14 
REMARK    3  A    between atoms: N4_17  and  C7_18 
REMARK    4  A    between atoms: C9_20  and  C10_21 
REMARK    5  A    between atoms: C13_26  and  O4_27 
REMARK    6  A    between atoms: O4_27  and  C14_28 
ROOT
HETATM    1  C5  UNL     1      -3.407  42.136   8.178  1.00  0.00     0.195 C 
HETATM    2  C6  UNL     1      -3.654  40.853   8.879  1.00  0.00     0.248 C 
HETATM    3  O3  UNL     1      -4.184  39.846   8.383  1.00  0.00    -0.271 OA
HETATM    4  N4  UNL     1      -3.163  41.046  10.194  1.00  0.00    -0.312 N 
HETATM    5  C18 UNL     1      -2.241  42.182  10.211  1.00  0.00     0.150 C 
HETATM    6  C19 UNL     1      -2.088  42.512   8.769  1.00  0.00     0.076 A 
HETATM    7  C20 UNL     1      -0.870  42.276   7.999  1.00  0.00     0.100 A 
HETATM    8  C21 UNL     1      -1.305  43.679   8.342  1.00  0.00     0.256 A 
HETATM    9  F3  UNL     1      -0.520  44.269   9.331  1.00  0.00    -0.205 F 
HETATM   10  F4  UNL     1      -1.722  44.539   7.370  1.00  0.00    -0.205 F 
ENDROOT
BRANCH   4  11
HETATM   11  C7  UNL     1      -3.500  40.271  11.348  1.00  0.00     0.082 A 
HETATM   12  C8  UNL     1      -4.794  40.130  11.776  1.00  0.00     0.058 A 
HETATM   13  C9  UNL     1      -5.159  39.392  12.882  1.00  0.00     0.018 A 
HETATM   14  N5  UNL     1      -4.198  38.778  13.576  1.00  0.00    -0.338 N 
HETATM   15  C13 UNL     1      -2.924  38.896  13.184  1.00  0.00     0.185 A 
ATOM     16  H5  UNL     1      -4.433  38.224  14.399  1.00  0.00     0.168 HD
HETATM   17  C17 UNL     1      -2.516  39.624  12.087  1.00  0.00     0.194 A 
HETATM   18  F2  UNL     1      -1.221  39.711  11.733  1.00  0.00    -0.199 F 
BRANCH  13  19
HETATM   19  C10 UNL     1      -6.610  39.279  13.297  1.00  0.00     0.036 A 
HETATM   20  C11 UNL     1      -7.082  40.407  14.250  1.00  0.00     0.011 A 
HETATM   21  C12 UNL     1      -7.565  40.298  12.862  1.00  0.00     0.011 A 
ENDBRANCH  13  19
BRANCH  15  22
HETATM   22  O4  UNL     1      -1.950  38.246  13.930  1.00  0.00    -0.328 OA
BRANCH  22  23
HETATM   23  C14 UNL     1      -2.194  37.348  14.978  1.00  0.00     0.131 A 
HETATM   24  C15 UNL     1      -0.923  36.795  15.593  1.00  0.00     0.035 A 
HETATM   25  C16 UNL     1      -1.918  35.915  14.879  1.00  0.00     0.035 A 
ENDBRANCH  22  23
ENDBRANCH  15  22
ENDBRANCH   4  11
BRANCH   1  26
HETATM   26  N3  UNL     1      -3.462  42.062   6.757  1.00  0.00    -0.328 N 
HETATM   27  C1  UNL     1      -3.924  43.108   5.919  1.00  0.00     0.324 C 
HETATM   28  O1  UNL     1      -4.314  44.172   6.443  1.00  0.00    -0.247 OA
HETATM   29  N1  UNL     1      -3.959  42.984   4.512  1.00  0.00    -0.274 N 
ATOM     30  H1  UNL     1      -3.677  43.792   3.958  1.00  0.00     0.174 HD
ATOM     31  H3  UNL     1      -3.150  41.199   6.312  1.00  0.00     0.165 HD
BRANCH  29  32
HETATM   32  C2  UNL     1      -4.323  41.923   3.878  1.00  0.00     0.234 A 
HETATM   33  N2  UNL     1      -3.942  41.703   2.596  1.00  0.00    -0.327 N 
HETATM   34  C3  UNL     1      -4.474  40.532   2.226  1.00  0.00     0.161 A 
ATOM     35  H2  UNL     1      -3.360  42.313   2.022  1.00  0.00     0.169 HD
HETATM   36  C4  UNL     1      -5.185  40.039   3.295  1.00  0.00     0.248 A 
HETATM   37  F1  UNL     1      -5.867  38.869   3.302  1.00  0.00    -0.176 F 
HETATM   38  O2  UNL     1      -5.060  40.916   4.260  1.00  0.00    -0.250 OA
ENDBRANCH  29  32
ENDBRANCH   1  26
TORSDOF 6
ENDMDL
MODEL 3
REMARK VINA RESULT: -7.212246711      4.615      8.664
REMARK  6 active torsions:
REMARK  status: ('A' for Active; 'I' for Inactive)
REMARK       I    between atoms: C1_2  and  N1_3 
REMARK       I    between atoms: C1_2  and  N3_12 
REMARK    1  A    between atoms: N1_3  and  C2_5 
REMARK    2  A    between atoms: N3_12  and  C5_14 
REMARK    3  A    between atoms: N4_17  and  C7_18 
REMARK    4  A    between atoms: C9_20  and  C10_21 
REMARK    5  A    between atoms: C13_26  and  O4_27 
REMARK    6  A    between atoms: O4_27  and  C14_28 
ROOT
HETATM    1  C5  UNL     1       0.680  43.908   9.774  1.00  0.00     0.195 C 
HETATM    2  C6  UNL     1      -0.486  43.469   8.971  1.00  0.00     0.248 C 
HETATM    3  O3  UNL     1      -1.090  44.158   8.132  1.00  0.00    -0.271 OA
HETATM    4  N4  UNL     1      -0.735  42.134   9.374  1.00  0.00    -0.312 N 
HETATM    5  C18 UNL     1       0.455  41.588  10.026  1.00  0.00     0.150 C 
HETATM    6  C19 UNL     1       1.477  42.645   9.798  1.00  0.00     0.076 A 
HETATM    7  C20 UNL     1       2.615  42.503   8.893  1.00  0.00     0.100 A 
HETATM    8  C21 UNL     1       2.817  42.536  10.388  1.00  0.00     0.256 A 
HETATM    9  F3  UNL     1       3.138  41.290  10.924  1.00  0.00    -0.205 F 
HETATM   10  F4  UNL     1       3.455  43.583  10.984  1.00  0.00    -0.205 F 
ENDROOT
BRANCH   4  11
HETATM   11  C7  UNL     1      -1.953  41.405   9.190  1.00  0.00     0.082 A 
HETATM   12  C8  UNL     1      -2.773  41.085  10.241  1.00  0.00     0.058 A 
HETATM   13  C9  UNL     1      -3.953  40.386  10.106  1.00  0.00     0.018 A 
HETATM   14  N5  UNL     1      -4.320  39.998   8.882  1.00  0.00    -0.338 N 
HETATM   15  C13 UNL     1      -3.541  40.294   7.835  1.00  0.00     0.185 A 
ATOM     16  H5  UNL     1      -5.187  39.478   8.746  1.00  0.00     0.168 HD
HETATM   17  C17 UNL     1      -2.355  40.990   7.926  1.00  0.00     0.194 A 
HETATM   18  F2  UNL     1      -1.607  41.265   6.842  1.00  0.00    -0.199 F 
BRANCH  13  19
HETATM   19  C10 UNL     1      -4.811  40.067  11.311  1.00  0.00     0.036 A 
HETATM   20  C11 UNL     1      -4.561  38.657  11.906  1.00  0.00     0.011 A 
HETATM   21  C12 UNL     1      -4.179  39.890  12.618  1.00  0.00     0.011 A 
ENDBRANCH  13  19
BRANCH  15  22
HETATM   22  O4  UNL     1      -3.952  39.875   6.577  1.00  0.00    -0.328 OA
BRANCH  22  23
HETATM   23  C14 UNL     1      -4.434  40.709   5.560  1.00  0.00     0.131 A 
HETATM   24  C15 UNL     1      -5.032  39.943   4.396  1.00  0.00     0.035 A 
HETATM   25  C16 UNL     1      -3.804  40.806   4.243  1.00  0.00     0.035 A 
ENDBRANCH  22  23
ENDBRANCH  15  22
ENDBRANCH   4  11
BRANCH   1  26
HETATM   26  N3  UNL     1       1.348  45.064   9.279  1.00  0.00    -0.328 N 
HETATM   27  C1  UNL     1       0.950  46.397   9.554  1.00  0.00     0.324 C 
HETATM   28  O1  UNL     1      -0.051  46.590  10.274  1.00  0.00    -0.247 OA
HETATM   29  N1  UNL     1       1.648  47.511   9.037  1.00  0.00    -0.274 N 
ATOM     30  H1  UNL     1       1.788  48.310   9.655  1.00  0.00     0.174 HD
ATOM     31  H3  UNL     1       2.166  44.924   8.686  1.00  0.00     0.165 HD
BRANCH  29  32
HETATM   32  C2  UNL     1       2.120  47.590   7.841  1.00  0.00     0.234 A 
HETATM   33  N2  UNL     1       2.416  48.788   7.279  1.00  0.00    -0.327 N 
HETATM   34  C3  UNL     1       2.879  48.538   6.049  1.00  0.00     0.161 A 
ATOM     35  H2  UNL     1       2.306  49.706   7.712  1.00  0.00     0.169 HD
HETATM   36  C4  UNL     1       2.862  47.176   5.864  1.00  0.00     0.248 A 
HETATM   37  F1  UNL     1       3.261  46.538   4.737  1.00  0.00    -0.176 F 
HETATM   38  O2  UNL     1       2.396  46.657   6.974  1.00  0.00    -0.250 OA
ENDBRANCH  29  32
ENDBRANCH   1  26
TORSDOF 6
ENDMDL
MODEL 4
REMARK VINA RESULT: -7.143291139      2.863      8.839
REMARK  6 active torsions:
REMARK  status: ('A' for Active; 'I' for Inactive)
REMARK       I    between atoms: C1_2  and  N1_3 
REMARK       I    between atoms: C1_2  and  N3_12 
REMARK    1  A    between atoms: N1_3  and  C2_5 
REMARK    2  A    between atoms: N3_12  and  C5_14 
REMARK    3  A    between atoms: N4_17  and  C7_18 
REMARK    4  A    between atoms: C9_20  and  C10_21 
REMARK    5  A    between atoms: C13_26  and  O4_27 
REMARK    6  A    between atoms: O4_27  and  C14_28 
ROOT
HETATM    1  C5  UNL     1      -3.388  42.104   8.259  1.00  0.00     0.195 C 
HETATM    2  C6  UNL     1      -3.671  40.831   8.962  1.00  0.00     0.248 C 
HETATM    3  O3  UNL     1      -4.218  39.833   8.464  1.00  0.00    -0.271 OA
HETATM    4  N4  UNL     1      -3.189  41.018  10.281  1.00  0.00    -0.312 N 
HETATM    5  C18 UNL     1      -2.242  42.133  10.304  1.00  0.00     0.150 C 
HETATM    6  C19 UNL     1      -2.068  42.454   8.862  1.00  0.00     0.076 A 
HETATM    7  C20 UNL     1      -0.847  42.188   8.106  1.00  0.00     0.100 A 
HETATM    8  C21 UNL     1      -1.255  43.602   8.439  1.00  0.00     0.256 A 
HETATM    9  F3  UNL     1      -0.467  44.179   9.433  1.00  0.00    -0.205 F 
HETATM   10  F4  UNL     1      -1.643  44.467   7.459  1.00  0.00    -0.205 F 
ENDROOT
BRANCH   4  11
HETATM   11  C7  UNL     1      -3.555  40.255  11.435  1.00  0.00     0.082 A 
HETATM   12  C8  UNL     1      -2.616  39.698  12.265  1.00  0.00     0.058 A 
HETATM   13  C9  UNL     1      -2.928  38.958  13.385  1.00  0.00     0.018 A 
HETATM   14  N5  UNL     1      -4.216  38.773  13.681  1.00  0.00    -0.338 N 
HETATM   15  C13 UNL     1      -5.158  39.304  12.891  1.00  0.00     0.185 A 
ATOM     16  H5  UNL     1      -4.482  38.230  14.502  1.00  0.00     0.168 HD
HETATM   17  C17 UNL     1      -4.889  40.049  11.762  1.00  0.00     0.194 A 
HETATM   18  F2  UNL     1      -5.872  40.563  11.000  1.00  0.00    -0.199 F 
BRANCH  13  19
HETATM   19  C10 UNL     1      -1.839  38.372  14.258  1.00  0.00     0.036 A 
HETATM   20  C11 UNL     1      -1.467  39.253  15.478  1.00  0.00     0.011 A 
HETATM   21  C12 UNL     1      -2.156  37.958  15.625  1.00  0.00     0.011 A 
ENDBRANCH  13  19
BRANCH  15  22
HETATM   22  O4  UNL     1      -6.487  39.091  13.227  1.00  0.00    -0.328 OA
BRANCH  22  23
HETATM   23  C14 UNL     1      -7.329  40.026  13.843  1.00  0.00     0.131 A 
HETATM   24  C15 UNL     1      -8.720  39.486  14.114  1.00  0.00     0.035 A 
HETATM   25  C16 UNL     1      -8.475  40.634  13.165  1.00  0.00     0.035 A 
ENDBRANCH  22  23
ENDBRANCH  15  22
ENDBRANCH   4  11
BRANCH   1  26
HETATM   26  N3  UNL     1      -3.430  42.026   6.837  1.00  0.00    -0.328 N 
HETATM   27  C1  UNL     1      -3.864  43.077   5.991  1.00  0.00     0.324 C 
HETATM   28  O1  UNL     1      -4.239  44.150   6.507  1.00  0.00    -0.247 OA
HETATM   29  N1  UNL     1      -3.887  42.948   4.584  1.00  0.00    -0.274 N 
ATOM     30  H1  UNL     1      -3.584  43.749   4.030  1.00  0.00     0.174 HD
ATOM     31  H3  UNL     1      -3.129  41.156   6.399  1.00  0.00     0.165 HD
BRANCH  29  32
HETATM   32  C2  UNL     1      -4.264  41.892   3.951  1.00  0.00     0.234 A 
HETATM   33  N2  UNL     1      -3.871  41.658   2.675  1.00  0.00    -0.327 N 
HETATM   34  C3  UNL     1      -4.422  40.496   2.303  1.00  0.00     0.161 A 
ATOM     35  H2  UNL     1      -3.269  42.254   2.106  1.00  0.00     0.169 HD
HETATM   36  C4  UNL     1      -5.157  40.023   3.365  1.00  0.00     0.248 A 
HETATM   37  F1  UNL     1      -5.862  38.867   3.369  1.00  0.00    -0.176 F 
HETATM   38  O2  UNL     1      -5.026  40.902   4.328  1.00  0.00    -0.250 OA
ENDBRANCH  29  32
ENDBRANCH   1  26
TORSDOF 6
ENDMDL
MODEL 5
REMARK VINA RESULT: -7.111114170      1.133      3.033
REMARK  6 active torsions:
REMARK  status: ('A' for Active; 'I' for Inactive)
REMARK       I    between atoms: C1_2  and  N1_3 
REMARK       I    between atoms: C1_2  and  N3_12 
REMARK    1  A    between atoms: N1_3  and  C2_5 
REMARK    2  A    between atoms: N3_12  and  C5_14 
REMARK    3  A    between atoms: N4_17  and  C7_18 
REMARK    4  A    between atoms: C9_20  and  C10_21 
REMARK    5  A    between atoms: C13_26  and  O4_27 
REMARK    6  A    between atoms: O4_27  and  C14_28 
ROOT
HETATM    1  C5  UNL     1      -3.515  39.829  12.754  1.00  0.00     0.195 C 
HETATM    2  C6  UNL     1      -2.773  39.920  11.475  1.00  0.00     0.248 C 
HETATM    3  O3  UNL     1      -1.607  39.539  11.283  1.00  0.00    -0.271 OA
HETATM    4  N4  UNL     1      -3.676  40.521  10.562  1.00  0.00    -0.312 N 
HETATM    5  C18 UNL     1      -5.043  40.391  11.068  1.00  0.00     0.150 C 
HETATM    6  C19 UNL     1      -4.881  39.502  12.249  1.00  0.00     0.076 A 
HETATM    7  C20 UNL     1      -5.346  38.118  12.301  1.00  0.00     0.100 A 
HETATM    8  C21 UNL     1      -6.022  39.191  13.119  1.00  0.00     0.256 A 
HETATM    9  F3  UNL     1      -7.272  39.552  12.622  1.00  0.00    -0.205 F 
HETATM   10  F4  UNL     1      -5.940  39.188  14.480  1.00  0.00    -0.205 F 
ENDROOT
BRANCH   4  11
HETATM   11  C7  UNL     1      -3.335  41.166   9.331  1.00  0.00     0.082 A 
HETATM   12  C8  UNL     1      -3.767  40.693   8.119  1.00  0.00     0.058 A 
HETATM   13  C9  UNL     1      -3.463  41.286   6.913  1.00  0.00     0.018 A 
HETATM   14  N5  UNL     1      -2.703  42.383   6.924  1.00  0.00    -0.338 N 
HETATM   15  C13 UNL     1      -2.265  42.871   8.090  1.00  0.00     0.185 A 
ATOM     16  H5  UNL     1      -2.458  42.847   6.049  1.00  0.00     0.168 HD
HETATM   17  C17 UNL     1      -2.546  42.310   9.318  1.00  0.00     0.194 A 
HETATM   18  F2  UNL     1      -2.082  42.839  10.464  1.00  0.00    -0.199 F 
BRANCH  13  19
HETATM   19  C10 UNL     1      -3.975  40.709   5.611  1.00  0.00     0.036 A 
HETATM   20  C11 UNL     1      -4.764  41.721   4.741  1.00  0.00     0.011 A 
HETATM   21  C12 UNL     1      -3.441  41.207   4.343  1.00  0.00     0.011 A 
ENDBRANCH  13  19
BRANCH  15  22
HETATM   22  O4  UNL     1      -1.477  44.013   8.065  1.00  0.00    -0.328 OA
BRANCH  22  23
HETATM   23  C14 UNL     1      -1.940  45.324   8.239  1.00  0.00     0.131 A 
HETATM   24  C15 UNL     1      -0.821  46.345   8.313  1.00  0.00     0.035 A 
HETATM   25  C16 UNL     1      -1.745  46.080   9.476  1.00  0.00     0.035 A 
ENDBRANCH  22  23
ENDBRANCH  15  22
ENDBRANCH   4  11
BRANCH   1  26
HETATM   26  N3  UNL     1      -2.961  38.925  13.705  1.00  0.00    -0.328 N 
HETATM   27  C1  UNL     1      -1.939  39.261  14.629  1.00  0.00     0.324 C 
HETATM   28  O1  UNL     1      -1.480  40.422  14.622  1.00  0.00    -0.247 OA
HETATM   29  N1  UNL     1      -1.424  38.325  15.552  1.00  0.00    -0.274 N 
ATOM     30  H1  UNL     1      -1.233  38.651  16.500  1.00  0.00     0.174 HD
ATOM     31  H3  UNL     1      -3.324  37.972  13.723  1.00  0.00     0.165 HD
BRANCH  29  32
HETATM   32  C2  UNL     1      -1.177  37.090  15.284  1.00  0.00     0.234 A 
HETATM   33  N2  UNL     1      -0.076  36.469  15.774  1.00  0.00    -0.327 N 
HETATM   34  C3  UNL     1      -0.103  35.210  15.321  1.00  0.00     0.161 A 
ATOM     35  H2  UNL     1       0.638  36.883  16.374  1.00  0.00     0.169 HD
HETATM   36  C4  UNL     1      -1.231  35.068  14.548  1.00  0.00     0.248 A 
HETATM   37  F1  UNL     1      -1.603  33.929  13.916  1.00  0.00    -0.176 F 
HETATM   38  O2  UNL     1      -1.838  36.229  14.561  1.00  0.00    -0.250 OA
ENDBRANCH  29  32
ENDBRANCH   1  26
TORSDOF 6
ENDMDL
