MODEL 1
REMARK VINA RESULT: -4.848088113      0.000      0.000
REMARK  2 active torsions:
REMARK  status: ('A' for Active; 'I' for Inactive)
REMARK    1  A    between atoms: N2_8  and  C4_9 
REMARK    2  A    between atoms: C4_9  and  C5_10 
ROOT
HETATM    1  N1  UNL     1      -0.666  38.023 -11.952  1.00  0.00    -0.387 N 
ATOM      2  H11 UNL     1      -1.338  37.984 -12.719  1.00  0.00     0.157 HD
ATOM      3  H12 UNL     1      -0.790  37.013 -11.876  1.00  0.00     0.157 HD
HETATM    4  C1  UNL     1       0.031  38.870 -11.343  1.00  0.00     0.109 C 
HETATM    5  C2  UNL     1       1.001  38.926 -10.237  1.00  0.00     0.254 C 
HETATM    6  F1  UNL     1       0.908  37.988  -9.271  1.00  0.00    -0.239 F 
HETATM    7  C3  UNL     1       0.253  40.252  -9.979  1.00  0.00     0.169 C 
HETATM    8  N2  UNL     1       0.203  40.266 -11.448  1.00  0.00    -0.363 N 
ENDROOT
BRANCH   8   9
HETATM    9  C4  UNL     1       0.276  41.183 -12.534  1.00  0.00     0.155 C 
BRANCH   9  10
HETATM   10  C5  UNL     1       1.705  41.197 -13.056  1.00  0.00     0.241 C 
HETATM   11  F2  UNL     1       2.467  41.756 -12.042  1.00  0.00    -0.254 F 
ENDBRANCH   9  10
ENDBRANCH   8   9
TORSDOF 2
ENDMDL
MODEL 2
REMARK VINA RESULT: -4.753552218      1.639      1.687
REMARK  2 active torsions:
REMARK  status: ('A' for Active; 'I' for Inactive)
REMARK    1  A    between atoms: N2_8  and  C4_9 
REMARK    2  A    between atoms: C4_9  and  C5_10 
ROOT
HETATM    1  N1  UNL     1       1.644  38.065 -11.543  1.00  0.00    -0.387 N 
ATOM      2  H11 UNL     1       1.203  37.486 -12.258  1.00  0.00     0.157 HD
ATOM      3  H12 UNL     1       2.297  37.293 -11.410  1.00  0.00     0.157 HD
HETATM    4  C1  UNL     1       1.511  39.201 -11.026  1.00  0.00     0.109 C 
HETATM    5  C2  UNL     1       2.147  40.036  -9.996  1.00  0.00     0.254 C 
HETATM    6  F1  UNL     1       2.782  39.410  -8.981  1.00  0.00    -0.239 F 
HETATM    7  C3  UNL     1       0.672  40.419  -9.750  1.00  0.00     0.169 C 
HETATM    8  N2  UNL     1       0.608  40.268 -11.210  1.00  0.00    -0.363 N 
ENDROOT
BRANCH   8   9
HETATM    9  C4  UNL     1      -0.026  40.855 -12.341  1.00  0.00     0.155 C 
BRANCH   9  10
HETATM   10  C5  UNL     1       1.052  41.313 -13.313  1.00  0.00     0.241 C 
HETATM   11  F2  UNL     1       1.260  40.243 -14.169  1.00  0.00    -0.254 F 
ENDBRANCH   9  10
ENDBRANCH   8   9
TORSDOF 2
ENDMDL
MODEL 3
REMARK VINA RESULT: -4.750582176      1.852      3.567
REMARK  2 active torsions:
REMARK  status: ('A' for Active; 'I' for Inactive)
REMARK    1  A    between atoms: N2_8  and  C4_9 
REMARK    2  A    between atoms: C4_9  and  C5_10 
ROOT
HETATM    1  N1  UNL     1       2.047  41.707 -11.792  1.00  0.00    -0.387 N 
ATOM      2  H11 UNL     1       2.987  41.728 -11.396  1.00  0.00     0.157 HD
ATOM      3  H12 UNL     1       2.269  42.611 -12.207  1.00  0.00     0.157 HD
HETATM    4  C1  UNL     1       1.042  40.955 -11.812  1.00  0.00     0.109 C 
HETATM    5  C2  UNL     1      -0.314  40.924 -12.383  1.00  0.00     0.254 C 
HETATM    6  F1  UNL     1      -0.923  42.106 -12.622  1.00  0.00    -0.239 F 
HETATM    7  C3  UNL     1      -0.605  40.267 -11.017  1.00  0.00     0.169 C 
HETATM    8  N2  UNL     1       0.734  39.704 -11.239  1.00  0.00    -0.363 N 
ENDROOT
BRANCH   8   9
HETATM    9  C4  UNL     1       1.462  38.502 -11.017  1.00  0.00     0.155 C 
BRANCH   9  10
HETATM   10  C5  UNL     1       1.821  38.422  -9.541  1.00  0.00     0.241 C 
HETATM   11  F2  UNL     1       2.680  39.484  -9.307  1.00  0.00    -0.254 F 
ENDBRANCH   9  10
ENDBRANCH   8   9
TORSDOF 2
ENDMDL
MODEL 4
REMARK VINA RESULT: -4.749973542      1.118      1.745
REMARK  2 active torsions:
REMARK  status: ('A' for Active; 'I' for Inactive)
REMARK    1  A    between atoms: N2_8  and  C4_9 
REMARK    2  A    between atoms: C4_9  and  C5_10 
ROOT
HETATM    1  N1  UNL     1       2.123  39.747  -9.726  1.00  0.00    -0.387 N 
ATOM      2  H11 UNL     1       2.960  40.261 -10.003  1.00  0.00     0.157 HD
ATOM      3  H12 UNL     1       2.621  39.525  -8.864  1.00  0.00     0.157 HD
HETATM    4  C1  UNL     1       0.982  39.479 -10.174  1.00  0.00     0.109 C 
HETATM    5  C2  UNL     1      -0.225  38.738  -9.776  1.00  0.00     0.254 C 
HETATM    6  F1  UNL     1      -0.073  37.692  -8.935  1.00  0.00    -0.239 F 
HETATM    7  C3  UNL     1      -0.221  38.413 -11.285  1.00  0.00     0.169 C 
HETATM    8  N2  UNL     1       0.294  39.787 -11.366  1.00  0.00    -0.363 N 
ENDROOT
BRANCH   8   9
HETATM    9  C4  UNL     1       0.205  40.937 -12.198  1.00  0.00     0.155 C 
BRANCH   9  10
HETATM   10  C5  UNL     1       1.403  40.947 -13.136  1.00  0.00     0.241 C 
HETATM   11  F2  UNL     1       2.355  41.741 -12.517  1.00  0.00    -0.254 F 
ENDBRANCH   9  10
ENDBRANCH   8   9
TORSDOF 2
ENDMDL
MODEL 5
REMARK VINA RESULT: -4.731924676      2.202      3.350
REMARK  2 active torsions:
REMARK  status: ('A' for Active; 'I' for Inactive)
REMARK    1  A    between atoms: N2_8  and  C4_9 
REMARK    2  A    between atoms: C4_9  and  C5_10 
ROOT
HETATM    1  N1  UNL     1       2.133  41.797 -12.265  1.00  0.00    -0.387 N 
ATOM      2  H11 UNL     1       2.586  41.648 -13.167  1.00  0.00     0.157 HD
ATOM      3  H12 UNL     1       2.233  42.795 -12.450  1.00  0.00     0.157 HD
HETATM    4  C1  UNL     1       1.648  41.123 -11.324  1.00  0.00     0.109 C 
HETATM    5  C2  UNL     1       0.995  41.336 -10.023  1.00  0.00     0.254 C 
HETATM    6  F1  UNL     1       1.294  42.466  -9.347  1.00  0.00    -0.239 F 
HETATM    7  C3  UNL     1       1.835  40.088  -9.677  1.00  0.00     0.169 C 
HETATM    8  N2  UNL     1       1.510  39.743 -11.069  1.00  0.00    -0.363 N 
ENDROOT
BRANCH   8   9
HETATM    9  C4  UNL     1       1.198  38.607 -11.866  1.00  0.00     0.155 C 
BRANCH   9  10
HETATM   10  C5  UNL     1      -0.258  38.236 -11.627  1.00  0.00     0.241 C 
HETATM   11  F2  UNL     1      -0.993  39.353 -11.992  1.00  0.00    -0.254 F 
ENDBRANCH   9  10
ENDBRANCH   8   9
TORSDOF 2
ENDMDL
