MODEL 1
REMARK VINA RESULT: -7.150135892      0.000      0.000
REMARK  6 active torsions:
REMARK  status: ('A' for Active; 'I' for Inactive)
REMARK       I    between atoms: N2_7  and  C4_8 
REMARK       I    between atoms: C4_8  and  N3_10 
REMARK    1  A    between atoms: N3_10  and  O2_12 
REMARK    2  A    between atoms: O2_12  and  N4_13 
REMARK    3  A    between atoms: C5_14  and  C6_15 
REMARK    4  A    between atoms: C6_15  and  O3_16 
REMARK    5  A    between atoms: N5_18  and  O4_20 
REMARK    6  A    between atoms: N8_29  and  N9_30 
ROOT
HETATM    1  N1  UNL     1     117.911  56.646  12.005  1.00  0.00    -0.402 N 
ATOM      2  H11 UNL     1     117.239  56.171  11.403  1.00  0.00     0.155 HD
ATOM      3  H12 UNL     1     118.200  56.114  11.185  1.00  0.00     0.155 HD
HETATM    4  C1  UNL     1     117.997  57.364  13.051  1.00  0.00     0.027 A 
HETATM    5  C2  UNL     1     119.002  58.077  13.953  1.00  0.00     0.154 A 
HETATM    6  C3  UNL     1     117.579  58.131  14.233  1.00  0.00     0.161 A 
HETATM    7  N2  UNL     1     117.309  57.461  15.494  1.00  0.00    -0.319 N 
HETATM    8  C4  UNL     1     116.703  58.190  16.546  1.00  0.00     0.344 C 
HETATM    9  O1  UNL     1     116.405  59.412  16.359  1.00  0.00    -0.245 OA
HETATM   10  N3  UNL     1     116.411  57.620  17.815  1.00  0.00    -0.194 N 
ATOM     11  H3  UNL     1     116.646  56.640  17.977  1.00  0.00     0.201 HD
HETATM   12  C8  UNL     1     117.714  56.081  15.547  1.00  0.00     0.144 C 
HETATM   13  C9  UNL     1     119.091  55.874  14.944  1.00  0.00     0.134 C 
HETATM   14  N8  UNL     1     119.773  57.135  14.713  1.00  0.00    -0.224 NA
ENDROOT
BRANCH  10  15
HETATM   15  O2  UNL     1     115.855  58.295  18.782  1.00  0.00    -0.140 OA
BRANCH  15  16
HETATM   16  N4  UNL     1     116.343  58.372  19.962  1.00  0.00     0.141 NA
HETATM   17  C5  UNL     1     115.264  58.758  20.895  1.00  0.00     0.227 C 
HETATM   18  C7  UNL     1     115.902  59.750  21.807  1.00  0.00     0.192 C 
HETATM   19  N6  UNL     1     116.900  60.336  20.873  1.00  0.00     0.086 NA
HETATM   20  N7  UNL     1     117.393  59.121  20.321  1.00  0.00     0.457 N 
HETATM   21  O5  UNL     1     118.018  58.505  21.386  1.00  0.00     0.016 OA
HETATM   22  O6  UNL     1     118.346  59.365  19.437  1.00  0.00     0.016 OA
BRANCH  17  23
HETATM   23  C6  UNL     1     114.645  57.586  21.458  1.00  0.00     0.160 C 
HETATM   24  N5  UNL     1     114.779  56.400  21.093  1.00  0.00    -0.249 N 
ATOM     25  H5  UNL     1     114.233  55.748  21.657  1.00  0.00     0.196 HD
BRANCH  23  26
HETATM   26  O3  UNL     1     113.770  57.813  22.566  1.00  0.00    -0.347 OA
ATOM     27  H3  UNL     1     112.852  57.622  22.414  1.00  0.00     0.219 HD
ENDBRANCH  23  26
BRANCH  24  28
HETATM   28  O4  UNL     1     115.479  55.793  20.129  1.00  0.00    -0.288 OA
ATOM     29  H4  UNL     1     115.385  54.974  19.656  1.00  0.00     0.244 HD
ENDBRANCH  24  28
ENDBRANCH  17  23
ENDBRANCH  15  16
ENDBRANCH  10  15
BRANCH  14  30
HETATM   30  N9  UNL     1     120.920  56.831  13.956  1.00  0.00    -0.362 NA
ATOM     31  H92 UNL     1     120.606  56.723  12.991  1.00  0.00     0.171 HD
ATOM     32  H91 UNL     1     121.579  57.598  14.088  1.00  0.00     0.171 HD
ENDBRANCH  14  30
TORSDOF 6
ENDMDL
MODEL 2
REMARK VINA RESULT: -7.077152560      0.942      1.385
REMARK  6 active torsions:
REMARK  status: ('A' for Active; 'I' for Inactive)
REMARK       I    between atoms: N2_7  and  C4_8 
REMARK       I    between atoms: C4_8  and  N3_10 
REMARK    1  A    between atoms: N3_10  and  O2_12 
REMARK    2  A    between atoms: O2_12  and  N4_13 
REMARK    3  A    between atoms: C5_14  and  C6_15 
REMARK    4  A    between atoms: C6_15  and  O3_16 
REMARK    5  A    between atoms: N5_18  and  O4_20 
REMARK    6  A    between atoms: N8_29  and  N9_30 
ROOT
HETATM    1  N1  UNL     1     117.979  56.595  11.694  1.00  0.00    -0.402 N 
ATOM      2  H11 UNL     1     117.253  56.622  10.979  1.00  0.00     0.155 HD
ATOM      3  H12 UNL     1     118.015  56.006  10.862  1.00  0.00     0.155 HD
HETATM    4  C1  UNL     1     118.319  57.106  12.808  1.00  0.00     0.027 A 
HETATM    5  C2  UNL     1     119.406  57.065  13.879  1.00  0.00     0.154 A 
HETATM    6  C3  UNL     1     118.266  57.953  14.006  1.00  0.00     0.161 A 
HETATM    7  N2  UNL     1     117.473  57.560  15.160  1.00  0.00    -0.319 N 
HETATM    8  C4  UNL     1     117.268  58.491  16.206  1.00  0.00     0.344 C 
HETATM    9  O1  UNL     1     117.778  59.652  16.108  1.00  0.00    -0.245 OA
HETATM   10  N3  UNL     1     116.516  58.191  17.374  1.00  0.00    -0.194 N 
ATOM     11  H3  UNL     1     116.103  57.262  17.464  1.00  0.00     0.201 HD
HETATM   12  C8  UNL     1     116.975  56.210  15.122  1.00  0.00     0.144 C 
HETATM   13  C9  UNL     1     118.036  55.231  14.654  1.00  0.00     0.134 C 
HETATM   14  N8  UNL     1     119.355  55.839  14.623  1.00  0.00    -0.224 NA
ENDROOT
BRANCH  10  15
HETATM   15  O2  UNL     1     116.330  59.051  18.336  1.00  0.00    -0.140 OA
BRANCH  15  16
HETATM   16  N4  UNL     1     116.830  58.921  19.507  1.00  0.00     0.141 NA
HETATM   17  C5  UNL     1     115.732  58.945  20.495  1.00  0.00     0.227 C 
HETATM   18  C7  UNL     1     116.259  59.777  21.613  1.00  0.00     0.192 C 
HETATM   19  N6  UNL     1     117.155  60.682  20.845  1.00  0.00     0.086 NA
HETATM   20  N7  UNL     1     117.784  59.697  20.034  1.00  0.00     0.457 N 
HETATM   21  O5  UNL     1     118.506  58.942  20.936  1.00  0.00     0.016 OA
HETATM   22  O6  UNL     1     118.680  60.255  19.236  1.00  0.00     0.016 OA
BRANCH  17  23
HETATM   23  C6  UNL     1     115.278  57.606  20.771  1.00  0.00     0.160 C 
HETATM   24  N5  UNL     1     114.352  57.254  21.530  1.00  0.00    -0.249 N 
ATOM     25  H5  UNL     1     114.222  56.242  21.554  1.00  0.00     0.196 HD
BRANCH  23  26
HETATM   26  O3  UNL     1     115.976  56.558  20.094  1.00  0.00    -0.347 OA
ATOM     27  H3  UNL     1     115.817  56.491  19.161  1.00  0.00     0.219 HD
ENDBRANCH  23  26
BRANCH  24  28
HETATM   28  O4  UNL     1     113.491  57.906  22.318  1.00  0.00    -0.288 OA
ATOM     29  H4  UNL     1     113.550  58.305  23.179  1.00  0.00     0.244 HD
ENDBRANCH  24  28
ENDBRANCH  17  23
ENDBRANCH  15  16
ENDBRANCH  10  15
BRANCH  14  30
HETATM   30  N9  UNL     1     120.198  54.921  13.968  1.00  0.00    -0.362 NA
ATOM     31  H92 UNL     1     119.611  54.127  13.710  1.00  0.00     0.171 HD
ATOM     32  H91 UNL     1     120.606  55.405  13.169  1.00  0.00     0.171 HD
ENDBRANCH  14  30
TORSDOF 6
ENDMDL
MODEL 3
REMARK VINA RESULT: -7.045707067      1.540      2.413
REMARK  6 active torsions:
REMARK  status: ('A' for Active; 'I' for Inactive)
REMARK       I    between atoms: N2_7  and  C4_8 
REMARK       I    between atoms: C4_8  and  N3_10 
REMARK    1  A    between atoms: N3_10  and  O2_12 
REMARK    2  A    between atoms: O2_12  and  N4_13 
REMARK    3  A    between atoms: C5_14  and  C6_15 
REMARK    4  A    between atoms: C6_15  and  O3_16 
REMARK    5  A    between atoms: N5_18  and  O4_20 
REMARK    6  A    between atoms: N8_29  and  N9_30 
ROOT
HETATM    1  N1  UNL     1     121.023  57.316  13.527  1.00  0.00    -0.402 N 
ATOM      2  H11 UNL     1     121.897  57.788  13.761  1.00  0.00     0.155 HD
ATOM      3  H12 UNL     1     121.718  57.554  12.819  1.00  0.00     0.155 HD
HETATM    4  C1  UNL     1     119.951  56.863  14.040  1.00  0.00     0.027 A 
HETATM    5  C2  UNL     1     118.645  56.155  13.689  1.00  0.00     0.154 A 
HETATM    6  C3  UNL     1     118.951  56.520  15.059  1.00  0.00     0.161 A 
HETATM    7  N2  UNL     1     117.993  57.511  15.522  1.00  0.00    -0.319 N 
HETATM    8  C4  UNL     1     117.191  57.220  16.651  1.00  0.00     0.344 C 
HETATM    9  O1  UNL     1     117.332  56.101  17.237  1.00  0.00    -0.245 OA
HETATM   10  N3  UNL     1     116.222  58.124  17.167  1.00  0.00    -0.194 N 
ATOM     11  H3  UNL     1     116.100  59.025  16.704  1.00  0.00     0.201 HD
HETATM   12  C8  UNL     1     117.950  58.722  14.745  1.00  0.00     0.144 C 
HETATM   13  C9  UNL     1     117.975  58.437  13.255  1.00  0.00     0.134 C 
HETATM   14  N8  UNL     1     117.760  57.028  12.972  1.00  0.00    -0.224 NA
ENDROOT
BRANCH  10  15
HETATM   15  O2  UNL     1     115.483  57.852  18.206  1.00  0.00    -0.140 OA
BRANCH  15  16
HETATM   16  N4  UNL     1     115.899  57.939  19.412  1.00  0.00     0.141 NA
HETATM   17  C5  UNL     1     115.071  57.058  20.262  1.00  0.00     0.227 C 
HETATM   18  C7  UNL     1     114.836  57.855  21.499  1.00  0.00     0.192 C 
HETATM   19  N6  UNL     1     114.865  59.224  20.920  1.00  0.00     0.086 NA
HETATM   20  N7  UNL     1     116.025  59.073  20.111  1.00  0.00     0.457 N 
HETATM   21  O5  UNL     1     117.044  58.906  21.026  1.00  0.00     0.016 OA
HETATM   22  O6  UNL     1     116.297  60.200  19.474  1.00  0.00     0.016 OA
BRANCH  17  23
HETATM   23  C6  UNL     1     115.674  55.755  20.371  1.00  0.00     0.160 C 
HETATM   24  N5  UNL     1     115.125  54.684  20.699  1.00  0.00    -0.249 N 
ATOM     25  H5  UNL     1     115.769  53.892  20.699  1.00  0.00     0.196 HD
BRANCH  23  26
HETATM   26  O3  UNL     1     117.069  55.686  20.068  1.00  0.00    -0.347 OA
ATOM     27  H3  UNL     1     117.437  54.812  20.005  1.00  0.00     0.219 HD
ENDBRANCH  23  26
BRANCH  24  28
HETATM   28  O4  UNL     1     113.882  54.340  21.051  1.00  0.00    -0.288 OA
ATOM     29  H4  UNL     1     113.447  53.515  21.233  1.00  0.00     0.244 HD
ENDBRANCH  24  28
ENDBRANCH  17  23
ENDBRANCH  15  16
ENDBRANCH  10  15
BRANCH  14  30
HETATM   30  N9  UNL     1     118.028  56.855  11.601  1.00  0.00    -0.362 NA
ATOM     31  H92 UNL     1     117.811  55.881  11.387  1.00  0.00     0.171 HD
ATOM     32  H91 UNL     1     117.448  57.524  11.094  1.00  0.00     0.171 HD
ENDBRANCH  14  30
TORSDOF 6
ENDMDL
MODEL 4
REMARK VINA RESULT: -6.925685335      1.752      2.556
REMARK  6 active torsions:
REMARK  status: ('A' for Active; 'I' for Inactive)
REMARK       I    between atoms: N2_7  and  C4_8 
REMARK       I    between atoms: C4_8  and  N3_10 
REMARK    1  A    between atoms: N3_10  and  O2_12 
REMARK    2  A    between atoms: O2_12  and  N4_13 
REMARK    3  A    between atoms: C5_14  and  C6_15 
REMARK    4  A    between atoms: C6_15  and  O3_16 
REMARK    5  A    between atoms: N5_18  and  O4_20 
REMARK    6  A    between atoms: N8_29  and  N9_30 
ROOT
HETATM    1  N1  UNL     1     120.835  57.543  12.780  1.00  0.00    -0.402 N 
ATOM      2  H11 UNL     1     121.817  57.560  13.056  1.00  0.00     0.155 HD
ATOM      3  H12 UNL     1     121.578  57.781  12.124  1.00  0.00     0.155 HD
HETATM    4  C1  UNL     1     119.664  57.325  13.227  1.00  0.00     0.027 A 
HETATM    5  C2  UNL     1     118.195  57.299  12.814  1.00  0.00     0.154 A 
HETATM    6  C3  UNL     1     118.594  56.982  14.172  1.00  0.00     0.161 A 
HETATM    7  N2  UNL     1     118.057  57.983  15.079  1.00  0.00    -0.319 N 
HETATM    8  C4  UNL     1     117.188  57.575  16.119  1.00  0.00     0.344 C 
HETATM    9  O1  UNL     1     116.902  56.342  16.238  1.00  0.00    -0.245 OA
HETATM   10  N3  UNL     1     116.608  58.484  17.047  1.00  0.00    -0.194 N 
ATOM     11  H3  UNL     1     116.829  59.477  16.960  1.00  0.00     0.201 HD
HETATM   12  C8  UNL     1     118.469  59.334  14.805  1.00  0.00     0.144 C 
HETATM   13  C9  UNL     1     118.409  59.652  13.322  1.00  0.00     0.134 C 
HETATM   14  N8  UNL     1     117.699  58.625  12.579  1.00  0.00    -0.224 NA
ENDROOT
BRANCH  10  15
HETATM   15  O2  UNL     1     115.806  58.106  18.002  1.00  0.00    -0.140 OA
BRANCH  15  16
HETATM   16  N4  UNL     1     116.132  58.101  19.239  1.00  0.00     0.141 NA
HETATM   17  C5  UNL     1     115.334  57.070  19.934  1.00  0.00     0.227 C 
HETATM   18  C7  UNL     1     114.945  57.710  21.222  1.00  0.00     0.192 C 
HETATM   19  N6  UNL     1     114.887  59.129  20.783  1.00  0.00     0.086 NA
HETATM   20  N7  UNL     1     116.106  59.163  20.053  1.00  0.00     0.457 N 
HETATM   21  O5  UNL     1     117.074  58.987  21.021  1.00  0.00     0.016 OA
HETATM   22  O6  UNL     1     116.316  60.368  19.551  1.00  0.00     0.016 OA
BRANCH  17  23
HETATM   23  C6  UNL     1     116.046  55.817  19.959  1.00  0.00     0.160 C 
HETATM   24  N5  UNL     1     117.178  55.572  19.497  1.00  0.00    -0.249 N 
ATOM     25  H5  UNL     1     117.465  54.604  19.644  1.00  0.00     0.196 HD
BRANCH  23  26
HETATM   26  O3  UNL     1     115.368  54.728  20.589  1.00  0.00    -0.347 OA
ATOM     27  H3  UNL     1     115.176  53.983  20.033  1.00  0.00     0.219 HD
ENDBRANCH  23  26
BRANCH  24  28
HETATM   28  O4  UNL     1     118.101  56.294  18.853  1.00  0.00    -0.288 OA
ATOM     29  H4  UNL     1     119.020  56.485  19.004  1.00  0.00     0.244 HD
ENDBRANCH  24  28
ENDBRANCH  17  23
ENDBRANCH  15  16
ENDBRANCH  10  15
BRANCH  14  30
HETATM   30  N9  UNL     1     117.905  58.910  11.216  1.00  0.00    -0.362 NA
ATOM     31  H92 UNL     1     117.219  59.623  10.966  1.00  0.00     0.171 HD
ATOM     32  H91 UNL     1     118.872  59.220  11.117  1.00  0.00     0.171 HD
ENDBRANCH  14  30
TORSDOF 6
ENDMDL
MODEL 5
REMARK VINA RESULT: -6.862620171      4.225      6.732
REMARK  6 active torsions:
REMARK  status: ('A' for Active; 'I' for Inactive)
REMARK       I    between atoms: N2_7  and  C4_8 
REMARK       I    between atoms: C4_8  and  N3_10 
REMARK    1  A    between atoms: N3_10  and  O2_12 
REMARK    2  A    between atoms: O2_12  and  N4_13 
REMARK    3  A    between atoms: C5_14  and  C6_15 
REMARK    4  A    between atoms: C6_15  and  O3_16 
REMARK    5  A    between atoms: N5_18  and  O4_20 
REMARK    6  A    between atoms: N8_29  and  N9_30 
ROOT
HETATM    1  N1  UNL     1     119.716  59.446  19.680  1.00  0.00    -0.402 N 
ATOM      2  H11 UNL     1     120.627  59.381  20.134  1.00  0.00     0.155 HD
ATOM      3  H12 UNL     1     120.115  60.222  20.209  1.00  0.00     0.155 HD
HETATM    4  C1  UNL     1     118.889  58.783  18.977  1.00  0.00     0.027 A 
HETATM    5  C2  UNL     1     117.525  58.880  18.298  1.00  0.00     0.154 A 
HETATM    6  C3  UNL     1     118.315  57.666  18.217  1.00  0.00     0.161 A 
HETATM    7  N2  UNL     1     117.615  56.587  18.896  1.00  0.00    -0.319 N 
HETATM    8  C4  UNL     1     117.266  55.425  18.168  1.00  0.00     0.344 C 
HETATM    9  O1  UNL     1     117.578  55.350  16.937  1.00  0.00    -0.245 OA
HETATM   10  N3  UNL     1     116.574  54.326  18.747  1.00  0.00    -0.194 N 
ATOM     11  H3  UNL     1     116.317  54.376  19.733  1.00  0.00     0.201 HD
HETATM   12  C8  UNL     1     117.328  56.831  20.286  1.00  0.00     0.144 C 
HETATM   13  C9  UNL     1     116.806  58.237  20.515  1.00  0.00     0.134 C 
HETATM   14  N8  UNL     1     116.465  58.896  19.266  1.00  0.00    -0.224 NA
ENDROOT
BRANCH  10  15
HETATM   15  O2  UNL     1     116.252  53.258  18.072  1.00  0.00    -0.140 OA
BRANCH  15  16
HETATM   16  N4  UNL     1     115.456  52.358  18.511  1.00  0.00     0.141 NA
HETATM   17  C5  UNL     1     114.647  51.852  17.383  1.00  0.00     0.227 C 
HETATM   18  C7  UNL     1     113.274  51.713  17.946  1.00  0.00     0.192 C 
HETATM   19  N6  UNL     1     113.312  52.804  18.956  1.00  0.00     0.086 NA
HETATM   20  N7  UNL     1     114.586  52.512  19.516  1.00  0.00     0.457 N 
HETATM   21  O5  UNL     1     114.406  51.286  20.123  1.00  0.00     0.016 OA
HETATM   22  O6  UNL     1     114.869  53.358  20.493  1.00  0.00     0.016 OA
BRANCH  17  23
HETATM   23  C6  UNL     1     115.280  50.702  16.788  1.00  0.00     0.160 C 
HETATM   24  N5  UNL     1     116.441  50.616  16.339  1.00  0.00    -0.249 N 
ATOM     25  H5  UNL     1     116.655  49.690  15.969  1.00  0.00     0.196 HD
BRANCH  23  26
HETATM   26  O3  UNL     1     114.477  49.523  16.702  1.00  0.00    -0.347 OA
ATOM     27  H3  UNL     1     114.937  48.700  16.820  1.00  0.00     0.219 HD
ENDBRANCH  23  26
BRANCH  24  28
HETATM   28  O4  UNL     1     117.468  51.466  16.233  1.00  0.00    -0.288 OA
ATOM     29  H4  UNL     1     117.641  52.236  15.705  1.00  0.00     0.244 HD
ENDBRANCH  24  28
ENDBRANCH  17  23
ENDBRANCH  15  16
ENDBRANCH  10  15
BRANCH  14  30
HETATM   30  N9  UNL     1     116.216  60.244  19.586  1.00  0.00    -0.362 NA
ATOM     31  H92 UNL     1     116.943  60.521  20.245  1.00  0.00     0.171 HD
ATOM     32  H91 UNL     1     116.235  60.769  18.711  1.00  0.00     0.171 HD
ENDBRANCH  14  30
TORSDOF 6
ENDMDL
