MODEL 1
REMARK VINA RESULT: -9.205594022      0.000      0.000
REMARK  8 active torsions:
REMARK  status: ('A' for Active; 'I' for Inactive)
REMARK    1  A    between atoms: N1_2  and  C1_4 
REMARK    2  A    between atoms: N2_13  and  C10_14 
REMARK    3  A    between atoms: C10_14  and  C11_15 
REMARK    4  A    between atoms: C19_24  and  N3_25 
REMARK    5  A    between atoms: N3_25  and  C20_27 
REMARK    6  A    between atoms: C20_27  and  C21_28 
REMARK    7  A    between atoms: C24_31  and  N4_32 
REMARK    8  A    between atoms: N4_32  and  C25_34 
ROOT
HETATM    1  C1  UNL     1      46.002  10.627  -0.791  1.00  0.00     0.130 A 
HETATM    2  C2  UNL     1      45.556  11.726  -1.562  1.00  0.00     0.053 A 
HETATM    3  C3  UNL     1      45.073  12.859  -0.988  1.00  0.00     0.006 A 
HETATM    4  C4  UNL     1      44.586  14.031  -1.529  1.00  0.00     0.003 A 
HETATM    5  C5  UNL     1      44.417  14.471  -2.819  1.00  0.00     0.014 A 
HETATM    6  C6  UNL     1      43.882  15.728  -3.107  1.00  0.00     0.001 A 
HETATM    7  C7  UNL     1      43.526  16.525  -2.045  1.00  0.00     0.002 A 
HETATM    8  C8  UNL     1      43.703  16.068  -0.757  1.00  0.00     0.030 A 
HETATM    9  C9  UNL     1      44.233  14.824  -0.465  1.00  0.00     0.046 A 
HETATM   10  N2  UNL     1      44.482  14.189   0.704  1.00  0.00    -0.341 N 
HETATM   11  C17 UNL     1      44.996  12.983   0.384  1.00  0.00     0.048 A 
HETATM   12  C18 UNL     1      45.431  11.910   1.124  1.00  0.00     0.062 A 
HETATM   13  C19 UNL     1      45.932  10.736   0.555  1.00  0.00     0.064 A 
ENDROOT
BRANCH  13  14
HETATM   14  N3  UNL     1      46.398   9.702   1.405  1.00  0.00    -0.384 N 
ATOM     15  H3  UNL     1      45.775   8.935   1.658  1.00  0.00     0.160 HD
BRANCH  14  16
HETATM   16  C20 UNL     1      47.773   9.730   1.924  1.00  0.00     0.158 C 
BRANCH  16  17
HETATM   17  C21 UNL     1      48.142   8.408   2.481  1.00  0.00    -0.040 A 
HETATM   18  C22 UNL     1      49.077   8.298   3.491  1.00  0.00     0.011 A 
HETATM   19  C23 UNL     1      49.426   7.083   4.011  1.00  0.00     0.030 A 
HETATM   20  C24 UNL     1      48.863   5.905   3.553  1.00  0.00     0.049 A 
HETATM   21  C28 UNL     1      47.925   6.013   2.541  1.00  0.00     0.030 A 
HETATM   22  C29 UNL     1      47.575   7.238   2.018  1.00  0.00     0.011 A 
BRANCH  20  23
HETATM   23  N4  UNL     1      49.214   4.637   4.086  1.00  0.00    -0.192 N 
ATOM     24  H4  UNL     1      48.570   3.852   3.984  1.00  0.00     0.184 HD
BRANCH  23  25
HETATM   25  C25 UNL     1      50.326   4.465   4.691  1.00  0.00     0.682 A 
HETATM   26  N5  UNL     1      50.574   4.454   6.012  1.00  0.00    -0.200 N 
HETATM   27  C26 UNL     1      51.870   4.242   6.254  1.00  0.00     0.123 A 
ATOM     28  H5  UNL     1      49.866   4.590   6.733  1.00  0.00     0.183 HD
HETATM   29  C27 UNL     1      52.492   4.109   5.051  1.00  0.00     0.123 A 
HETATM   30  N6  UNL     1      51.546   4.246   4.114  1.00  0.00    -0.200 N 
ATOM     31  H6  UNL     1      51.712   4.195   3.109  1.00  0.00     0.183 HD
ENDBRANCH  23  25
ENDBRANCH  20  23
ENDBRANCH  16  17
ENDBRANCH  14  16
ENDBRANCH  13  14
BRANCH   1  32
HETATM   32  N1  UNL     1      46.478   9.516  -1.503  1.00  0.00    -0.113 N 
HETATM   33  O1  UNL     1      47.233   9.718  -2.505  1.00  0.00    -0.532 OA
HETATM   34  O2  UNL     1      46.191   8.239  -1.197  1.00  0.00    -0.532 OA
ENDBRANCH   1  32
BRANCH  10  35
HETATM   35  C10 UNL     1      44.275  14.652   2.036  1.00  0.00     0.168 C 
BRANCH  35  36
HETATM   36  C11 UNL     1      45.406  15.411   2.627  1.00  0.00    -0.040 A 
HETATM   37  C12 UNL     1      45.472  16.786   2.627  1.00  0.00     0.012 A 
HETATM   38  C13 UNL     1      46.550  17.431   3.194  1.00  0.00     0.043 A 
HETATM   39  C14 UNL     1      47.585  16.717   3.774  1.00  0.00     0.116 A 
HETATM   40  F1  UNL     1      48.663  17.312   4.344  1.00  0.00    -0.206 F 
HETATM   41  C15 UNL     1      47.532  15.349   3.780  1.00  0.00     0.043 A 
HETATM   42  C16 UNL     1      46.446  14.717   3.208  1.00  0.00     0.012 A 
ENDBRANCH  35  36
ENDBRANCH  10  35
TORSDOF 8
ENDMDL
MODEL 2
REMARK VINA RESULT: -9.167192196      1.444      2.110
REMARK  8 active torsions:
REMARK  status: ('A' for Active; 'I' for Inactive)
REMARK    1  A    between atoms: N1_2  and  C1_4 
REMARK    2  A    between atoms: N2_13  and  C10_14 
REMARK    3  A    between atoms: C10_14  and  C11_15 
REMARK    4  A    between atoms: C19_24  and  N3_25 
REMARK    5  A    between atoms: N3_25  and  C20_27 
REMARK    6  A    between atoms: C20_27  and  C21_28 
REMARK    7  A    between atoms: C24_31  and  N4_32 
REMARK    8  A    between atoms: N4_32  and  C25_34 
ROOT
HETATM    1  C1  UNL     1      45.765  10.271  -0.622  1.00  0.00     0.130 A 
HETATM    2  C2  UNL     1      45.217  11.553  -0.863  1.00  0.00     0.053 A 
HETATM    3  C3  UNL     1      45.182  12.513   0.099  1.00  0.00     0.006 A 
HETATM    4  C4  UNL     1      44.701  13.805   0.094  1.00  0.00     0.003 A 
HETATM    5  C5  UNL     1      44.092  14.577  -0.866  1.00  0.00     0.014 A 
HETATM    6  C6  UNL     1      43.682  15.887  -0.610  1.00  0.00     0.001 A 
HETATM    7  C7  UNL     1      43.910  16.389   0.649  1.00  0.00     0.002 A 
HETATM    8  C8  UNL     1      44.522  15.602   1.600  1.00  0.00     0.030 A 
HETATM    9  C9  UNL     1      44.931  14.303   1.353  1.00  0.00     0.046 A 
HETATM   10  N2  UNL     1      45.533  13.372   2.129  1.00  0.00    -0.341 N 
HETATM   11  C17 UNL     1      45.687  12.273   1.361  1.00  0.00     0.048 A 
HETATM   12  C18 UNL     1      46.218  11.026   1.584  1.00  0.00     0.062 A 
HETATM   13  C19 UNL     1      46.263  10.024   0.611  1.00  0.00     0.064 A 
ENDROOT
BRANCH  13  14
HETATM   14  N3  UNL     1      46.872   8.784   0.926  1.00  0.00    -0.384 N 
ATOM     15  H3  UNL     1      46.400   8.131   1.552  1.00  0.00     0.160 HD
BRANCH  14  16
HETATM   16  C20 UNL     1      48.181   8.432   0.356  1.00  0.00     0.158 C 
BRANCH  16  17
HETATM   17  C21 UNL     1      49.159   8.161   1.435  1.00  0.00    -0.040 A 
HETATM   18  C22 UNL     1      50.453   7.780   1.142  1.00  0.00     0.011 A 
HETATM   19  C23 UNL     1      51.364   7.526   2.129  1.00  0.00     0.030 A 
HETATM   20  C24 UNL     1      51.035   7.637   3.468  1.00  0.00     0.049 A 
HETATM   21  C28 UNL     1      49.738   8.019   3.765  1.00  0.00     0.030 A 
HETATM   22  C29 UNL     1      48.823   8.274   2.768  1.00  0.00     0.011 A 
BRANCH  20  23
HETATM   23  N4  UNL     1      51.972   7.379   4.504  1.00  0.00    -0.192 N 
ATOM     24  H4  UNL     1      52.411   8.160   4.992  1.00  0.00     0.184 HD
BRANCH  23  25
HETATM   25  C25 UNL     1      52.271   6.182   4.835  1.00  0.00     0.682 A 
HETATM   26  N5  UNL     1      53.451   5.548   4.728  1.00  0.00    -0.200 N 
HETATM   27  C26 UNL     1      53.365   4.296   5.184  1.00  0.00     0.123 A 
ATOM     28  H5  UNL     1      54.300   5.968   4.348  1.00  0.00     0.183 HD
HETATM   29  C27 UNL     1      52.085   4.103   5.604  1.00  0.00     0.123 A 
HETATM   30  N6  UNL     1      51.435   5.252   5.386  1.00  0.00    -0.200 N 
ATOM     31  H6  UNL     1      50.451   5.411   5.603  1.00  0.00     0.183 HD
ENDBRANCH  23  25
ENDBRANCH  20  23
ENDBRANCH  16  17
ENDBRANCH  14  16
ENDBRANCH  13  14
BRANCH   1  32
HETATM   32  N1  UNL     1      45.740   9.369  -1.695  1.00  0.00    -0.113 N 
HETATM   33  O1  UNL     1      45.132   8.264  -1.542  1.00  0.00    -0.532 OA
HETATM   34  O2  UNL     1      46.319   9.593  -2.889  1.00  0.00    -0.532 OA
ENDBRANCH   1  32
BRANCH  10  35
HETATM   35  C10 UNL     1      45.956  13.476   3.486  1.00  0.00     0.168 C 
BRANCH  35  36
HETATM   36  C11 UNL     1      46.563  14.776   3.865  1.00  0.00    -0.040 A 
HETATM   37  C12 UNL     1      47.682  15.291   3.251  1.00  0.00     0.012 A 
HETATM   38  C13 UNL     1      48.196  16.506   3.649  1.00  0.00     0.043 A 
HETATM   39  C14 UNL     1      47.605  17.233   4.668  1.00  0.00     0.116 A 
HETATM   40  F1  UNL     1      48.077  18.433   5.089  1.00  0.00    -0.206 F 
HETATM   41  C15 UNL     1      46.491  16.731   5.287  1.00  0.00     0.043 A 
HETATM   42  C16 UNL     1      45.988  15.513   4.878  1.00  0.00     0.012 A 
ENDBRANCH  35  36
ENDBRANCH  10  35
TORSDOF 8
ENDMDL
MODEL 3
REMARK VINA RESULT: -9.128350511      1.431      1.992
REMARK  8 active torsions:
REMARK  status: ('A' for Active; 'I' for Inactive)
REMARK    1  A    between atoms: N1_2  and  C1_4 
REMARK    2  A    between atoms: N2_13  and  C10_14 
REMARK    3  A    between atoms: C10_14  and  C11_15 
REMARK    4  A    between atoms: C19_24  and  N3_25 
REMARK    5  A    between atoms: N3_25  and  C20_27 
REMARK    6  A    between atoms: C20_27  and  C21_28 
REMARK    7  A    between atoms: C24_31  and  N4_32 
REMARK    8  A    between atoms: N4_32  and  C25_34 
ROOT
HETATM    1  C1  UNL     1      46.010  10.231  -0.446  1.00  0.00     0.130 A 
HETATM    2  C2  UNL     1      45.422  11.491  -0.706  1.00  0.00     0.053 A 
HETATM    3  C3  UNL     1      45.348  12.461   0.243  1.00  0.00     0.006 A 
HETATM    4  C4  UNL     1      44.825  13.736   0.219  1.00  0.00     0.003 A 
HETATM    5  C5  UNL     1      44.200  14.477  -0.754  1.00  0.00     0.014 A 
HETATM    6  C6  UNL     1      43.745  15.776  -0.518  1.00  0.00     0.001 A 
HETATM    7  C7  UNL     1      43.946  16.299   0.738  1.00  0.00     0.002 A 
HETATM    8  C8  UNL     1      44.575  15.543   1.703  1.00  0.00     0.030 A 
HETATM    9  C9  UNL     1      45.028  14.255   1.474  1.00  0.00     0.046 A 
HETATM   10  N2  UNL     1      45.653  13.354   2.266  1.00  0.00    -0.341 N 
HETATM   11  C17 UNL     1      45.848  12.251   1.512  1.00  0.00     0.048 A 
HETATM   12  C18 UNL     1      46.418  11.025   1.755  1.00  0.00     0.062 A 
HETATM   13  C19 UNL     1      46.504  10.014   0.794  1.00  0.00     0.064 A 
ENDROOT
BRANCH  13  14
HETATM   14  N3  UNL     1      47.150   8.798   1.128  1.00  0.00    -0.384 N 
ATOM     15  H3  UNL     1      46.710   8.154   1.786  1.00  0.00     0.160 HD
BRANCH  14  16
HETATM   16  C20 UNL     1      48.451   8.459   0.534  1.00  0.00     0.158 C 
BRANCH  16  17
HETATM   17  C21 UNL     1      49.429   8.110   1.591  1.00  0.00    -0.040 A 
HETATM   18  C22 UNL     1      49.073   8.134   2.924  1.00  0.00     0.011 A 
HETATM   19  C23 UNL     1      49.968   7.816   3.907  1.00  0.00     0.030 A 
HETATM   20  C24 UNL     1      51.272   7.454   3.616  1.00  0.00     0.049 A 
HETATM   21  C28 UNL     1      51.631   7.428   2.280  1.00  0.00     0.030 A 
HETATM   22  C29 UNL     1      50.727   7.750   1.291  1.00  0.00     0.011 A 
BRANCH  20  23
HETATM   23  N4  UNL     1      52.211   7.118   4.627  1.00  0.00    -0.192 N 
ATOM     24  H4  UNL     1      52.787   7.851   5.042  1.00  0.00     0.184 HD
BRANCH  23  25
HETATM   25  C25 UNL     1      52.344   5.912   5.024  1.00  0.00     0.682 A 
HETATM   26  N5  UNL     1      51.456   5.132   5.664  1.00  0.00    -0.200 N 
HETATM   27  C26 UNL     1      51.970   3.924   5.911  1.00  0.00     0.123 A 
ATOM     28  H5  UNL     1      50.514   5.424   5.926  1.00  0.00     0.183 HD
HETATM   29  C27 UNL     1      53.238   3.914   5.417  1.00  0.00     0.123 A 
HETATM   30  N6  UNL     1      53.451   5.122   4.884  1.00  0.00    -0.200 N 
ATOM     31  H6  UNL     1      54.319   5.413   4.434  1.00  0.00     0.183 HD
ENDBRANCH  23  25
ENDBRANCH  20  23
ENDBRANCH  16  17
ENDBRANCH  14  16
ENDBRANCH  13  14
BRANCH   1  32
HETATM   32  N1  UNL     1      46.024   9.316  -1.509  1.00  0.00    -0.113 N 
HETATM   33  O1  UNL     1      46.582   9.662  -2.597  1.00  0.00    -0.532 OA
HETATM   34  O2  UNL     1      45.484   8.085  -1.458  1.00  0.00    -0.532 OA
ENDBRANCH   1  32
BRANCH  10  35
HETATM   35  C10 UNL     1      46.060  13.486   3.626  1.00  0.00     0.168 C 
BRANCH  35  36
HETATM   36  C11 UNL     1      46.561  14.829   4.011  1.00  0.00    -0.040 A 
HETATM   37  C12 UNL     1      45.956  15.612   4.968  1.00  0.00     0.012 A 
HETATM   38  C13 UNL     1      46.472  16.850   5.282  1.00  0.00     0.043 A 
HETATM   39  C14 UNL     1      47.603  17.335   4.646  1.00  0.00     0.116 A 
HETATM   40  F1  UNL     1      48.145  18.547   4.925  1.00  0.00    -0.206 F 
HETATM   41  C15 UNL     1      48.214  16.566   3.691  1.00  0.00     0.043 A 
HETATM   42  C16 UNL     1      47.685  15.328   3.388  1.00  0.00     0.012 A 
ENDBRANCH  35  36
ENDBRANCH  10  35
TORSDOF 8
ENDMDL
MODEL 4
REMARK VINA RESULT: -9.093286727      1.218      1.592
REMARK  8 active torsions:
REMARK  status: ('A' for Active; 'I' for Inactive)
REMARK    1  A    between atoms: N1_2  and  C1_4 
REMARK    2  A    between atoms: N2_13  and  C10_14 
REMARK    3  A    between atoms: C10_14  and  C11_15 
REMARK    4  A    between atoms: C19_24  and  N3_25 
REMARK    5  A    between atoms: N3_25  and  C20_27 
REMARK    6  A    between atoms: C20_27  and  C21_28 
REMARK    7  A    between atoms: C24_31  and  N4_32 
REMARK    8  A    between atoms: N4_32  and  C25_34 
ROOT
HETATM    1  C1  UNL     1      45.972  10.320  -0.511  1.00  0.00     0.130 A 
HETATM    2  C2  UNL     1      45.382  11.580  -0.766  1.00  0.00     0.053 A 
HETATM    3  C3  UNL     1      45.289  12.539   0.193  1.00  0.00     0.006 A 
HETATM    4  C4  UNL     1      44.760  13.812   0.174  1.00  0.00     0.003 A 
HETATM    5  C5  UNL     1      44.147  14.560  -0.801  1.00  0.00     0.014 A 
HETATM    6  C6  UNL     1      43.683  15.855  -0.558  1.00  0.00     0.001 A 
HETATM    7  C7  UNL     1      43.861  16.365   0.706  1.00  0.00     0.002 A 
HETATM    8  C8  UNL     1      44.478  15.602   1.673  1.00  0.00     0.030 A 
HETATM    9  C9  UNL     1      44.941  14.319   1.437  1.00  0.00     0.046 A 
HETATM   10  N2  UNL     1      45.558  13.411   2.229  1.00  0.00    -0.341 N 
HETATM   11  C17 UNL     1      45.771  12.318   1.467  1.00  0.00     0.048 A 
HETATM   12  C18 UNL     1      46.342  11.092   1.705  1.00  0.00     0.062 A 
HETATM   13  C19 UNL     1      46.448  10.092   0.734  1.00  0.00     0.064 A 
ENDROOT
BRANCH  13  14
HETATM   14  N3  UNL     1      47.095   8.875   1.066  1.00  0.00    -0.384 N 
ATOM     15  H3  UNL     1      46.557   8.009   1.104  1.00  0.00     0.160 HD
BRANCH  14  16
HETATM   16  C20 UNL     1      48.536   8.854   1.355  1.00  0.00     0.158 C 
BRANCH  16  17
HETATM   17  C21 UNL     1      48.836   7.866   2.417  1.00  0.00    -0.040 A 
HETATM   18  C22 UNL     1      50.124   7.412   2.623  1.00  0.00     0.011 A 
HETATM   19  C23 UNL     1      50.412   6.500   3.598  1.00  0.00     0.030 A 
HETATM   20  C24 UNL     1      49.431   5.985   4.427  1.00  0.00     0.049 A 
HETATM   21  C28 UNL     1      48.138   6.439   4.224  1.00  0.00     0.030 A 
HETATM   22  C29 UNL     1      47.851   7.358   3.239  1.00  0.00     0.011 A 
BRANCH  20  23
HETATM   23  N4  UNL     1      49.716   5.039   5.447  1.00  0.00    -0.192 N 
ATOM     24  H4  UNL     1      49.021   4.853   6.170  1.00  0.00     0.184 HD
BRANCH  23  25
HETATM   25  C25 UNL     1      50.831   4.416   5.470  1.00  0.00     0.682 A 
HETATM   26  N5  UNL     1      51.927   4.676   6.202  1.00  0.00    -0.200 N 
HETATM   27  C26 UNL     1      52.895   3.793   5.946  1.00  0.00     0.123 A 
ATOM     28  H5  UNL     1      52.008   5.447   6.866  1.00  0.00     0.183 HD
HETATM   29  C27 UNL     1      52.416   2.924   5.014  1.00  0.00     0.123 A 
HETATM   30  N6  UNL     1      51.167   3.313   4.735  1.00  0.00    -0.200 N 
ATOM     31  H6  UNL     1      50.551   2.850   4.067  1.00  0.00     0.183 HD
ENDBRANCH  23  25
ENDBRANCH  20  23
ENDBRANCH  16  17
ENDBRANCH  14  16
ENDBRANCH  13  14
BRANCH   1  32
HETATM   32  N1  UNL     1      46.007   9.417  -1.583  1.00  0.00    -0.113 N 
HETATM   33  O1  UNL     1      46.320   9.856  -2.734  1.00  0.00    -0.532 OA
HETATM   34  O2  UNL     1      45.731   8.105  -1.480  1.00  0.00    -0.532 OA
ENDBRANCH   1  32
BRANCH  10  35
HETATM   35  C10 UNL     1      45.943  13.531   3.596  1.00  0.00     0.168 C 
BRANCH  35  36
HETATM   36  C11 UNL     1      46.496  14.852   3.987  1.00  0.00    -0.040 A 
HETATM   37  C12 UNL     1      45.950  15.632   4.982  1.00  0.00     0.012 A 
HETATM   38  C13 UNL     1      46.513  16.849   5.299  1.00  0.00     0.043 A 
HETATM   39  C14 UNL     1      47.632  17.314   4.630  1.00  0.00     0.116 A 
HETATM   40  F1  UNL     1      48.218  18.506   4.911  1.00  0.00    -0.206 F 
HETATM   41  C15 UNL     1      48.185  16.548   3.638  1.00  0.00     0.043 A 
HETATM   42  C16 UNL     1      47.610  15.332   3.332  1.00  0.00     0.012 A 
ENDBRANCH  35  36
ENDBRANCH  10  35
TORSDOF 8
ENDMDL
MODEL 5
REMARK VINA RESULT: -9.066583412      1.201      1.711
REMARK  8 active torsions:
REMARK  status: ('A' for Active; 'I' for Inactive)
REMARK    1  A    between atoms: N1_2  and  C1_4 
REMARK    2  A    between atoms: N2_13  and  C10_14 
REMARK    3  A    between atoms: C10_14  and  C11_15 
REMARK    4  A    between atoms: C19_24  and  N3_25 
REMARK    5  A    between atoms: N3_25  and  C20_27 
REMARK    6  A    between atoms: C20_27  and  C21_28 
REMARK    7  A    between atoms: C24_31  and  N4_32 
REMARK    8  A    between atoms: N4_32  and  C25_34 
ROOT
HETATM    1  C1  UNL     1      45.747  10.423  -0.811  1.00  0.00     0.130 A 
HETATM    2  C2  UNL     1      45.186  11.711  -0.980  1.00  0.00     0.053 A 
HETATM    3  C3  UNL     1      45.167  12.625   0.027  1.00  0.00     0.006 A 
HETATM    4  C4  UNL     1      44.678  13.912   0.093  1.00  0.00     0.003 A 
HETATM    5  C5  UNL     1      44.045  14.725  -0.816  1.00  0.00     0.014 A 
HETATM    6  C6  UNL     1      43.633  16.019  -0.490  1.00  0.00     0.001 A 
HETATM    7  C7  UNL     1      43.884  16.462   0.786  1.00  0.00     0.002 A 
HETATM    8  C8  UNL     1      44.521  15.634   1.686  1.00  0.00     0.030 A 
HETATM    9  C9  UNL     1      44.932  14.352   1.369  1.00  0.00     0.046 A 
HETATM   10  N2  UNL     1      45.555  13.389   2.088  1.00  0.00    -0.341 N 
HETATM   11  C17 UNL     1      45.699  12.329   1.265  1.00  0.00     0.048 A 
HETATM   12  C18 UNL     1      46.241  11.076   1.418  1.00  0.00     0.062 A 
HETATM   13  C19 UNL     1      46.272  10.122   0.398  1.00  0.00     0.064 A 
ENDROOT
BRANCH  13  14
HETATM   14  N3  UNL     1      46.895   8.872   0.641  1.00  0.00    -0.384 N 
ATOM     15  H3  UNL     1      46.335   8.019   0.648  1.00  0.00     0.160 HD
BRANCH  14  16
HETATM   16  C20 UNL     1      48.342   8.797   0.883  1.00  0.00     0.158 C 
BRANCH  16  17
HETATM   17  C21 UNL     1      48.630   7.906   2.031  1.00  0.00    -0.040 A 
HETATM   18  C22 UNL     1      47.608   7.352   2.776  1.00  0.00     0.011 A 
HETATM   19  C23 UNL     1      47.862   6.531   3.837  1.00  0.00     0.030 A 
HETATM   20  C24 UNL     1      49.154   6.212   4.219  1.00  0.00     0.049 A 
HETATM   21  C28 UNL     1      50.181   6.766   3.474  1.00  0.00     0.030 A 
HETATM   22  C29 UNL     1      49.922   7.594   2.405  1.00  0.00     0.011 A 
BRANCH  20  23
HETATM   23  N4  UNL     1      49.433   5.358   5.318  1.00  0.00    -0.192 N 
ATOM     24  H4  UNL     1      48.776   5.309   6.098  1.00  0.00     0.184 HD
BRANCH  23  25
HETATM   25  C25 UNL     1      50.495   4.649   5.345  1.00  0.00     0.682 A 
HETATM   26  N5  UNL     1      50.762   3.506   4.692  1.00  0.00    -0.200 N 
HETATM   27  C26 UNL     1      51.989   3.064   4.981  1.00  0.00     0.123 A 
ATOM     28  H5  UNL     1      50.113   3.037   4.059  1.00  0.00     0.183 HD
HETATM   29  C27 UNL     1      52.544   3.949   5.854  1.00  0.00     0.123 A 
HETATM   30  N6  UNL     1      51.629   4.902   6.065  1.00  0.00    -0.200 N 
ATOM     31  H6  UNL     1      51.760   5.706   6.679  1.00  0.00     0.183 HD
ENDBRANCH  23  25
ENDBRANCH  20  23
ENDBRANCH  16  17
ENDBRANCH  14  16
ENDBRANCH  13  14
BRANCH   1  32
HETATM   32  N1  UNL     1      45.705   9.573  -1.925  1.00  0.00    -0.113 N 
HETATM   33  O1  UNL     1      46.000  10.053  -3.064  1.00  0.00    -0.532 OA
HETATM   34  O2  UNL     1      45.372   8.271  -1.874  1.00  0.00    -0.532 OA
ENDBRANCH   1  32
BRANCH  10  35
HETATM   35  C10 UNL     1      46.006  13.431   3.439  1.00  0.00     0.168 C 
BRANCH  35  36
HETATM   36  C11 UNL     1      46.522  14.746   3.896  1.00  0.00    -0.040 A 
HETATM   37  C12 UNL     1      45.961  15.455   4.934  1.00  0.00     0.012 A 
HETATM   38  C13 UNL     1      46.489  16.670   5.312  1.00  0.00     0.043 A 
HETATM   39  C14 UNL     1      47.589  17.204   4.661  1.00  0.00     0.116 A 
HETATM   40  F1  UNL     1      48.141  18.396   5.002  1.00  0.00    -0.206 F 
HETATM   41  C15 UNL     1      48.156  16.509   3.627  1.00  0.00     0.043 A 
HETATM   42  C16 UNL     1      47.615  15.293   3.260  1.00  0.00     0.012 A 
ENDBRANCH  35  36
ENDBRANCH  10  35
TORSDOF 8
ENDMDL
