MODEL 1
REMARK VINA RESULT: -8.672032797      0.000      0.000
REMARK  10 active torsions:
REMARK  status: ('A' for Active; 'I' for Inactive)
REMARK    1  A    between atoms: C3_5  and  C4_6 
REMARK    2  A    between atoms: C7_9  and  C8_10 
REMARK    3  A    between atoms: C10_14  and  C11_15 
REMARK    4  A    between atoms: C11_15  and  C12_16 
REMARK    5  A    between atoms: C12_16  and  C13_17 
REMARK    6  A    between atoms: C19_25  and  O1_26 
REMARK    7  A    between atoms: N4_31  and  C22_32 
REMARK    8  A    between atoms: C22_32  and  C23_33 
REMARK    9  A    between atoms: C23_33  and  O2_35 
REMARK   10  A    between atoms: C23_33  and  C25_37 
ROOT
HETATM    1  C4  UNL     1      48.491   7.111   2.017  1.00  0.00     0.017 A 
HETATM    2  C5  UNL     1      47.605   7.002   0.944  1.00  0.00     0.016 A 
HETATM    3  C6  UNL     1      46.852   8.044   0.482  1.00  0.00     0.017 A 
HETATM    4  C7  UNL     1      46.947   9.316   1.098  1.00  0.00     0.027 A 
HETATM    5  C19 UNL     1      47.804   9.426   2.148  1.00  0.00     0.100 A 
HETATM    6  C20 UNL     1      48.556   8.341   2.590  1.00  0.00     0.080 A 
HETATM    7 CL1  UNL     1      49.592   8.625   3.952  1.00  0.00    -0.080 Cl
ENDROOT
BRANCH   1   8
HETATM    8  C3  UNL     1      49.283   5.951   2.363  1.00  0.00     0.061 A 
HETATM    9  N1  UNL     1      48.768   4.798   2.881  1.00  0.00    -0.344 N 
HETATM   10  C2  UNL     1      49.707   3.867   3.056  1.00  0.00     0.079 A 
ATOM     11  H1  UNL     1      47.782   4.665   3.106  1.00  0.00     0.167 HD
HETATM   12  C1  UNL     1      49.443   2.462   3.570  1.00  0.00     0.089 C 
HETATM   13  N4  UNL     1      50.881   4.381   2.660  1.00  0.00    -0.342 N 
HETATM   14  C21 UNL     1      50.614   5.662   2.236  1.00  0.00     0.122 A 
BRANCH  13  15
HETATM   15  C22 UNL     1      52.145   3.704   2.649  1.00  0.00     0.172 C 
BRANCH  15  16
HETATM   16  C23 UNL     1      53.065   4.115   3.728  1.00  0.00     0.098 C 
HETATM   17  C24 UNL     1      54.422   3.489   3.584  1.00  0.00     0.053 C 
BRANCH  16  18
HETATM   18  O2  UNL     1      53.236   5.519   3.749  1.00  0.00    -0.384 OA
ATOM     19  H2  UNL     1      53.452   5.827   4.621  1.00  0.00     0.211 HD
ENDBRANCH  16  18
BRANCH  16  20
HETATM   20  C25 UNL     1      52.534   3.736   5.080  1.00  0.00    -0.023 A 
HETATM   21  C26 UNL     1      51.963   4.665   5.903  1.00  0.00     0.010 A 
HETATM   22  C27 UNL     1      51.493   4.277   7.137  1.00  0.00     0.001 A 
HETATM   23  C28 UNL     1      51.613   2.962   7.519  1.00  0.00     0.000 A 
HETATM   24  C29 UNL     1      52.184   2.013   6.711  1.00  0.00     0.001 A 
HETATM   25  C30 UNL     1      52.646   2.430   5.473  1.00  0.00     0.010 A 
ENDBRANCH  16  20
ENDBRANCH  15  16
ENDBRANCH  13  15
ENDBRANCH   1   8
BRANCH   5  26
HETATM   26  O1  UNL     1      47.923  10.663   2.797  1.00  0.00    -0.358 OA
ATOM     27  H1  UNL     1      48.665  10.810   3.372  1.00  0.00     0.217 HD
ENDBRANCH   5  26
BRANCH   4  28
HETATM   28  C8  UNL     1      46.191  10.415   0.529  1.00  0.00     0.062 A 
HETATM   29  C9  UNL     1      45.221  10.300  -0.471  1.00  0.00     0.120 A 
HETATM   30  N2  UNL     1      44.599  11.481  -0.608  1.00  0.00    -0.350 N 
HETATM   31  C10 UNL     1      45.147  12.342   0.270  1.00  0.00     0.105 A 
ATOM     32  H2  UNL     1      43.844  11.689  -1.262  1.00  0.00     0.166 HD
HETATM   33  N3  UNL     1      46.093  11.686   0.931  1.00  0.00    -0.341 N 
ATOM     34  H3  UNL     1      46.674  12.101   1.659  1.00  0.00     0.167 HD
BRANCH  31  35
HETATM   35  C11 UNL     1      44.671  13.716   0.532  1.00  0.00     0.049 C 
BRANCH  35  36
HETATM   36  C12 UNL     1      44.527  14.123   1.770  1.00  0.00     0.015 C 
BRANCH  36  37
HETATM   37  C13 UNL     1      45.354  15.146   2.371  1.00  0.00    -0.036 A 
HETATM   38  C14 UNL     1      45.097  16.481   2.389  1.00  0.00     0.011 A 
HETATM   39  C15 UNL     1      45.959  17.448   2.897  1.00  0.00     0.001 A 
HETATM   40  C16 UNL     1      47.182  17.056   3.435  1.00  0.00     0.000 A 
HETATM   41  C17 UNL     1      47.447  15.707   3.422  1.00  0.00     0.001 A 
HETATM   42  C18 UNL     1      46.601  14.762   2.925  1.00  0.00     0.011 A 
ENDBRANCH  36  37
ENDBRANCH  35  36
ENDBRANCH  31  35
ENDBRANCH   4  28
TORSDOF 10
ENDMDL
MODEL 2
REMARK VINA RESULT: -8.651026390      1.697      2.688
REMARK  10 active torsions:
REMARK  status: ('A' for Active; 'I' for Inactive)
REMARK    1  A    between atoms: C3_5  and  C4_6 
REMARK    2  A    between atoms: C7_9  and  C8_10 
REMARK    3  A    between atoms: C10_14  and  C11_15 
REMARK    4  A    between atoms: C11_15  and  C12_16 
REMARK    5  A    between atoms: C12_16  and  C13_17 
REMARK    6  A    between atoms: C19_25  and  O1_26 
REMARK    7  A    between atoms: N4_31  and  C22_32 
REMARK    8  A    between atoms: C22_32  and  C23_33 
REMARK    9  A    between atoms: C23_33  and  O2_35 
REMARK   10  A    between atoms: C23_33  and  C25_37 
ROOT
HETATM    1  C4  UNL     1      49.063   5.855   3.438  1.00  0.00     0.017 A 
HETATM    2  C5  UNL     1      47.720   6.221   3.546  1.00  0.00     0.016 A 
HETATM    3  C6  UNL     1      47.209   7.367   3.006  1.00  0.00     0.017 A 
HETATM    4  C7  UNL     1      48.052   8.255   2.295  1.00  0.00     0.027 A 
HETATM    5  C19 UNL     1      49.363   7.907   2.193  1.00  0.00     0.100 A 
HETATM    6  C20 UNL     1      49.848   6.730   2.756  1.00  0.00     0.080 A 
HETATM    7 CL1  UNL     1      51.545   6.426   2.563  1.00  0.00    -0.080 Cl
ENDROOT
BRANCH   1   8
HETATM    8  C3  UNL     1      49.466   4.581   3.993  1.00  0.00     0.061 A 
HETATM    9  N1  UNL     1      49.445   3.404   3.303  1.00  0.00    -0.344 N 
HETATM   10  C2  UNL     1      49.920   2.391   4.030  1.00  0.00     0.079 A 
ATOM     11  H1  UNL     1      49.108   3.310   2.346  1.00  0.00     0.167 HD
HETATM   12  C1  UNL     1      50.072   0.966   3.528  1.00  0.00     0.089 C 
HETATM   13  N4  UNL     1      50.268   2.872   5.234  1.00  0.00    -0.342 N 
HETATM   14  C21 UNL     1      49.986   4.218   5.205  1.00  0.00     0.122 A 
BRANCH  13  15
HETATM   15  C22 UNL     1      50.853   2.126   6.310  1.00  0.00     0.172 C 
BRANCH  15  16
HETATM   16  C23 UNL     1      52.204   2.575   6.699  1.00  0.00     0.098 C 
HETATM   17  C24 UNL     1      52.171   3.858   7.478  1.00  0.00     0.053 C 
BRANCH  16  18
HETATM   18  O2  UNL     1      52.860   1.604   7.491  1.00  0.00    -0.384 OA
ATOM     19  H2  UNL     1      53.804   1.694   7.434  1.00  0.00     0.211 HD
ENDBRANCH  16  18
BRANCH  16  20
HETATM   20  C25 UNL     1      53.078   2.798   5.499  1.00  0.00    -0.023 A 
HETATM   21  C26 UNL     1      53.437   4.057   5.107  1.00  0.00     0.010 A 
HETATM   22  C27 UNL     1      54.235   4.218   3.998  1.00  0.00     0.001 A 
HETATM   23  C28 UNL     1      54.654   3.108   3.303  1.00  0.00     0.000 A 
HETATM   24  C29 UNL     1      54.305   1.836   3.676  1.00  0.00     0.001 A 
HETATM   25  C30 UNL     1      53.502   1.702   4.798  1.00  0.00     0.010 A 
ENDBRANCH  16  20
ENDBRANCH  15  16
ENDBRANCH  13  15
ENDBRANCH   1   8
BRANCH   5  26
HETATM   26  O1  UNL     1      50.238   8.761   1.508  1.00  0.00    -0.358 OA
ATOM     27  H1  UNL     1      51.019   8.395   1.110  1.00  0.00     0.217 HD
ENDBRANCH   5  26
BRANCH   4  28
HETATM   28  C8  UNL     1      47.455   9.421   1.670  1.00  0.00     0.062 A 
HETATM   29  C9  UNL     1      46.457   9.395   0.693  1.00  0.00     0.120 A 
HETATM   30  N2  UNL     1      46.015  10.645   0.493  1.00  0.00    -0.350 N 
HETATM   31  C10 UNL     1      46.705  11.464   1.309  1.00  0.00     0.105 A 
ATOM     32  H2  UNL     1      45.284  10.926  -0.162  1.00  0.00     0.166 HD
HETATM   33  N3  UNL     1      47.557  10.713   1.996  1.00  0.00    -0.341 N 
ATOM     34  H3  UNL     1      48.210  11.078   2.689  1.00  0.00     0.167 HD
BRANCH  31  35
HETATM   35  C11 UNL     1      46.445  12.907   1.494  1.00  0.00     0.049 C 
BRANCH  35  36
HETATM   36  C12 UNL     1      46.595  13.442   2.681  1.00  0.00     0.015 C 
BRANCH  36  37
HETATM   37  C13 UNL     1      46.455  14.858   2.938  1.00  0.00    -0.036 A 
HETATM   38  C14 UNL     1      45.390  15.636   2.603  1.00  0.00     0.011 A 
HETATM   39  C15 UNL     1      45.326  17.013   2.783  1.00  0.00     0.001 A 
HETATM   40  C16 UNL     1      46.412  17.679   3.346  1.00  0.00     0.000 A 
HETATM   41  C17 UNL     1      47.491  16.898   3.689  1.00  0.00     0.001 A 
HETATM   42  C18 UNL     1      47.551  15.548   3.512  1.00  0.00     0.011 A 
ENDBRANCH  36  37
ENDBRANCH  35  36
ENDBRANCH  31  35
ENDBRANCH   4  28
TORSDOF 10
ENDMDL
MODEL 3
REMARK VINA RESULT: -8.632025863      0.092      1.105
REMARK  10 active torsions:
REMARK  status: ('A' for Active; 'I' for Inactive)
REMARK    1  A    between atoms: C3_5  and  C4_6 
REMARK    2  A    between atoms: C7_9  and  C8_10 
REMARK    3  A    between atoms: C10_14  and  C11_15 
REMARK    4  A    between atoms: C11_15  and  C12_16 
REMARK    5  A    between atoms: C12_16  and  C13_17 
REMARK    6  A    between atoms: C19_25  and  O1_26 
REMARK    7  A    between atoms: N4_31  and  C22_32 
REMARK    8  A    between atoms: C22_32  and  C23_33 
REMARK    9  A    between atoms: C23_33  and  O2_35 
REMARK   10  A    between atoms: C23_33  and  C25_37 
ROOT
HETATM    1  C4  UNL     1      48.482   7.147   1.991  1.00  0.00     0.017 A 
HETATM    2  C5  UNL     1      47.599   7.040   0.915  1.00  0.00     0.016 A 
HETATM    3  C6  UNL     1      46.842   8.081   0.459  1.00  0.00     0.017 A 
HETATM    4  C7  UNL     1      46.929   9.349   1.083  1.00  0.00     0.027 A 
HETATM    5  C19 UNL     1      47.783   9.458   2.135  1.00  0.00     0.100 A 
HETATM    6  C20 UNL     1      48.539   8.374   2.572  1.00  0.00     0.080 A 
HETATM    7 CL1  UNL     1      49.570   8.655   3.938  1.00  0.00    -0.080 Cl
ENDROOT
BRANCH   1   8
HETATM    8  C3  UNL     1      49.280   5.989   2.332  1.00  0.00     0.061 A 
HETATM    9  N1  UNL     1      48.775   4.845   2.877  1.00  0.00    -0.344 N 
HETATM   10  C2  UNL     1      49.715   3.912   3.040  1.00  0.00     0.079 A 
ATOM     11  H1  UNL     1      47.795   4.717   3.129  1.00  0.00     0.167 HD
HETATM   12  C1  UNL     1      49.461   2.515   3.579  1.00  0.00     0.089 C 
HETATM   13  N4  UNL     1      50.881   4.419   2.608  1.00  0.00    -0.342 N 
HETATM   14  C21 UNL     1      50.607   5.695   2.175  1.00  0.00     0.122 A 
BRANCH  13  15
HETATM   15  C22 UNL     1      52.142   3.738   2.575  1.00  0.00     0.172 C 
BRANCH  15  16
HETATM   16  C23 UNL     1      53.070   4.122   3.656  1.00  0.00     0.098 C 
HETATM   17  C24 UNL     1      54.447   3.561   3.446  1.00  0.00     0.053 C 
BRANCH  16  18
HETATM   18  O2  UNL     1      53.186   5.528   3.757  1.00  0.00    -0.384 OA
ATOM     19  H2  UNL     1      52.384   5.917   4.085  1.00  0.00     0.211 HD
ENDBRANCH  16  18
BRANCH  16  20
HETATM   20  C25 UNL     1      52.587   3.643   4.994  1.00  0.00    -0.023 A 
HETATM   21  C26 UNL     1      52.695   2.331   5.360  1.00  0.00     0.010 A 
HETATM   22  C27 UNL     1      52.234   1.932   6.593  1.00  0.00     0.001 A 
HETATM   23  C28 UNL     1      51.670   2.862   7.433  1.00  0.00     0.000 A 
HETATM   24  C29 UNL     1      51.550   4.184   7.088  1.00  0.00     0.001 A 
HETATM   25  C30 UNL     1      52.024   4.559   5.841  1.00  0.00     0.010 A 
ENDBRANCH  16  20
ENDBRANCH  15  16
ENDBRANCH  13  15
ENDBRANCH   1   8
BRANCH   5  26
HETATM   26  O1  UNL     1      47.894  10.691   2.792  1.00  0.00    -0.358 OA
ATOM     27  H1  UNL     1      47.534  11.466   2.377  1.00  0.00     0.217 HD
ENDBRANCH   5  26
BRANCH   4  28
HETATM   28  C8  UNL     1      46.168  10.449   0.518  1.00  0.00     0.062 A 
HETATM   29  C9  UNL     1      45.191  10.332  -0.474  1.00  0.00     0.120 A 
HETATM   30  N2  UNL     1      44.567  11.513  -0.607  1.00  0.00    -0.350 N 
HETATM   31  C10 UNL     1      45.121  12.374   0.266  1.00  0.00     0.105 A 
ATOM     32  H2  UNL     1      43.807  11.720  -1.255  1.00  0.00     0.166 HD
HETATM   33  N3  UNL     1      46.072  11.719   0.921  1.00  0.00    -0.341 N 
ATOM     34  H3  UNL     1      46.659  12.135   1.644  1.00  0.00     0.167 HD
BRANCH  31  35
HETATM   35  C11 UNL     1      44.647  13.749   0.532  1.00  0.00     0.049 C 
BRANCH  35  36
HETATM   36  C12 UNL     1      44.572  14.178   1.768  1.00  0.00     0.015 C 
BRANCH  36  37
HETATM   37  C13 UNL     1      45.489  15.144   2.330  1.00  0.00    -0.036 A 
HETATM   38  C14 UNL     1      46.677  14.871   2.934  1.00  0.00     0.011 A 
HETATM   39  C15 UNL     1      47.492  15.818   3.545  1.00  0.00     0.001 A 
HETATM   40  C16 UNL     1      47.097  17.153   3.556  1.00  0.00     0.000 A 
HETATM   41  C17 UNL     1      45.898  17.436   2.945  1.00  0.00     0.001 A 
HETATM   42  C18 UNL     1      45.101  16.507   2.347  1.00  0.00     0.011 A 
ENDBRANCH  36  37
ENDBRANCH  35  36
ENDBRANCH  31  35
ENDBRANCH   4  28
TORSDOF 10
ENDMDL
MODEL 4
REMARK VINA RESULT: -8.593680268      1.012      1.354
REMARK  10 active torsions:
REMARK  status: ('A' for Active; 'I' for Inactive)
REMARK    1  A    between atoms: C3_5  and  C4_6 
REMARK    2  A    between atoms: C7_9  and  C8_10 
REMARK    3  A    between atoms: C10_14  and  C11_15 
REMARK    4  A    between atoms: C11_15  and  C12_16 
REMARK    5  A    between atoms: C12_16  and  C13_17 
REMARK    6  A    between atoms: C19_25  and  O1_26 
REMARK    7  A    between atoms: N4_31  and  C22_32 
REMARK    8  A    between atoms: C22_32  and  C23_33 
REMARK    9  A    between atoms: C23_33  and  O2_35 
REMARK   10  A    between atoms: C23_33  and  C25_37 
ROOT
HETATM    1  C4  UNL     1      47.981   7.264   2.171  1.00  0.00     0.017 A 
HETATM    2  C5  UNL     1      47.020   7.190   1.160  1.00  0.00     0.016 A 
HETATM    3  C6  UNL     1      46.383   8.284   0.648  1.00  0.00     0.017 A 
HETATM    4  C7  UNL     1      46.684   9.577   1.142  1.00  0.00     0.027 A 
HETATM    5  C19 UNL     1      47.614   9.655   2.130  1.00  0.00     0.100 A 
HETATM    6  C20 UNL     1      48.244   8.517   2.627  1.00  0.00     0.080 A 
HETATM    7 CL1  UNL     1      49.393   8.767   3.902  1.00  0.00    -0.080 Cl
ENDROOT
BRANCH   1   8
HETATM    8  C3  UNL     1      48.634   6.039   2.577  1.00  0.00     0.061 A 
HETATM    9  N1  UNL     1      47.975   4.886   2.889  1.00  0.00    -0.344 N 
HETATM   10  C2  UNL     1      48.816   3.891   3.176  1.00  0.00     0.079 A 
ATOM     11  H1  UNL     1      46.959   4.796   2.901  1.00  0.00     0.167 HD
HETATM   12  C1  UNL     1      48.392   2.473   3.515  1.00  0.00     0.089 C 
HETATM   13  N4  UNL     1      50.068   4.363   3.064  1.00  0.00    -0.342 N 
HETATM   14  C21 UNL     1      49.950   5.683   2.697  1.00  0.00     0.122 A 
BRANCH  13  15
HETATM   15  C22 UNL     1      51.277   3.615   3.255  1.00  0.00     0.172 C 
BRANCH  15  16
HETATM   16  C23 UNL     1      51.940   3.849   4.553  1.00  0.00     0.098 C 
HETATM   17  C24 UNL     1      53.177   4.687   4.414  1.00  0.00     0.053 C 
BRANCH  16  18
HETATM   18  O2  UNL     1      51.074   4.503   5.460  1.00  0.00    -0.384 OA
ATOM     19  H2  UNL     1      50.183   4.181   5.379  1.00  0.00     0.211 HD
ENDBRANCH  16  18
BRANCH  16  20
HETATM   20  C25 UNL     1      52.339   2.559   5.209  1.00  0.00    -0.023 A 
HETATM   21  C26 UNL     1      53.641   2.148   5.231  1.00  0.00     0.010 A 
HETATM   22  C27 UNL     1      53.964   0.956   5.838  1.00  0.00     0.001 A 
HETATM   23  C28 UNL     1      52.968   0.200   6.408  1.00  0.00     0.000 A 
HETATM   24  C29 UNL     1      51.654   0.591   6.397  1.00  0.00     0.001 A 
HETATM   25  C30 UNL     1      51.357   1.797   5.781  1.00  0.00     0.010 A 
ENDBRANCH  16  20
ENDBRANCH  15  16
ENDBRANCH  13  15
ENDBRANCH   1   8
BRANCH   5  26
HETATM   26  O1  UNL     1      47.936  10.912   2.659  1.00  0.00    -0.358 OA
ATOM     27  H1  UNL     1      47.690  11.110   3.555  1.00  0.00     0.217 HD
ENDBRANCH   5  26
BRANCH   4  28
HETATM   28  C8  UNL     1      46.043  10.720   0.517  1.00  0.00     0.062 A 
HETATM   29  C9  UNL     1      45.240  10.674  -0.626  1.00  0.00     0.120 A 
HETATM   30  N2  UNL     1      44.666  11.874  -0.799  1.00  0.00    -0.350 N 
HETATM   31  C10 UNL     1      45.084  12.680   0.195  1.00  0.00     0.105 A 
ATOM     32  H2  UNL     1      44.026  12.130  -1.551  1.00  0.00     0.166 HD
HETATM   33  N3  UNL     1      45.904  11.972   0.962  1.00  0.00    -0.341 N 
ATOM     34  H3  UNL     1      46.371  12.339   1.791  1.00  0.00     0.167 HD
BRANCH  31  35
HETATM   35  C11 UNL     1      44.595  14.051   0.449  1.00  0.00     0.049 C 
BRANCH  35  36
HETATM   36  C12 UNL     1      44.424  14.457   1.684  1.00  0.00     0.015 C 
BRANCH  36  37
HETATM   37  C13 UNL     1      45.324  15.372   2.351  1.00  0.00    -0.036 A 
HETATM   38  C14 UNL     1      45.182  16.722   2.435  1.00  0.00     0.011 A 
HETATM   39  C15 UNL     1      46.113  17.583   3.007  1.00  0.00     0.001 A 
HETATM   40  C16 UNL     1      47.286  17.059   3.543  1.00  0.00     0.000 A 
HETATM   41  C17 UNL     1      47.434  15.695   3.463  1.00  0.00     0.001 A 
HETATM   42  C18 UNL     1      46.521  14.853   2.903  1.00  0.00     0.011 A 
ENDBRANCH  36  37
ENDBRANCH  35  36
ENDBRANCH  31  35
ENDBRANCH   4  28
TORSDOF 10
ENDMDL
MODEL 5
REMARK VINA RESULT: -8.492168886      1.117      2.061
REMARK  10 active torsions:
REMARK  status: ('A' for Active; 'I' for Inactive)
REMARK    1  A    between atoms: C3_5  and  C4_6 
REMARK    2  A    between atoms: C7_9  and  C8_10 
REMARK    3  A    between atoms: C10_14  and  C11_15 
REMARK    4  A    between atoms: C11_15  and  C12_16 
REMARK    5  A    between atoms: C12_16  and  C13_17 
REMARK    6  A    between atoms: C19_25  and  O1_26 
REMARK    7  A    between atoms: N4_31  and  C22_32 
REMARK    8  A    between atoms: C22_32  and  C23_33 
REMARK    9  A    between atoms: C23_33  and  O2_35 
REMARK   10  A    between atoms: C23_33  and  C25_37 
ROOT
HETATM    1  C4  UNL     1      48.392   7.181   2.387  1.00  0.00     0.017 A 
HETATM    2  C5  UNL     1      47.441   6.992   1.383  1.00  0.00     0.016 A 
HETATM    3  C6  UNL     1      46.707   8.010   0.842  1.00  0.00     0.017 A 
HETATM    4  C7  UNL     1      46.892   9.337   1.298  1.00  0.00     0.027 A 
HETATM    5  C19 UNL     1      47.812   9.527   2.281  1.00  0.00     0.100 A 
HETATM    6  C20 UNL     1      48.541   8.464   2.807  1.00  0.00     0.080 A 
HETATM    7 CL1  UNL     1      49.665   8.853   4.070  1.00  0.00    -0.080 Cl
ENDROOT
BRANCH   1   8
HETATM    8  C3  UNL     1      49.153   6.031   2.826  1.00  0.00     0.061 A 
HETATM    9  N1  UNL     1      49.622   5.060   1.991  1.00  0.00    -0.344 N 
HETATM   10  C2  UNL     1      50.340   4.144   2.645  1.00  0.00     0.079 A 
ATOM     11  H1  UNL     1      49.446   5.036   0.987  1.00  0.00     0.167 HD
HETATM   12  C1  UNL     1      51.037   2.964   1.990  1.00  0.00     0.089 C 
HETATM   13  N4  UNL     1      50.364   4.485   3.943  1.00  0.00    -0.342 N 
HETATM   14  C21 UNL     1      49.632   5.645   4.048  1.00  0.00     0.122 A 
BRANCH  13  15
HETATM   15  C22 UNL     1      51.052   3.790   4.991  1.00  0.00     0.172 C 
BRANCH  15  16
HETATM   16  C23 UNL     1      52.416   4.288   5.259  1.00  0.00     0.098 C 
HETATM   17  C24 UNL     1      52.588   5.719   4.840  1.00  0.00     0.053 C 
BRANCH  16  18
HETATM   18  O2  UNL     1      52.733   4.199   6.635  1.00  0.00    -0.384 OA
ATOM     19  H2  UNL     1      53.088   5.019   6.960  1.00  0.00     0.211 HD
ENDBRANCH  16  18
BRANCH  16  20
HETATM   20  C25 UNL     1      53.451   3.478   4.535  1.00  0.00    -0.023 A 
HETATM   21  C26 UNL     1      54.319   4.059   3.655  1.00  0.00     0.010 A 
HETATM   22  C27 UNL     1      55.250   3.279   3.008  1.00  0.00     0.001 A 
HETATM   23  C28 UNL     1      55.286   1.928   3.258  1.00  0.00     0.000 A 
HETATM   24  C29 UNL     1      54.424   1.322   4.136  1.00  0.00     0.001 A 
HETATM   25  C30 UNL     1      53.498   2.131   4.776  1.00  0.00     0.010 A 
ENDBRANCH  16  20
ENDBRANCH  15  16
ENDBRANCH  13  15
ENDBRANCH   1   8
BRANCH   5  26
HETATM   26  O1  UNL     1      48.020  10.823   2.772  1.00  0.00    -0.358 OA
ATOM     27  H1  UNL     1      47.743  11.563   2.245  1.00  0.00     0.217 HD
ENDBRANCH   5  26
BRANCH   4  28
HETATM   28  C8  UNL     1      46.150  10.400   0.643  1.00  0.00     0.062 A 
HETATM   29  C9  UNL     1      45.204  10.222  -0.370  1.00  0.00     0.120 A 
HETATM   30  N2  UNL     1      44.587  11.392  -0.594  1.00  0.00    -0.350 N 
HETATM   31  C10 UNL     1      45.116  12.307   0.241  1.00  0.00     0.105 A 
ATOM     32  H2  UNL     1      43.848  11.559  -1.277  1.00  0.00     0.166 HD
HETATM   33  N3  UNL     1      46.045  11.693   0.963  1.00  0.00    -0.341 N 
ATOM     34  H3  UNL     1      46.610  12.153   1.677  1.00  0.00     0.167 HD
BRANCH  31  35
HETATM   35  C11 UNL     1      44.636  13.695   0.406  1.00  0.00     0.049 C 
BRANCH  35  36
HETATM   36  C12 UNL     1      44.480  14.184   1.612  1.00  0.00     0.015 C 
BRANCH  36  37
HETATM   37  C13 UNL     1      45.400  15.122   2.214  1.00  0.00    -0.036 A 
HETATM   38  C14 UNL     1      46.591  14.820   2.798  1.00  0.00     0.011 A 
HETATM   39  C15 UNL     1      47.410  15.736   3.449  1.00  0.00     0.001 A 
HETATM   40  C16 UNL     1      47.016  17.069   3.525  1.00  0.00     0.000 A 
HETATM   41  C17 UNL     1      45.815  17.382   2.934  1.00  0.00     0.001 A 
HETATM   42  C18 UNL     1      45.013  16.483   2.297  1.00  0.00     0.011 A 
ENDBRANCH  36  37
ENDBRANCH  35  36
ENDBRANCH  31  35
ENDBRANCH   4  28
TORSDOF 10
ENDMDL
