MODEL 1
REMARK VINA RESULT: -8.824572010      0.000      0.000
REMARK  10 active torsions:
REMARK  status: ('A' for Active; 'I' for Inactive)
REMARK    1  A    between atoms: C3_5  and  C4_6 
REMARK    2  A    between atoms: C4_6  and  C5_7 
REMARK    3  A    between atoms: C5_7  and  O1_8 
REMARK    4  A    between atoms: N2_10  and  O2_12 
REMARK    5  A    between atoms: C8_16  and  C9_17 
REMARK    6  A    between atoms: N3_20  and  C12_21 
REMARK    7  A    between atoms: C12_21  and  C13_22 
REMARK    8  A    between atoms: C13_22  and  C14_23 
REMARK    9  A    between atoms: C17_26  and  N4_27 
REMARK   10  A    between atoms: N4_27  and  C18_29 
ROOT
HETATM    1  C9  UNL     1      49.607   6.668   2.869  1.00  0.00    -0.003 C 
HETATM    2  C10 UNL     1      49.997   6.443   1.423  1.00  0.00     0.070 C 
HETATM    3  C11 UNL     1      48.571   6.427   0.827  1.00  0.00     0.281 C 
HETATM    4  N3  UNL     1      47.899   7.490   1.579  1.00  0.00     0.126 N 
HETATM    5  C26 UNL     1      48.269   7.233   2.977  1.00  0.00     0.435 C 
HETATM    6  F1  UNL     1      48.246   8.552   3.539  1.00  0.00    -0.211 F 
ENDROOT
BRANCH   1   7
HETATM    7  C8  UNL     1      50.317   5.900   3.845  1.00  0.00    -0.007 A 
HETATM    8  C2  UNL     1      51.511   6.273   4.407  1.00  0.00     0.016 A 
HETATM    9  C1  UNL     1      51.995   7.657   4.254  1.00  0.00     0.069 C 
HETATM   10  N1  UNL     1      52.204   5.460   5.221  1.00  0.00    -0.362 N 
HETATM   11  C3  UNL     1      51.755   4.207   5.544  1.00  0.00     0.017 A 
ATOM     12  H1  UNL     1      53.090   5.784   5.610  1.00  0.00     0.165 HD
HETATM   13  C6  UNL     1      50.605   3.762   5.039  1.00  0.00     0.026 A 
HETATM   14  C7  UNL     1      49.890   4.602   4.197  1.00  0.00     0.016 A 
BRANCH  11  15
HETATM   15  C4  UNL     1      52.560   3.398   6.514  1.00  0.00     0.142 C 
BRANCH  15  16
HETATM   16  C5  UNL     1      51.883   3.614   7.849  1.00  0.00     0.140 C 
HETATM   17  N2  UNL     1      51.170   2.720   8.375  1.00  0.00    -0.251 N 
ATOM     18  H2  UNL     1      50.740   2.926   9.276  1.00  0.00     0.196 HD
BRANCH  16  19
HETATM   19  O1  UNL     1      52.077   4.827   8.480  1.00  0.00    -0.348 OA
ATOM     20  H1  UNL     1      51.519   5.553   8.226  1.00  0.00     0.219 HD
ENDBRANCH  16  19
BRANCH  17  21
HETATM   21  O2  UNL     1      50.936   1.501   7.825  1.00  0.00    -0.288 OA
ATOM     22  H2  UNL     1      50.145   0.993   7.962  1.00  0.00     0.244 HD
ENDBRANCH  17  21
ENDBRANCH  15  16
ENDBRANCH  11  15
ENDBRANCH   1   7
BRANCH   4  23
HETATM   23  C12 UNL     1      48.527   8.768   1.201  1.00  0.00     0.277 C 
BRANCH  23  24
HETATM   24  C13 UNL     1      47.560   9.611   0.425  1.00  0.00     0.035 C 
BRANCH  24  25
HETATM   25  C14 UNL     1      46.822  10.638   1.214  1.00  0.00    -0.012 C 
HETATM   26  C15 UNL     1      47.893  11.510   1.884  1.00  0.00     0.010 C 
HETATM   27  C16 UNL     1      47.293  12.521   2.809  1.00  0.00     0.052 C 
HETATM   28  C17 UNL     1      46.242  13.288   2.088  1.00  0.00    -0.018 C 
HETATM   29  C24 UNL     1      45.199  12.428   1.486  1.00  0.00     0.052 C 
HETATM   30  C25 UNL     1      45.931  11.550   0.431  1.00  0.00     0.010 C 
BRANCH  28  31
HETATM   31  N4  UNL     1      45.786  14.461   2.696  1.00  0.00    -0.392 N 
ATOM     32  H4  UNL     1      44.810  14.732   2.580  1.00  0.00     0.159 HD
BRANCH  31  33
HETATM   33  C18 UNL     1      46.631  15.274   3.460  1.00  0.00     0.081 C 
HETATM   34  C19 UNL     1      46.508  15.274   4.947  1.00  0.00     0.025 C 
HETATM   35  C20 UNL     1      46.650  16.654   5.562  1.00  0.00     0.002 C 
HETATM   36  C21 UNL     1      47.766  17.415   4.887  1.00  0.00     0.000 C 
HETATM   37  C22 UNL     1      47.501  17.556   3.419  1.00  0.00     0.002 C 
HETATM   38  C23 UNL     1      46.311  16.728   3.031  1.00  0.00     0.025 C 
ENDBRANCH  31  33
ENDBRANCH  28  31
ENDBRANCH  24  25
ENDBRANCH  23  24
ENDBRANCH   4  23
TORSDOF 10
ENDMDL
MODEL 2
REMARK VINA RESULT: -8.582087245      4.279     10.516
REMARK  10 active torsions:
REMARK  status: ('A' for Active; 'I' for Inactive)
REMARK    1  A    between atoms: C3_5  and  C4_6 
REMARK    2  A    between atoms: C4_6  and  C5_7 
REMARK    3  A    between atoms: C5_7  and  O1_8 
REMARK    4  A    between atoms: N2_10  and  O2_12 
REMARK    5  A    between atoms: C8_16  and  C9_17 
REMARK    6  A    between atoms: N3_20  and  C12_21 
REMARK    7  A    between atoms: C12_21  and  C13_22 
REMARK    8  A    between atoms: C13_22  and  C14_23 
REMARK    9  A    between atoms: C17_26  and  N4_27 
REMARK   10  A    between atoms: N4_27  and  C18_29 
ROOT
HETATM    1  C9  UNL     1      46.088  11.817   1.019  1.00  0.00    -0.003 C 
HETATM    2  C10 UNL     1      44.862  10.928   0.978  1.00  0.00     0.070 C 
HETATM    3  C11 UNL     1      45.192  10.188  -0.339  1.00  0.00     0.281 C 
HETATM    4  N3  UNL     1      46.638   9.977  -0.233  1.00  0.00     0.126 N 
HETATM    5  C26 UNL     1      47.162  11.280   0.196  1.00  0.00     0.435 C 
HETATM    6  F1  UNL     1      48.325  10.901   0.945  1.00  0.00    -0.211 F 
ENDROOT
BRANCH   1   7
HETATM    7  C8  UNL     1      45.871  13.179   1.402  1.00  0.00    -0.007 A 
HETATM    8  C2  UNL     1      46.326  13.739   2.569  1.00  0.00     0.016 A 
HETATM    9  C1  UNL     1      47.339  13.034   3.375  1.00  0.00     0.069 C 
HETATM   10  N1  UNL     1      45.988  14.983   2.945  1.00  0.00    -0.362 N 
HETATM   11  C3  UNL     1      45.171  15.771   2.181  1.00  0.00     0.017 A 
ATOM     12  H1  UNL     1      46.351  15.350   3.825  1.00  0.00     0.165 HD
HETATM   13  C6  UNL     1      44.679  15.305   1.033  1.00  0.00     0.026 A 
HETATM   14  C7  UNL     1      45.028  14.020   0.645  1.00  0.00     0.016 A 
BRANCH  11  15
HETATM   15  C4  UNL     1      44.904  17.169   2.646  1.00  0.00     0.142 C 
BRANCH  15  16
HETATM   16  C5  UNL     1      45.495  17.231   4.037  1.00  0.00     0.140 C 
HETATM   17  N2  UNL     1      46.703  17.527   4.224  1.00  0.00    -0.251 N 
ATOM     18  H2  UNL     1      47.043  17.550   5.185  1.00  0.00     0.196 HD
BRANCH  16  19
HETATM   19  O1  UNL     1      44.660  16.955   5.103  1.00  0.00    -0.348 OA
ATOM     20  H1  UNL     1      43.998  17.599   5.324  1.00  0.00     0.219 HD
ENDBRANCH  16  19
BRANCH  17  21
HETATM   21  O2  UNL     1      47.585  17.817   3.234  1.00  0.00    -0.288 OA
ATOM     22  H2  UNL     1      48.470  17.473   3.183  1.00  0.00     0.244 HD
ENDBRANCH  17  21
ENDBRANCH  15  16
ENDBRANCH  11  15
ENDBRANCH   1   7
BRANCH   4  23
HETATM   23  C12 UNL     1      46.871   9.038   0.878  1.00  0.00     0.277 C 
BRANCH  23  24
HETATM   24  C13 UNL     1      47.797   7.942   0.442  1.00  0.00     0.035 C 
BRANCH  24  25
HETATM   25  C14 UNL     1      48.696   7.399   1.500  1.00  0.00    -0.012 C 
HETATM   26  C15 UNL     1      48.291   8.100   2.805  1.00  0.00     0.010 C 
HETATM   27  C16 UNL     1      49.193   7.736   3.939  1.00  0.00     0.052 C 
HETATM   28  C17 UNL     1      49.284   6.255   4.043  1.00  0.00    -0.018 C 
HETATM   29  C24 UNL     1      49.716   5.605   2.787  1.00  0.00     0.052 C 
HETATM   30  C25 UNL     1      48.609   5.925   1.742  1.00  0.00     0.010 C 
BRANCH  28  31
HETATM   31  N4  UNL     1      49.838   5.736   5.218  1.00  0.00    -0.392 N 
ATOM     32  H4  UNL     1      49.362   5.900   6.104  1.00  0.00     0.159 HD
BRANCH  31  33
HETATM   33  C18 UNL     1      51.027   4.998   5.211  1.00  0.00     0.081 C 
HETATM   34  C19 UNL     1      51.249   3.949   6.248  1.00  0.00     0.025 C 
HETATM   35  C20 UNL     1      52.672   3.917   6.775  1.00  0.00     0.002 C 
HETATM   36  C21 UNL     1      53.653   4.091   5.641  1.00  0.00     0.000 C 
HETATM   37  C22 UNL     1      53.421   5.390   4.932  1.00  0.00     0.002 C 
HETATM   38  C23 UNL     1      52.160   6.031   5.434  1.00  0.00     0.025 C 
ENDBRANCH  31  33
ENDBRANCH  28  31
ENDBRANCH  24  25
ENDBRANCH  23  24
ENDBRANCH   4  23
TORSDOF 10
ENDMDL
MODEL 3
REMARK VINA RESULT: -8.472283388      0.808      1.598
REMARK  10 active torsions:
REMARK  status: ('A' for Active; 'I' for Inactive)
REMARK    1  A    between atoms: C3_5  and  C4_6 
REMARK    2  A    between atoms: C4_6  and  C5_7 
REMARK    3  A    between atoms: C5_7  and  O1_8 
REMARK    4  A    between atoms: N2_10  and  O2_12 
REMARK    5  A    between atoms: C8_16  and  C9_17 
REMARK    6  A    between atoms: N3_20  and  C12_21 
REMARK    7  A    between atoms: C12_21  and  C13_22 
REMARK    8  A    between atoms: C13_22  and  C14_23 
REMARK    9  A    between atoms: C17_26  and  N4_27 
REMARK   10  A    between atoms: N4_27  and  C18_29 
ROOT
HETATM    1  C9  UNL     1      49.780   6.712   2.687  1.00  0.00    -0.003 C 
HETATM    2  C10 UNL     1      50.096   6.811   1.209  1.00  0.00     0.070 C 
HETATM    3  C11 UNL     1      48.662   6.585   0.679  1.00  0.00     0.281 C 
HETATM    4  N3  UNL     1      47.846   7.344   1.630  1.00  0.00     0.126 N 
HETATM    5  C26 UNL     1      48.367   6.950   2.946  1.00  0.00     0.435 C 
HETATM    6  F1  UNL     1      48.117   8.126   3.729  1.00  0.00    -0.211 F 
ENDROOT
BRANCH   1   7
HETATM    7  C8  UNL     1      50.705   5.967   3.485  1.00  0.00    -0.007 A 
HETATM    8  C2  UNL     1      50.439   4.743   4.043  1.00  0.00     0.016 A 
HETATM    9  C1  UNL     1      49.265   3.972   3.597  1.00  0.00     0.069 C 
HETATM   10  N1  UNL     1      51.290   4.143   4.891  1.00  0.00    -0.362 N 
HETATM   11  C3  UNL     1      52.481   4.717   5.246  1.00  0.00     0.017 A 
ATOM     12  H1  UNL     1      51.042   3.233   5.282  1.00  0.00     0.165 HD
HETATM   13  C6  UNL     1      52.818   5.909   4.754  1.00  0.00     0.026 A 
HETATM   14  C7  UNL     1      51.939   6.529   3.879  1.00  0.00     0.016 A 
BRANCH  11  15
HETATM   15  C4  UNL     1      53.397   3.943   6.143  1.00  0.00     0.142 C 
BRANCH  15  16
HETATM   16  C5  UNL     1      52.572   3.653   7.377  1.00  0.00     0.140 C 
HETATM   17  N2  UNL     1      52.586   2.520   7.924  1.00  0.00    -0.251 N 
ATOM     18  H2  UNL     1      52.007   2.385   8.752  1.00  0.00     0.196 HD
BRANCH  16  19
HETATM   19  O1  UNL     1      51.800   4.677   7.891  1.00  0.00    -0.348 OA
ATOM     20  H1  UNL     1      50.897   4.739   7.602  1.00  0.00     0.219 HD
ENDBRANCH  16  19
BRANCH  17  21
HETATM   21  O2  UNL     1      53.321   1.465   7.488  1.00  0.00    -0.288 OA
ATOM     22  H2  UNL     1      53.002   0.571   7.438  1.00  0.00     0.244 HD
ENDBRANCH  17  21
ENDBRANCH  15  16
ENDBRANCH  11  15
ENDBRANCH   1   7
BRANCH   4  23
HETATM   23  C12 UNL     1      48.168   8.771   1.455  1.00  0.00     0.277 C 
BRANCH  23  24
HETATM   24  C13 UNL     1      47.035   9.478   0.774  1.00  0.00     0.035 C 
BRANCH  24  25
HETATM   25  C14 UNL     1      46.945  10.944   1.026  1.00  0.00    -0.012 C 
HETATM   26  C15 UNL     1      45.448  11.285   1.030  1.00  0.00     0.010 C 
HETATM   27  C16 UNL     1      45.209  12.755   1.158  1.00  0.00     0.052 C 
HETATM   28  C17 UNL     1      45.959  13.278   2.331  1.00  0.00    -0.018 C 
HETATM   29  C24 UNL     1      47.406  12.974   2.284  1.00  0.00     0.052 C 
HETATM   30  C25 UNL     1      47.514  11.422   2.324  1.00  0.00     0.010 C 
BRANCH  28  31
HETATM   31  N4  UNL     1      45.622  14.559   2.777  1.00  0.00    -0.392 N 
ATOM     32  H4  UNL     1      44.694  14.928   2.570  1.00  0.00     0.159 HD
BRANCH  31  33
HETATM   33  C18 UNL     1      46.521  15.351   3.501  1.00  0.00     0.081 C 
HETATM   34  C19 UNL     1      46.445  15.380   4.990  1.00  0.00     0.025 C 
HETATM   35  C20 UNL     1      46.660  16.763   5.577  1.00  0.00     0.002 C 
HETATM   36  C21 UNL     1      47.782  17.468   4.854  1.00  0.00     0.000 C 
HETATM   37  C22 UNL     1      47.478  17.596   3.393  1.00  0.00     0.002 C 
HETATM   38  C23 UNL     1      46.244  16.809   3.056  1.00  0.00     0.025 C 
ENDBRANCH  31  33
ENDBRANCH  28  31
ENDBRANCH  24  25
ENDBRANCH  23  24
ENDBRANCH   4  23
TORSDOF 10
ENDMDL
MODEL 4
REMARK VINA RESULT: -8.398630943      4.192     10.375
REMARK  10 active torsions:
REMARK  status: ('A' for Active; 'I' for Inactive)
REMARK    1  A    between atoms: C3_5  and  C4_6 
REMARK    2  A    between atoms: C4_6  and  C5_7 
REMARK    3  A    between atoms: C5_7  and  O1_8 
REMARK    4  A    between atoms: N2_10  and  O2_12 
REMARK    5  A    between atoms: C8_16  and  C9_17 
REMARK    6  A    between atoms: N3_20  and  C12_21 
REMARK    7  A    between atoms: C12_21  and  C13_22 
REMARK    8  A    between atoms: C13_22  and  C14_23 
REMARK    9  A    between atoms: C17_26  and  N4_27 
REMARK   10  A    between atoms: N4_27  and  C18_29 
ROOT
HETATM    1  C9  UNL     1      46.044  11.990   0.927  1.00  0.00    -0.003 C 
HETATM    2  C10 UNL     1      44.763  11.212   0.706  1.00  0.00     0.070 C 
HETATM    3  C11 UNL     1      45.134  10.595  -0.662  1.00  0.00     0.281 C 
HETATM    4  N3  UNL     1      46.549  10.257  -0.487  1.00  0.00     0.126 N 
HETATM    5  C26 UNL     1      47.134  11.460   0.120  1.00  0.00     0.435 C 
HETATM    6  F1  UNL     1      48.207  10.910   0.896  1.00  0.00    -0.211 F 
ENDROOT
BRANCH   1   7
HETATM    7  C8  UNL     1      45.900  13.315   1.447  1.00  0.00    -0.007 A 
HETATM    8  C2  UNL     1      46.425  13.743   2.639  1.00  0.00     0.016 A 
HETATM    9  C1  UNL     1      47.441  12.927   3.329  1.00  0.00     0.069 C 
HETATM   10  N1  UNL     1      46.154  14.957   3.147  1.00  0.00    -0.362 N 
HETATM   11  C3  UNL     1      45.339  15.845   2.498  1.00  0.00     0.017 A 
ATOM     12  H1  UNL     1      46.567  15.224   4.040  1.00  0.00     0.165 HD
HETATM   13  C6  UNL     1      44.782  15.510   1.334  1.00  0.00     0.026 A 
HETATM   14  C7  UNL     1      45.061  14.256   0.811  1.00  0.00     0.016 A 
BRANCH  11  15
HETATM   15  C4  UNL     1      45.150  17.201   3.105  1.00  0.00     0.142 C 
BRANCH  15  16
HETATM   16  C5  UNL     1      45.553  17.033   4.552  1.00  0.00     0.140 C 
HETATM   17  N2  UNL     1      46.598  17.566   5.008  1.00  0.00    -0.251 N 
ATOM     18  H2  UNL     1      46.817  17.416   5.992  1.00  0.00     0.196 HD
BRANCH  16  19
HETATM   19  O1  UNL     1      44.733  16.276   5.366  1.00  0.00    -0.348 OA
ATOM     20  H1  UNL     1      43.832  16.560   5.473  1.00  0.00     0.219 HD
ENDBRANCH  16  19
BRANCH  17  21
HETATM   21  O2  UNL     1      47.452  18.329   4.279  1.00  0.00    -0.288 OA
ATOM     22  H2  UNL     1      48.264  18.695   4.611  1.00  0.00     0.244 HD
ENDBRANCH  17  21
ENDBRANCH  15  16
ENDBRANCH  11  15
ENDBRANCH   1   7
BRANCH   4  23
HETATM   23  C12 UNL     1      46.631   9.188   0.523  1.00  0.00     0.277 C 
BRANCH  23  24
HETATM   24  C13 UNL     1      47.613   8.142   0.091  1.00  0.00     0.035 C 
BRANCH  24  25
HETATM   25  C14 UNL     1      48.396   7.501   1.186  1.00  0.00    -0.012 C 
HETATM   26  C15 UNL     1      49.828   8.038   1.056  1.00  0.00     0.010 C 
HETATM   27  C16 UNL     1      50.761   7.387   2.027  1.00  0.00     0.052 C 
HETATM   28  C17 UNL     1      50.192   7.483   3.398  1.00  0.00    -0.018 C 
HETATM   29  C24 UNL     1      48.828   6.921   3.508  1.00  0.00     0.052 C 
HETATM   30  C25 UNL     1      47.935   7.793   2.579  1.00  0.00     0.010 C 
BRANCH  28  31
HETATM   31  N4  UNL     1      51.054   7.197   4.462  1.00  0.00    -0.392 N 
ATOM     32  H4  UNL     1      51.238   7.919   5.158  1.00  0.00     0.159 HD
BRANCH  31  33
HETATM   33  C18 UNL     1      51.673   5.949   4.597  1.00  0.00     0.081 C 
HETATM   34  C19 UNL     1      51.296   5.060   5.734  1.00  0.00     0.025 C 
HETATM   35  C20 UNL     1      52.480   4.342   6.354  1.00  0.00     0.002 C 
HETATM   36  C21 UNL     1      53.417   3.851   5.276  1.00  0.00     0.000 C 
HETATM   37  C22 UNL     1      53.915   4.992   4.443  1.00  0.00     0.002 C 
HETATM   38  C23 UNL     1      53.179   6.250   4.804  1.00  0.00     0.025 C 
ENDBRANCH  31  33
ENDBRANCH  28  31
ENDBRANCH  24  25
ENDBRANCH  23  24
ENDBRANCH   4  23
TORSDOF 10
ENDMDL
MODEL 5
REMARK VINA RESULT: -8.330882092      4.240     10.725
REMARK  10 active torsions:
REMARK  status: ('A' for Active; 'I' for Inactive)
REMARK    1  A    between atoms: C3_5  and  C4_6 
REMARK    2  A    between atoms: C4_6  and  C5_7 
REMARK    3  A    between atoms: C5_7  and  O1_8 
REMARK    4  A    between atoms: N2_10  and  O2_12 
REMARK    5  A    between atoms: C8_16  and  C9_17 
REMARK    6  A    between atoms: N3_20  and  C12_21 
REMARK    7  A    between atoms: C12_21  and  C13_22 
REMARK    8  A    between atoms: C13_22  and  C14_23 
REMARK    9  A    between atoms: C17_26  and  N4_27 
REMARK   10  A    between atoms: N4_27  and  C18_29 
ROOT
HETATM    1  C9  UNL     1      46.190  11.714   1.168  1.00  0.00    -0.003 C 
HETATM    2  C10 UNL     1      44.973  10.861   0.875  1.00  0.00     0.070 C 
HETATM    3  C11 UNL     1      45.541  10.112  -0.351  1.00  0.00     0.281 C 
HETATM    4  N3  UNL     1      46.930   9.859   0.044  1.00  0.00     0.126 N 
HETATM    5  C26 UNL     1      47.394  11.146   0.577  1.00  0.00     0.435 C 
HETATM    6  F1  UNL     1      48.369  10.734   1.543  1.00  0.00    -0.211 F 
ENDROOT
BRANCH   1   7
HETATM    7  C8  UNL     1      45.940  13.082   1.506  1.00  0.00    -0.007 A 
HETATM    8  C2  UNL     1      46.347  13.681   2.671  1.00  0.00     0.016 A 
HETATM    9  C1  UNL     1      47.343  13.015   3.529  1.00  0.00     0.069 C 
HETATM   10  N1  UNL     1      45.977  14.929   3.002  1.00  0.00    -0.362 N 
HETATM   11  C3  UNL     1      45.174  15.683   2.190  1.00  0.00     0.017 A 
ATOM     12  H1  UNL     1      46.304  15.326   3.883  1.00  0.00     0.165 HD
HETATM   13  C6  UNL     1      44.728  15.178   1.040  1.00  0.00     0.026 A 
HETATM   14  C7  UNL     1      45.110  13.889   0.699  1.00  0.00     0.016 A 
BRANCH  11  15
HETATM   15  C4  UNL     1      44.870  17.088   2.608  1.00  0.00     0.142 C 
BRANCH  15  16
HETATM   16  C5  UNL     1      45.462  17.214   3.994  1.00  0.00     0.140 C 
HETATM   17  N2  UNL     1      46.669  17.522   4.166  1.00  0.00    -0.251 N 
ATOM     18  H2  UNL     1      47.010  17.589   5.125  1.00  0.00     0.196 HD
BRANCH  16  19
HETATM   19  O1  UNL     1      44.629  16.983   5.072  1.00  0.00    -0.348 OA
ATOM     20  H1  UNL     1      44.687  17.579   5.810  1.00  0.00     0.219 HD
ENDBRANCH  16  19
BRANCH  17  21
HETATM   21  O2  UNL     1      47.550  17.771   3.163  1.00  0.00    -0.288 OA
ATOM     22  H2  UNL     1      47.353  17.676   2.238  1.00  0.00     0.244 HD
ENDBRANCH  17  21
ENDBRANCH  15  16
ENDBRANCH  11  15
ENDBRANCH   1   7
BRANCH   4  23
HETATM   23  C12 UNL     1      46.906   8.914   1.174  1.00  0.00     0.277 C 
BRANCH  23  24
HETATM   24  C13 UNL     1      47.835   7.767   0.909  1.00  0.00     0.035 C 
BRANCH  24  25
HETATM   25  C14 UNL     1      48.930   7.582   1.903  1.00  0.00    -0.012 C 
HETATM   26  C15 UNL     1      48.244   7.394   3.263  1.00  0.00     0.010 C 
HETATM   27  C16 UNL     1      49.232   7.313   4.382  1.00  0.00     0.052 C 
HETATM   28  C17 UNL     1      50.255   6.280   4.064  1.00  0.00    -0.018 C 
HETATM   29  C24 UNL     1      50.932   6.505   2.768  1.00  0.00     0.052 C 
HETATM   30  C25 UNL     1      49.820   6.399   1.686  1.00  0.00     0.010 C 
BRANCH  28  31
HETATM   31  N4  UNL     1      51.077   5.860   5.115  1.00  0.00    -0.392 N 
ATOM     32  H4  UNL     1      51.945   6.362   5.295  1.00  0.00     0.159 HD
BRANCH  31  33
HETATM   33  C18 UNL     1      50.741   4.769   5.925  1.00  0.00     0.081 C 
HETATM   34  C19 UNL     1      51.724   4.268   6.930  1.00  0.00     0.025 C 
HETATM   35  C20 UNL     1      51.767   2.754   7.024  1.00  0.00     0.002 C 
HETATM   36  C21 UNL     1      50.369   2.187   6.971  1.00  0.00     0.000 C 
HETATM   37  C22 UNL     1      49.682   2.580   5.700  1.00  0.00     0.002 C 
HETATM   38  C23 UNL     1      50.516   3.582   4.956  1.00  0.00     0.025 C 
ENDBRANCH  31  33
ENDBRANCH  28  31
ENDBRANCH  24  25
ENDBRANCH  23  24
ENDBRANCH   4  23
TORSDOF 10
ENDMDL
