MODEL 1
REMARK VINA RESULT: -7.616800249      0.000      0.000
REMARK  11 active torsions:
REMARK  status: ('A' for Active; 'I' for Inactive)
REMARK    1  A    between atoms: C4_4  and  C5_5 
REMARK    2  A    between atoms: C5_5  and  C6_6 
REMARK    3  A    between atoms: C6_6  and  C7_7 
REMARK    4  A    between atoms: C9_9  and  C10_10 
REMARK    5  A    between atoms: C10_10  and  C11_11 
REMARK    6  A    between atoms: C11_11  and  O1_12 
REMARK    7  A    between atoms: C13_15  and  C14_16 
REMARK    8  A    between atoms: C14_16  and  C15_18 
REMARK    9  A    between atoms: C18_23  and  O4_24 
REMARK   10  A    between atoms: C24_31  and  C26_33 
REMARK   11  A    between atoms: C26_33  and  O5_34 
ROOT
HETATM    1  C11 UNL     1      47.145  12.042   2.084  1.00  0.00     0.066 C 
HETATM    2  C12 UNL     1      47.351  10.635   2.570  1.00  0.00     0.058 C 
HETATM    3  C13 UNL     1      48.374   9.878   1.729  1.00  0.00     0.132 C 
HETATM    4  C17 UNL     1      47.693   9.603   0.447  1.00  0.00     0.167 C 
HETATM    5  O3  UNL     1      47.352   8.492   0.182  1.00  0.00    -0.294 OA
HETATM    6  C18 UNL     1      47.398  10.694  -0.568  1.00  0.00     0.197 C 
HETATM    7  C19 UNL     1      46.147  11.364  -0.148  1.00  0.00     0.005 C 
HETATM    8  C20 UNL     1      45.068  10.332   0.072  1.00  0.00     0.020 C 
HETATM    9  C21 UNL     1      46.317  12.344   0.987  1.00  0.00     0.032 C 
HETATM   10  C22 UNL     1      44.870  12.724   1.122  1.00  0.00     0.009 C 
HETATM   11  C23 UNL     1      44.584  13.122  -0.352  1.00  0.00     0.012 C 
HETATM   12  C24 UNL     1      45.550  12.275  -1.192  1.00  0.00    -0.012 C 
HETATM   13  C25 UNL     1      44.769  11.508  -2.242  1.00  0.00     0.018 C 
ENDROOT
BRANCH   1  14
HETATM   14  C10 UNL     1      46.966  12.883   3.322  1.00  0.00     0.065 C 
BRANCH  14  15
HETATM   15  C9  UNL     1      47.762  14.115   3.372  1.00  0.00    -0.021 C 
HETATM   16  C7  UNL     1      47.521  15.127   4.132  1.00  0.00    -0.087 C 
HETATM   17  C8  UNL     1      48.450  16.331   4.018  1.00  0.00     0.043 C 
BRANCH  16  18
HETATM   18  C6  UNL     1      46.426  15.288   5.106  1.00  0.00     0.037 C 
BRANCH  18  19
HETATM   19  C5  UNL     1      45.420  16.346   4.719  1.00  0.00     0.031 C 
BRANCH  19  20
HETATM   20  C4  UNL     1      44.812  16.027   3.410  1.00  0.00    -0.024 C 
HETATM   21  C2  UNL     1      44.959  16.783   2.354  1.00  0.00    -0.091 C 
HETATM   22  C1  UNL     1      44.318  16.413   1.053  1.00  0.00     0.042 C 
HETATM   23  C3  UNL     1      45.774  18.036   2.352  1.00  0.00     0.042 C 
ENDBRANCH  19  20
ENDBRANCH  18  19
ENDBRANCH  16  18
ENDBRANCH  14  15
ENDBRANCH   1  14
BRANCH   1  24
HETATM   24  O1  UNL     1      48.521  12.379   1.725  1.00  0.00    -0.389 OA
ATOM     25  H1  UNL     1      48.824  11.544   1.387  1.00  0.00     0.210 HD
ENDBRANCH   1  24
BRANCH   3  26
HETATM   26  C14 UNL     1      48.732   8.640   2.466  1.00  0.00     0.156 C 
HETATM   27  O2  UNL     1      47.920   8.194   3.317  1.00  0.00    -0.295 OA
BRANCH  26  28
HETATM   28  C15 UNL     1      49.960   7.855   2.313  1.00  0.00     0.148 C 
HETATM   29  C16 UNL     1      50.532   7.416   3.655  1.00  0.00     0.034 C 
HETATM   30 CL1  UNL     1      51.228   8.545   1.320  1.00  0.00    -0.117 Cl
ENDBRANCH  26  28
ENDBRANCH   3  26
BRANCH   6  31
HETATM   31  O4  UNL     1      47.186  10.018  -1.772  1.00  0.00    -0.387 OA
ATOM     32  H4  UNL     1      46.396  10.403  -2.133  1.00  0.00     0.210 HD
ENDBRANCH   6  31
BRANCH  12  33
HETATM   33  C26 UNL     1      46.470  13.182  -1.904  1.00  0.00     0.174 C 
BRANCH  33  34
HETATM   34  O5  UNL     1      46.611  12.700  -3.235  1.00  0.00    -0.400 OA
ATOM     35  H5  UNL     1      47.354  13.142  -3.627  1.00  0.00     0.209 HD
ENDBRANCH  33  34
ENDBRANCH  12  33
TORSDOF 11
ENDMDL
MODEL 2
REMARK VINA RESULT: -7.069971889      2.599      5.423
REMARK  11 active torsions:
REMARK  status: ('A' for Active; 'I' for Inactive)
REMARK    1  A    between atoms: C4_4  and  C5_5 
REMARK    2  A    between atoms: C5_5  and  C6_6 
REMARK    3  A    between atoms: C6_6  and  C7_7 
REMARK    4  A    between atoms: C9_9  and  C10_10 
REMARK    5  A    between atoms: C10_10  and  C11_11 
REMARK    6  A    between atoms: C11_11  and  O1_12 
REMARK    7  A    between atoms: C13_15  and  C14_16 
REMARK    8  A    between atoms: C14_16  and  C15_18 
REMARK    9  A    between atoms: C18_23  and  O4_24 
REMARK   10  A    between atoms: C24_31  and  C26_33 
REMARK   11  A    between atoms: C26_33  and  O5_34 
ROOT
HETATM    1  C11 UNL     1      45.547  11.585   0.534  1.00  0.00     0.066 C 
HETATM    2  C12 UNL     1      45.009  11.941  -0.822  1.00  0.00     0.058 C 
HETATM    3  C13 UNL     1      44.325  10.759  -1.500  1.00  0.00     0.132 C 
HETATM    4  C17 UNL     1      45.422   9.851  -1.896  1.00  0.00     0.167 C 
HETATM    5  O3  UNL     1      45.713   9.737  -3.046  1.00  0.00    -0.294 OA
HETATM    6  C18 UNL     1      46.214   9.044  -0.882  1.00  0.00     0.197 C 
HETATM    7  C19 UNL     1      47.264   9.929  -0.332  1.00  0.00     0.005 C 
HETATM    8  C20 UNL     1      48.045  10.555  -1.461  1.00  0.00     0.020 C 
HETATM    9  C21 UNL     1      46.770  10.909   0.704  1.00  0.00     0.032 C 
HETATM   10  C22 UNL     1      48.079  11.610   0.935  1.00  0.00     0.009 C 
HETATM   11  C23 UNL     1      48.966  10.373   1.243  1.00  0.00     0.012 C 
HETATM   12  C24 UNL     1      48.323   9.214   0.470  1.00  0.00    -0.012 C 
HETATM   13  C25 UNL     1      49.365   8.556  -0.415  1.00  0.00     0.018 C 
ENDROOT
BRANCH   1  14
HETATM   14  C10 UNL     1      45.315  12.797   1.400  1.00  0.00     0.065 C 
BRANCH  14  15
HETATM   15  C9  UNL     1      44.944  14.025   0.687  1.00  0.00    -0.021 C 
HETATM   16  C7  UNL     1      44.738  15.172   1.236  1.00  0.00    -0.087 C 
HETATM   17  C8  UNL     1      44.333  16.326   0.326  1.00  0.00     0.043 C 
BRANCH  16  18
HETATM   18  C6  UNL     1      44.825  15.520   2.666  1.00  0.00     0.037 C 
BRANCH  18  19
HETATM   19  C5  UNL     1      45.435  16.879   2.924  1.00  0.00     0.031 C 
BRANCH  19  20
HETATM   20  C4  UNL     1      46.898  16.765   3.095  1.00  0.00    -0.024 C 
HETATM   21  C2  UNL     1      47.484  16.828   4.261  1.00  0.00    -0.091 C 
HETATM   22  C1  UNL     1      48.972  16.710   4.377  1.00  0.00     0.042 C 
HETATM   23  C3  UNL     1      46.738  16.998   5.545  1.00  0.00     0.042 C 
ENDBRANCH  19  20
ENDBRANCH  18  19
ENDBRANCH  16  18
ENDBRANCH  14  15
ENDBRANCH   1  14
BRANCH   1  24
HETATM   24  O1  UNL     1      44.473  10.711   1.000  1.00  0.00    -0.389 OA
ATOM     25  H1  UNL     1      43.737  11.059   0.509  1.00  0.00     0.210 HD
ENDBRANCH   1  24
BRANCH   3  26
HETATM   26  C14 UNL     1      43.568  11.286  -2.664  1.00  0.00     0.156 C 
HETATM   27  O2  UNL     1      43.922  12.388  -3.158  1.00  0.00    -0.295 OA
BRANCH  26  28
HETATM   28  C15 UNL     1      42.422  10.652  -3.322  1.00  0.00     0.148 C 
HETATM   29  C16 UNL     1      41.320  11.653  -3.645  1.00  0.00     0.034 C 
HETATM   30 CL1  UNL     1      41.738   9.240  -2.544  1.00  0.00    -0.117 Cl
ENDBRANCH  26  28
ENDBRANCH   3  26
BRANCH   6  31
HETATM   31  O4  UNL     1      46.808   8.018  -1.624  1.00  0.00    -0.387 OA
ATOM     32  H4  UNL     1      47.511   7.695  -1.074  1.00  0.00     0.210 HD
ENDBRANCH   6  31
BRANCH  12  33
HETATM   33  C26 UNL     1      47.867   8.200   1.440  1.00  0.00     0.174 C 
BRANCH  33  34
HETATM   34  O5  UNL     1      48.254   6.923   0.947  1.00  0.00    -0.400 OA
ATOM     35  H5  UNL     1      47.471   6.390   0.875  1.00  0.00     0.209 HD
ENDBRANCH  33  34
ENDBRANCH  12  33
TORSDOF 11
ENDMDL
MODEL 3
REMARK VINA RESULT: -6.972915504      2.920      5.592
REMARK  11 active torsions:
REMARK  status: ('A' for Active; 'I' for Inactive)
REMARK    1  A    between atoms: C4_4  and  C5_5 
REMARK    2  A    between atoms: C5_5  and  C6_6 
REMARK    3  A    between atoms: C6_6  and  C7_7 
REMARK    4  A    between atoms: C9_9  and  C10_10 
REMARK    5  A    between atoms: C10_10  and  C11_11 
REMARK    6  A    between atoms: C11_11  and  O1_12 
REMARK    7  A    between atoms: C13_15  and  C14_16 
REMARK    8  A    between atoms: C14_16  and  C15_18 
REMARK    9  A    between atoms: C18_23  and  O4_24 
REMARK   10  A    between atoms: C24_31  and  C26_33 
REMARK   11  A    between atoms: C26_33  and  O5_34 
ROOT
HETATM    1  C11 UNL     1      45.463  10.590   0.216  1.00  0.00     0.066 C 
HETATM    2  C12 UNL     1      44.768  11.296  -0.913  1.00  0.00     0.058 C 
HETATM    3  C13 UNL     1      44.155  10.322  -1.913  1.00  0.00     0.132 C 
HETATM    4  C17 UNL     1      45.302   9.747  -2.646  1.00  0.00     0.167 C 
HETATM    5  O3  UNL     1      45.496  10.055  -3.781  1.00  0.00    -0.294 OA
HETATM    6  C18 UNL     1      46.266   8.763  -2.005  1.00  0.00     0.197 C 
HETATM    7  C19 UNL     1      47.261   9.550  -1.244  1.00  0.00     0.005 C 
HETATM    8  C20 UNL     1      47.863  10.608  -2.135  1.00  0.00     0.020 C 
HETATM    9  C21 UNL     1      46.762  10.062   0.086  1.00  0.00     0.032 C 
HETATM   10  C22 UNL     1      48.004  10.815   0.471  1.00  0.00     0.009 C 
HETATM   11  C23 UNL     1      49.043   9.673   0.299  1.00  0.00     0.012 C 
HETATM   12  C24 UNL     1      48.460   8.758  -0.784  1.00  0.00    -0.012 C 
HETATM   13  C25 UNL     1      49.479   8.569  -1.891  1.00  0.00     0.018 C 
ENDROOT
BRANCH   1  14
HETATM   14  C10 UNL     1      45.184  11.410   1.449  1.00  0.00     0.065 C 
BRANCH  14  15
HETATM   15  C9  UNL     1      44.789  12.803   1.209  1.00  0.00    -0.021 C 
HETATM   16  C7  UNL     1      45.380  13.839   1.696  1.00  0.00    -0.087 C 
HETATM   17  C8  UNL     1      44.801  15.207   1.353  1.00  0.00     0.043 C 
BRANCH  16  18
HETATM   18  C6  UNL     1      46.559  13.877   2.581  1.00  0.00     0.037 C 
BRANCH  18  19
HETATM   19  C5  UNL     1      46.345  14.681   3.842  1.00  0.00     0.031 C 
BRANCH  19  20
HETATM   20  C4  UNL     1      47.627  15.239   4.322  1.00  0.00    -0.024 C 
HETATM   21  C2  UNL     1      48.002  16.467   4.081  1.00  0.00    -0.091 C 
HETATM   22  C1  UNL     1      49.313  16.981   4.589  1.00  0.00     0.042 C 
HETATM   23  C3  UNL     1      47.167  17.443   3.316  1.00  0.00     0.042 C 
ENDBRANCH  19  20
ENDBRANCH  18  19
ENDBRANCH  16  18
ENDBRANCH  14  15
ENDBRANCH   1  14
BRANCH   1  24
HETATM   24  O1  UNL     1      44.537   9.478   0.415  1.00  0.00    -0.389 OA
ATOM     25  H1  UNL     1      44.544   9.086  -0.451  1.00  0.00     0.210 HD
ENDBRANCH   1  24
BRANCH   3  26
HETATM   26  C14 UNL     1      43.242  11.096  -2.791  1.00  0.00     0.156 C 
HETATM   27  O2  UNL     1      43.514  12.303  -3.021  1.00  0.00    -0.295 OA
BRANCH  26  28
HETATM   28  C15 UNL     1      42.024  10.602  -3.441  1.00  0.00     0.148 C 
HETATM   29  C16 UNL     1      41.039  11.724  -3.743  1.00  0.00     0.034 C 
HETATM   30 CL1  UNL     1      41.193   9.269  -2.666  1.00  0.00    -0.117 Cl
ENDBRANCH  26  28
ENDBRANCH   3  26
BRANCH   6  31
HETATM   31  O4  UNL     1      46.895   8.125  -3.078  1.00  0.00    -0.387 OA
ATOM     32  H4  UNL     1      47.731   7.835  -2.733  1.00  0.00     0.210 HD
ENDBRANCH   6  31
BRANCH  12  33
HETATM   33  C26 UNL     1      48.205   7.431  -0.190  1.00  0.00     0.174 C 
BRANCH  33  34
HETATM   34  O5  UNL     1      48.474   6.451  -1.185  1.00  0.00    -0.400 OA
ATOM     35  H5  UNL     1      48.948   5.739  -0.771  1.00  0.00     0.209 HD
ENDBRANCH  33  34
ENDBRANCH  12  33
TORSDOF 11
ENDMDL
MODEL 4
REMARK VINA RESULT: -6.937045185      2.156      5.267
REMARK  11 active torsions:
REMARK  status: ('A' for Active; 'I' for Inactive)
REMARK    1  A    between atoms: C4_4  and  C5_5 
REMARK    2  A    between atoms: C5_5  and  C6_6 
REMARK    3  A    between atoms: C6_6  and  C7_7 
REMARK    4  A    between atoms: C9_9  and  C10_10 
REMARK    5  A    between atoms: C10_10  and  C11_11 
REMARK    6  A    between atoms: C11_11  and  O1_12 
REMARK    7  A    between atoms: C13_15  and  C14_16 
REMARK    8  A    between atoms: C14_16  and  C15_18 
REMARK    9  A    between atoms: C18_23  and  O4_24 
REMARK   10  A    between atoms: C24_31  and  C26_33 
REMARK   11  A    between atoms: C26_33  and  O5_34 
ROOT
HETATM    1  C11 UNL     1      45.881  11.877   0.337  1.00  0.00     0.066 C 
HETATM    2  C12 UNL     1      46.318  12.684  -0.851  1.00  0.00     0.058 C 
HETATM    3  C13 UNL     1      46.295  11.873  -2.142  1.00  0.00     0.132 C 
HETATM    4  C17 UNL     1      47.439  10.943  -2.036  1.00  0.00     0.167 C 
HETATM    5  O3  UNL     1      48.406  11.111  -2.713  1.00  0.00    -0.294 OA
HETATM    6  C18 UNL     1      47.441   9.762  -1.080  1.00  0.00     0.197 C 
HETATM    7  C19 UNL     1      47.843  10.269   0.251  1.00  0.00     0.005 C 
HETATM    8  C20 UNL     1      49.130  11.048   0.131  1.00  0.00     0.020 C 
HETATM    9  C21 UNL     1      46.746  10.985   1.000  1.00  0.00     0.032 C 
HETATM   10  C22 UNL     1      47.561  11.365   2.204  1.00  0.00     0.009 C 
HETATM   11  C23 UNL     1      48.113   9.961   2.576  1.00  0.00     0.012 C 
HETATM   12  C24 UNL     1      48.181   9.191   1.251  1.00  0.00    -0.012 C 
HETATM   13  C25 UNL     1      49.582   8.645   1.053  1.00  0.00     0.018 C 
ENDROOT
BRANCH   1  14
HETATM   14  C10 UNL     1      45.081  12.816   1.202  1.00  0.00     0.065 C 
BRANCH  14  15
HETATM   15  C9  UNL     1      44.777  14.124   0.607  1.00  0.00    -0.021 C 
HETATM   16  C7  UNL     1      44.728  15.240   1.248  1.00  0.00    -0.087 C 
HETATM   17  C8  UNL     1      44.368  16.491   0.455  1.00  0.00     0.043 C 
BRANCH  16  18
HETATM   18  C6  UNL     1      44.961  15.470   2.685  1.00  0.00     0.037 C 
BRANCH  18  19
HETATM   19  C5  UNL     1      45.526  16.836   2.997  1.00  0.00     0.031 C 
BRANCH  19  20
HETATM   20  C4  UNL     1      46.991  16.762   3.171  1.00  0.00    -0.024 C 
HETATM   21  C2  UNL     1      47.575  16.861   4.336  1.00  0.00    -0.091 C 
HETATM   22  C1  UNL     1      49.066  16.782   4.454  1.00  0.00     0.042 C 
HETATM   23  C3  UNL     1      46.824  17.037   5.616  1.00  0.00     0.042 C 
ENDBRANCH  19  20
ENDBRANCH  18  19
ENDBRANCH  16  18
ENDBRANCH  14  15
ENDBRANCH   1  14
BRANCH   1  24
HETATM   24  O1  UNL     1      44.809  11.098  -0.279  1.00  0.00    -0.389 OA
ATOM     25  H1  UNL     1      45.255  10.763  -1.049  1.00  0.00     0.210 HD
ENDBRANCH   1  24
BRANCH   3  26
HETATM   26  C14 UNL     1      46.431  12.824  -3.273  1.00  0.00     0.156 C 
HETATM   27  O2  UNL     1      46.111  12.434  -4.425  1.00  0.00    -0.295 OA
BRANCH  26  28
HETATM   28  C15 UNL     1      46.911  14.208  -3.200  1.00  0.00     0.148 C 
HETATM   29  C16 UNL     1      46.115  15.139  -4.105  1.00  0.00     0.034 C 
HETATM   30 CL1  UNL     1      48.627  14.469  -3.435  1.00  0.00    -0.117 Cl
ENDBRANCH  26  28
ENDBRANCH   3  26
BRANCH   6  31
HETATM   31  O4  UNL     1      48.428   8.904  -1.572  1.00  0.00    -0.387 OA
ATOM     32  H4  UNL     1      47.956   8.255  -2.079  1.00  0.00     0.210 HD
ENDBRANCH   6  31
BRANCH  12  33
HETATM   33  C26 UNL     1      47.266   8.036   1.333  1.00  0.00     0.174 C 
BRANCH  33  34
HETATM   34  O5  UNL     1      47.534   7.357   2.554  1.00  0.00    -0.400 OA
ATOM     35  H5  UNL     1      46.783   7.478   3.124  1.00  0.00     0.209 HD
ENDBRANCH  33  34
ENDBRANCH  12  33
TORSDOF 11
ENDMDL
MODEL 5
REMARK VINA RESULT: -6.934920833      2.625      5.230
REMARK  11 active torsions:
REMARK  status: ('A' for Active; 'I' for Inactive)
REMARK    1  A    between atoms: C4_4  and  C5_5 
REMARK    2  A    between atoms: C5_5  and  C6_6 
REMARK    3  A    between atoms: C6_6  and  C7_7 
REMARK    4  A    between atoms: C9_9  and  C10_10 
REMARK    5  A    between atoms: C10_10  and  C11_11 
REMARK    6  A    between atoms: C11_11  and  O1_12 
REMARK    7  A    between atoms: C13_15  and  C14_16 
REMARK    8  A    between atoms: C14_16  and  C15_18 
REMARK    9  A    between atoms: C18_23  and  O4_24 
REMARK   10  A    between atoms: C24_31  and  C26_33 
REMARK   11  A    between atoms: C26_33  and  O5_34 
ROOT
HETATM    1  C11 UNL     1      45.490  11.242   0.269  1.00  0.00     0.066 C 
HETATM    2  C12 UNL     1      44.628  11.275  -0.961  1.00  0.00     0.058 C 
HETATM    3  C13 UNL     1      44.260   9.876  -1.446  1.00  0.00     0.132 C 
HETATM    4  C17 UNL     1      45.504   9.328  -2.026  1.00  0.00     0.167 C 
HETATM    5  O3  UNL     1      45.603   9.200  -3.207  1.00  0.00    -0.294 OA
HETATM    6  C18 UNL     1      46.688   8.915  -1.168  1.00  0.00     0.197 C 
HETATM    7  C19 UNL     1      47.469  10.137  -0.873  1.00  0.00     0.005 C 
HETATM    8  C20 UNL     1      47.782  10.863  -2.158  1.00  0.00     0.020 C 
HETATM    9  C21 UNL     1      46.877  11.007   0.209  1.00  0.00     0.032 C 
HETATM   10  C22 UNL     1      47.900  12.104   0.145  1.00  0.00     0.009 C 
HETATM   11  C23 UNL     1      49.186  11.248   0.307  1.00  0.00     0.012 C 
HETATM   12  C24 UNL     1      48.831   9.875  -0.280  1.00  0.00    -0.012 C 
HETATM   13  C25 UNL     1      49.852   9.497  -1.336  1.00  0.00     0.018 C 
ENDROOT
BRANCH   1  14
HETATM   14  C10 UNL     1      45.033  12.396   1.123  1.00  0.00     0.065 C 
BRANCH  14  15
HETATM   15  C9  UNL     1      44.798  13.659   0.411  1.00  0.00    -0.021 C 
HETATM   16  C7  UNL     1      44.717  14.820   0.962  1.00  0.00    -0.087 C 
HETATM   17  C8  UNL     1      44.439  16.012   0.053  1.00  0.00     0.043 C 
BRANCH  16  18
HETATM   18  C6  UNL     1      44.838  15.155   2.392  1.00  0.00     0.037 C 
BRANCH  18  19
HETATM   19  C5  UNL     1      45.334  16.559   2.646  1.00  0.00     0.031 C 
BRANCH  19  20
HETATM   20  C4  UNL     1      46.784  16.552   2.929  1.00  0.00    -0.024 C 
HETATM   21  C2  UNL     1      47.276  16.701   4.131  1.00  0.00    -0.091 C 
HETATM   22  C1  UNL     1      48.755  16.689   4.360  1.00  0.00     0.042 C 
HETATM   23  C3  UNL     1      46.424  16.872   5.348  1.00  0.00     0.042 C 
ENDBRANCH  19  20
ENDBRANCH  18  19
ENDBRANCH  16  18
ENDBRANCH  14  15
ENDBRANCH   1  14
BRANCH   1  24
HETATM   24  O1  UNL     1      44.867  10.122   0.973  1.00  0.00    -0.389 OA
ATOM     25  H1  UNL     1      44.034  10.071   0.518  1.00  0.00     0.210 HD
ENDBRANCH   1  24
BRANCH   3  26
HETATM   26  C14 UNL     1      43.174  10.020  -2.448  1.00  0.00     0.156 C 
HETATM   27  O2  UNL     1      42.964  11.158  -2.943  1.00  0.00    -0.295 OA
BRANCH  26  28
HETATM   28  C15 UNL     1      42.292   8.959  -2.941  1.00  0.00     0.148 C 
HETATM   29  C16 UNL     1      40.832   9.220  -2.596  1.00  0.00     0.034 C 
HETATM   30 CL1  UNL     1      42.719   7.311  -2.524  1.00  0.00    -0.117 Cl
ENDBRANCH  26  28
ENDBRANCH   3  26
BRANCH   6  31
HETATM   31  O4  UNL     1      47.441   8.063  -1.981  1.00  0.00    -0.387 OA
ATOM     32  H4  UNL     1      48.331   8.144  -1.661  1.00  0.00     0.210 HD
ENDBRANCH   6  31
BRANCH  12  33
HETATM   33  C26 UNL     1      48.918   8.869   0.795  1.00  0.00     0.174 C 
BRANCH  33  34
HETATM   34  O5  UNL     1      49.703   9.423   1.845  1.00  0.00    -0.400 OA
ATOM     35  H5  UNL     1      50.452   8.855   1.978  1.00  0.00     0.209 HD
ENDBRANCH  33  34
ENDBRANCH  12  33
TORSDOF 11
ENDMDL
