MODEL 1
REMARK VINA RESULT: -7.824858617      0.000      0.000
REMARK  14 active torsions:
REMARK  status: ('A' for Active; 'I' for Inactive)
REMARK    1  A    between atoms: C2_2  and  C3_3 
REMARK    2  A    between atoms: C3_3  and  C4_4 
REMARK    3  A    between atoms: C4_4  and  C5_5 
REMARK    4  A    between atoms: C5_5  and  C6_6 
REMARK    5  A    between atoms: C6_6  and  C7_7 
REMARK    6  A    between atoms: C7_7  and  C8_8 
REMARK    7  A    between atoms: C8_8  and  C9_9 
REMARK    8  A    between atoms: C9_9  and  C10_10 
REMARK    9  A    between atoms: C12_13  and  C13_14 
REMARK       I    between atoms: C13_14  and  N1_16 
REMARK   10  A    between atoms: N1_16  and  S1_18 
REMARK   11  A    between atoms: S1_18  and  C14_21 
REMARK   12  A    between atoms: C18_25  and  C19_26 
REMARK   13  A    between atoms: C20_29  and  O7_30 
REMARK   14  A    between atoms: C24_35  and  C25_36 
ROOT
HETATM    1  C10 UNL     1      18.322  29.597  12.386  1.00  0.00     0.079 C 
HETATM    2  C11 UNL     1      17.557  28.455  11.828  1.00  0.00     0.168 C 
HETATM    3  O1  UNL     1      17.765  28.458  10.445  1.00  0.00    -0.367 OA
HETATM    4  C12 UNL     1      19.018  28.084  10.047  1.00  0.00     0.220 C 
HETATM    5  C17 UNL     1      19.685  27.148  11.024  1.00  0.00     0.051 C 
HETATM    6  C18 UNL     1      18.560  26.174  11.418  1.00  0.00     0.131 C 
HETATM    7  C20 UNL     1      18.196  27.230  12.458  1.00  0.00     0.105 C 
HETATM    8  C21 UNL     1      19.653  27.618  12.457  1.00  0.00     0.071 C 
HETATM    9  C22 UNL     1      19.737  29.074  12.684  1.00  0.00     0.178 C 
HETATM   10  C23 UNL     1      20.848  29.801  11.949  1.00  0.00     0.088 C 
HETATM   11  C24 UNL     1      21.577  29.839  13.277  1.00  0.00     0.332 C 
HETATM   12  N2  UNL     1      20.285  29.584  13.894  1.00  0.00     0.108 N 
HETATM   13  C26 UNL     1      20.447  28.736  15.021  1.00  0.00     0.311 C 
ENDROOT
BRANCH   4  14
HETATM   14  C13 UNL     1      18.842  27.266   8.788  1.00  0.00     0.260 C 
HETATM   15  O2  UNL     1      17.851  27.398   8.034  1.00  0.00    -0.270 OA
HETATM   16  N1  UNL     1      19.826  26.299   8.418  1.00  0.00    -0.252 N 
ATOM     17  H1  UNL     1      20.643  26.174   9.017  1.00  0.00     0.181 HD
BRANCH  16  18
HETATM   18  S1  UNL     1      19.681  25.346   7.010  1.00  0.00     0.237 S 
HETATM   19  O3  UNL     1      18.512  24.391   7.199  1.00  0.00    -0.205 OA
HETATM   20  O4  UNL     1      19.391  26.164   5.779  1.00  0.00    -0.205 OA
BRANCH  18  21
HETATM   21  C14 UNL     1      21.124  24.364   6.706  1.00  0.00     0.130 A 
HETATM   22  C15 UNL     1      22.466  25.072   6.994  1.00  0.00     0.023 A 
HETATM   23  C16 UNL     1      22.011  24.741   5.576  1.00  0.00     0.023 A 
ENDBRANCH  18  21
ENDBRANCH  16  18
ENDBRANCH   4  14
BRANCH   6  24
HETATM   24  C19 UNL     1      19.094  24.959  12.032  1.00  0.00     0.180 C 
HETATM   25  O5  UNL     1      18.500  24.228  12.843  1.00  0.00    -0.648 OA
HETATM   26  O6  UNL     1      20.404  24.586  11.667  1.00  0.00    -0.648 OA
ENDBRANCH   6  24
BRANCH   1  27
HETATM   27  C9  UNL     1      17.768  30.343  13.530  1.00  0.00    -0.021 C 
BRANCH  27  28
HETATM   28  C8  UNL     1      18.008  31.769  13.726  1.00  0.00    -0.030 C 
BRANCH  28  29
HETATM   29  C7  UNL     1      18.368  32.357  15.022  1.00  0.00     0.027 C 
BRANCH  29  30
HETATM   30  C6  UNL     1      17.425  32.002  16.155  1.00  0.00     0.004 C 
BRANCH  30  31
HETATM   31  C5  UNL     1      16.042  32.527  15.944  1.00  0.00     0.000 C 
BRANCH  31  32
HETATM   32  C4  UNL     1      15.724  33.766  16.727  1.00  0.00     0.000 C 
BRANCH  32  33
HETATM   33  C3  UNL     1      15.910  35.024  15.886  1.00  0.00    -0.000 C 
BRANCH  33  34
HETATM   34  C2  UNL     1      15.745  36.238  16.772  1.00  0.00    -0.005 C 
HETATM   35  C1  UNL     1      14.530  35.966  17.654  1.00  0.00     0.005 C 
ENDBRANCH  33  34
ENDBRANCH  32  33
ENDBRANCH  31  32
ENDBRANCH  30  31
ENDBRANCH  29  30
ENDBRANCH  28  29
ENDBRANCH  27  28
ENDBRANCH   1  27
BRANCH   7  36
HETATM   36  O7  UNL     1      17.629  26.771  13.595  1.00  0.00    -0.386 OA
ATOM     37  H7  UNL     1      17.063  26.013  13.511  1.00  0.00     0.210 HD
ENDBRANCH   7  36
BRANCH  11  38
HETATM   38  C25 UNL     1      22.153  31.147  13.685  1.00  0.00     0.418 C 
HETATM   39  F1  UNL     1      23.542  31.116  13.565  1.00  0.00    -0.169 F 
HETATM   40  F2  UNL     1      21.742  32.190  12.863  1.00  0.00    -0.169 F 
HETATM   41  F3  UNL     1      21.892  31.521  14.985  1.00  0.00    -0.169 F 
ENDBRANCH  11  38
TORSDOF 14
ENDMDL
MODEL 2
REMARK VINA RESULT: -7.629994543      1.223      1.461
REMARK  14 active torsions:
REMARK  status: ('A' for Active; 'I' for Inactive)
REMARK    1  A    between atoms: C2_2  and  C3_3 
REMARK    2  A    between atoms: C3_3  and  C4_4 
REMARK    3  A    between atoms: C4_4  and  C5_5 
REMARK    4  A    between atoms: C5_5  and  C6_6 
REMARK    5  A    between atoms: C6_6  and  C7_7 
REMARK    6  A    between atoms: C7_7  and  C8_8 
REMARK    7  A    between atoms: C8_8  and  C9_9 
REMARK    8  A    between atoms: C9_9  and  C10_10 
REMARK    9  A    between atoms: C12_13  and  C13_14 
REMARK       I    between atoms: C13_14  and  N1_16 
REMARK   10  A    between atoms: N1_16  and  S1_18 
REMARK   11  A    between atoms: S1_18  and  C14_21 
REMARK   12  A    between atoms: C18_25  and  C19_26 
REMARK   13  A    between atoms: C20_29  and  O7_30 
REMARK   14  A    between atoms: C24_35  and  C25_36 
ROOT
HETATM    1  C10 UNL     1      18.281  29.711  12.388  1.00  0.00     0.079 C 
HETATM    2  C11 UNL     1      17.497  28.607  11.783  1.00  0.00     0.168 C 
HETATM    3  O1  UNL     1      17.725  28.649  10.404  1.00  0.00    -0.367 OA
HETATM    4  C12 UNL     1      18.975  28.257  10.011  1.00  0.00     0.220 C 
HETATM    5  C17 UNL     1      19.604  27.274  10.966  1.00  0.00     0.051 C 
HETATM    6  C18 UNL     1      18.451  26.316  11.313  1.00  0.00     0.131 C 
HETATM    7  C20 UNL     1      18.097  27.347  12.381  1.00  0.00     0.105 C 
HETATM    8  C21 UNL     1      19.563  27.699  12.413  1.00  0.00     0.071 C 
HETATM    9  C22 UNL     1      19.679  29.144  12.689  1.00  0.00     0.178 C 
HETATM   10  C23 UNL     1      20.817  29.867  11.993  1.00  0.00     0.088 C 
HETATM   11  C24 UNL     1      21.527  29.844  13.332  1.00  0.00     0.332 C 
HETATM   12  N2  UNL     1      20.221  29.601  13.922  1.00  0.00     0.108 N 
HETATM   13  C26 UNL     1      20.346  28.714  15.023  1.00  0.00     0.311 C 
ENDROOT
BRANCH   4  14
HETATM   14  C13 UNL     1      18.798  27.485   8.724  1.00  0.00     0.260 C 
HETATM   15  O2  UNL     1      17.966  27.819   7.849  1.00  0.00    -0.270 OA
HETATM   16  N1  UNL     1      19.594  26.327   8.467  1.00  0.00    -0.252 N 
ATOM     17  H1  UNL     1      20.279  26.036   9.165  1.00  0.00     0.181 HD
BRANCH  16  18
HETATM   18  S1  UNL     1      19.439  25.415   7.034  1.00  0.00     0.237 S 
HETATM   19  O3  UNL     1      20.024  26.226   5.887  1.00  0.00    -0.205 OA
HETATM   20  O4  UNL     1      20.193  24.112   7.085  1.00  0.00    -0.205 OA
BRANCH  18  21
HETATM   21  C14 UNL     1      17.748  25.071   6.631  1.00  0.00     0.130 A 
HETATM   22  C15 UNL     1      16.912  24.476   7.784  1.00  0.00     0.023 A 
HETATM   23  C16 UNL     1      17.312  23.654   6.563  1.00  0.00     0.023 A 
ENDBRANCH  18  21
ENDBRANCH  16  18
ENDBRANCH   4  14
BRANCH   6  24
HETATM   24  C19 UNL     1      18.947  25.070  11.894  1.00  0.00     0.180 C 
HETATM   25  O5  UNL     1      18.291  24.278  12.593  1.00  0.00    -0.648 OA
HETATM   26  O6  UNL     1      20.293  24.739  11.636  1.00  0.00    -0.648 OA
ENDBRANCH   6  24
BRANCH   1  27
HETATM   27  C9  UNL     1      17.728  30.433  13.548  1.00  0.00    -0.021 C 
BRANCH  27  28
HETATM   28  C8  UNL     1      17.913  31.868  13.738  1.00  0.00    -0.030 C 
BRANCH  28  29
HETATM   29  C7  UNL     1      18.495  32.454  14.952  1.00  0.00     0.027 C 
BRANCH  29  30
HETATM   30  C6  UNL     1      17.650  32.281  16.199  1.00  0.00     0.004 C 
BRANCH  30  31
HETATM   31  C5  UNL     1      16.195  32.518  15.952  1.00  0.00     0.000 C 
BRANCH  31  32
HETATM   32  C4  UNL     1      15.642  33.734  16.633  1.00  0.00     0.000 C 
BRANCH  32  33
HETATM   33  C3  UNL     1      16.021  35.012  15.893  1.00  0.00    -0.000 C 
BRANCH  33  34
HETATM   34  C2  UNL     1      15.741  36.200  16.786  1.00  0.00    -0.005 C 
HETATM   35  C1  UNL     1      14.627  35.771  17.737  1.00  0.00     0.005 C 
ENDBRANCH  33  34
ENDBRANCH  32  33
ENDBRANCH  31  32
ENDBRANCH  30  31
ENDBRANCH  29  30
ENDBRANCH  28  29
ENDBRANCH  27  28
ENDBRANCH   1  27
BRANCH   7  36
HETATM   36  O7  UNL     1      17.502  26.865  13.495  1.00  0.00    -0.386 OA
ATOM     37  H7  UNL     1      17.502  25.922  13.601  1.00  0.00     0.210 HD
ENDBRANCH   7  36
BRANCH  11  38
HETATM   38  C25 UNL     1      22.129  31.124  13.789  1.00  0.00     0.418 C 
HETATM   39  F1  UNL     1      23.488  31.151  13.484  1.00  0.00    -0.169 F 
HETATM   40  F2  UNL     1      21.590  32.229  13.141  1.00  0.00    -0.169 F 
HETATM   41  F3  UNL     1      22.039  31.361  15.144  1.00  0.00    -0.169 F 
ENDBRANCH  11  38
TORSDOF 14
ENDMDL
MODEL 3
REMARK VINA RESULT: -7.544684745      1.394      2.110
REMARK  14 active torsions:
REMARK  status: ('A' for Active; 'I' for Inactive)
REMARK    1  A    between atoms: C2_2  and  C3_3 
REMARK    2  A    between atoms: C3_3  and  C4_4 
REMARK    3  A    between atoms: C4_4  and  C5_5 
REMARK    4  A    between atoms: C5_5  and  C6_6 
REMARK    5  A    between atoms: C6_6  and  C7_7 
REMARK    6  A    between atoms: C7_7  and  C8_8 
REMARK    7  A    between atoms: C8_8  and  C9_9 
REMARK    8  A    between atoms: C9_9  and  C10_10 
REMARK    9  A    between atoms: C12_13  and  C13_14 
REMARK       I    between atoms: C13_14  and  N1_16 
REMARK   10  A    between atoms: N1_16  and  S1_18 
REMARK   11  A    between atoms: S1_18  and  C14_21 
REMARK   12  A    between atoms: C18_25  and  C19_26 
REMARK   13  A    between atoms: C20_29  and  O7_30 
REMARK   14  A    between atoms: C24_35  and  C25_36 
ROOT
HETATM    1  C10 UNL     1      18.301  29.620  12.439  1.00  0.00     0.079 C 
HETATM    2  C11 UNL     1      17.538  28.494  11.847  1.00  0.00     0.168 C 
HETATM    3  O1  UNL     1      17.790  28.505  10.471  1.00  0.00    -0.367 OA
HETATM    4  C12 UNL     1      19.050  28.115  10.111  1.00  0.00     0.220 C 
HETATM    5  C17 UNL     1      19.671  27.162  11.100  1.00  0.00     0.051 C 
HETATM    6  C18 UNL     1      18.520  26.202  11.450  1.00  0.00     0.131 C 
HETATM    7  C20 UNL     1      18.138  27.255  12.486  1.00  0.00     0.105 C 
HETATM    8  C21 UNL     1      19.600  27.621  12.536  1.00  0.00     0.071 C 
HETATM    9  C22 UNL     1      19.698  29.074  12.778  1.00  0.00     0.178 C 
HETATM   10  C23 UNL     1      20.842  29.790  12.085  1.00  0.00     0.088 C 
HETATM   11  C24 UNL     1      21.528  29.806  13.437  1.00  0.00     0.332 C 
HETATM   12  N2  UNL     1      20.213  29.566  14.009  1.00  0.00     0.108 N 
HETATM   13  C26 UNL     1      20.326  28.707  15.134  1.00  0.00     0.311 C 
ENDROOT
BRANCH   4  14
HETATM   14  C13 UNL     1      18.903  27.310   8.840  1.00  0.00     0.260 C 
HETATM   15  O2  UNL     1      17.946  27.472   8.049  1.00  0.00    -0.270 OA
HETATM   16  N1  UNL     1      19.877  26.321   8.501  1.00  0.00    -0.252 N 
ATOM     17  H1  UNL     1      20.666  26.172   9.130  1.00  0.00     0.181 HD
BRANCH  16  18
HETATM   18  S1  UNL     1      19.764  25.382   7.082  1.00  0.00     0.237 S 
HETATM   19  O3  UNL     1      18.585  24.432   7.232  1.00  0.00    -0.205 OA
HETATM   20  O4  UNL     1      19.511  26.211   5.850  1.00  0.00    -0.205 OA
BRANCH  18  21
HETATM   21  C14 UNL     1      21.209  24.394   6.807  1.00  0.00     0.130 A 
HETATM   22  C15 UNL     1      22.546  25.091   7.138  1.00  0.00     0.023 A 
HETATM   23  C16 UNL     1      22.128  24.777   5.706  1.00  0.00     0.023 A 
ENDBRANCH  18  21
ENDBRANCH  16  18
ENDBRANCH   4  14
BRANCH   6  24
HETATM   24  C19 UNL     1      19.016  24.974  12.071  1.00  0.00     0.180 C 
HETATM   25  O5  UNL     1      18.393  24.258  12.873  1.00  0.00    -0.648 OA
HETATM   26  O6  UNL     1      20.321  24.570  11.724  1.00  0.00    -0.648 OA
ENDBRANCH   6  24
BRANCH   1  27
HETATM   27  C9  UNL     1      17.721  30.365  13.570  1.00  0.00    -0.021 C 
BRANCH  27  28
HETATM   28  C8  UNL     1      17.916  31.800  13.746  1.00  0.00    -0.030 C 
BRANCH  28  29
HETATM   29  C7  UNL     1      17.684  32.498  15.017  1.00  0.00     0.027 C 
BRANCH  29  30
HETATM   30  C6  UNL     1      18.393  31.885  16.208  1.00  0.00     0.004 C 
BRANCH  30  31
HETATM   31  C5  UNL     1      19.689  32.560  16.522  1.00  0.00     0.000 C 
BRANCH  31  32
HETATM   32  C4  UNL     1      19.785  33.974  16.032  1.00  0.00     0.000 C 
BRANCH  32  33
HETATM   33  C3  UNL     1      21.228  34.466  16.015  1.00  0.00    -0.000 C 
BRANCH  33  34
HETATM   34  C2  UNL     1      21.972  33.848  17.178  1.00  0.00    -0.005 C 
HETATM   35  C1  UNL     1      21.962  34.887  18.296  1.00  0.00     0.005 C 
ENDBRANCH  33  34
ENDBRANCH  32  33
ENDBRANCH  31  32
ENDBRANCH  30  31
ENDBRANCH  29  30
ENDBRANCH  28  29
ENDBRANCH  27  28
ENDBRANCH   1  27
BRANCH   7  36
HETATM   36  O7  UNL     1      17.527  26.795  13.601  1.00  0.00    -0.386 OA
ATOM     37  H7  UNL     1      17.001  26.011  13.503  1.00  0.00     0.210 HD
ENDBRANCH   7  36
BRANCH  11  38
HETATM   38  C25 UNL     1      22.110  31.103  13.873  1.00  0.00     0.418 C 
HETATM   39  F1  UNL     1      22.260  31.118  15.259  1.00  0.00    -0.169 F 
HETATM   40  F2  UNL     1      23.387  31.311  13.368  1.00  0.00    -0.169 F 
HETATM   41  F3  UNL     1      21.358  32.215  13.561  1.00  0.00    -0.169 F 
ENDBRANCH  11  38
TORSDOF 14
ENDMDL
MODEL 4
REMARK VINA RESULT: -7.504631943      1.601      2.113
REMARK  14 active torsions:
REMARK  status: ('A' for Active; 'I' for Inactive)
REMARK    1  A    between atoms: C2_2  and  C3_3 
REMARK    2  A    between atoms: C3_3  and  C4_4 
REMARK    3  A    between atoms: C4_4  and  C5_5 
REMARK    4  A    between atoms: C5_5  and  C6_6 
REMARK    5  A    between atoms: C6_6  and  C7_7 
REMARK    6  A    between atoms: C7_7  and  C8_8 
REMARK    7  A    between atoms: C8_8  and  C9_9 
REMARK    8  A    between atoms: C9_9  and  C10_10 
REMARK    9  A    between atoms: C12_13  and  C13_14 
REMARK       I    between atoms: C13_14  and  N1_16 
REMARK   10  A    between atoms: N1_16  and  S1_18 
REMARK   11  A    between atoms: S1_18  and  C14_21 
REMARK   12  A    between atoms: C18_25  and  C19_26 
REMARK   13  A    between atoms: C20_29  and  O7_30 
REMARK   14  A    between atoms: C24_35  and  C25_36 
ROOT
HETATM    1  C10 UNL     1      18.309  29.740  12.339  1.00  0.00     0.079 C 
HETATM    2  C11 UNL     1      17.468  28.660  11.767  1.00  0.00     0.168 C 
HETATM    3  O1  UNL     1      17.693  28.651  10.387  1.00  0.00    -0.367 OA
HETATM    4  C12 UNL     1      18.919  28.185  10.003  1.00  0.00     0.220 C 
HETATM    5  C17 UNL     1      19.502  27.199  10.984  1.00  0.00     0.051 C 
HETATM    6  C18 UNL     1      18.303  26.311  11.361  1.00  0.00     0.131 C 
HETATM    7  C20 UNL     1      18.005  27.389  12.400  1.00  0.00     0.105 C 
HETATM    8  C21 UNL     1      19.487  27.666  12.419  1.00  0.00     0.071 C 
HETATM    9  C22 UNL     1      19.677  29.112  12.652  1.00  0.00     0.178 C 
HETATM   10  C23 UNL     1      20.848  29.756  11.934  1.00  0.00     0.088 C 
HETATM   11  C24 UNL     1      21.561  29.735  13.271  1.00  0.00     0.332 C 
HETATM   12  N2  UNL     1      20.246  29.576  13.871  1.00  0.00     0.108 N 
HETATM   13  C26 UNL     1      20.330  28.715  14.997  1.00  0.00     0.311 C 
ENDROOT
BRANCH   4  14
HETATM   14  C13 UNL     1      18.699  27.387   8.739  1.00  0.00     0.260 C 
HETATM   15  O2  UNL     1      18.851  26.145   8.693  1.00  0.00    -0.270 OA
HETATM   16  N1  UNL     1      18.302  28.046   7.535  1.00  0.00    -0.252 N 
ATOM     17  H1  UNL     1      18.171  29.058   7.548  1.00  0.00     0.181 HD
BRANCH  16  18
HETATM   18  S1  UNL     1      18.040  27.199   6.077  1.00  0.00     0.237 S 
HETATM   19  O3  UNL     1      19.305  26.424   5.742  1.00  0.00    -0.205 OA
HETATM   20  O4  UNL     1      16.919  26.197   6.177  1.00  0.00    -0.205 OA
BRANCH  18  21
HETATM   21  C14 UNL     1      17.705  28.282   4.716  1.00  0.00     0.130 A 
HETATM   22  C15 UNL     1      16.734  29.441   5.029  1.00  0.00     0.023 A 
HETATM   23  C16 UNL     1      16.343  28.276   4.126  1.00  0.00     0.023 A 
ENDBRANCH  18  21
ENDBRANCH  16  18
ENDBRANCH   4  14
BRANCH   6  24
HETATM   24  C19 UNL     1      18.736  25.058  11.976  1.00  0.00     0.180 C 
HETATM   25  O5  UNL     1      18.040  24.315  12.689  1.00  0.00    -0.648 OA
HETATM   26  O6  UNL     1      20.068  24.661  11.737  1.00  0.00    -0.648 OA
ENDBRANCH   6  24
BRANCH   1  27
HETATM   27  C9  UNL     1      17.797  30.521  13.478  1.00  0.00    -0.021 C 
BRANCH  27  28
HETATM   28  C8  UNL     1      18.135  31.927  13.679  1.00  0.00    -0.030 C 
BRANCH  28  29
HETATM   29  C7  UNL     1      17.720  32.697  14.858  1.00  0.00     0.027 C 
BRANCH  29  30
HETATM   30  C6  UNL     1      16.975  31.891  15.903  1.00  0.00     0.004 C 
BRANCH  30  31
HETATM   31  C5  UNL     1      15.684  32.524  16.313  1.00  0.00     0.000 C 
BRANCH  31  32
HETATM   32  C4  UNL     1      15.764  34.005  16.533  1.00  0.00     0.000 C 
BRANCH  32  33
HETATM   33  C3  UNL     1      16.325  34.338  17.911  1.00  0.00    -0.000 C 
BRANCH  33  34
HETATM   34  C2  UNL     1      15.472  35.415  18.544  1.00  0.00    -0.005 C 
HETATM   35  C1  UNL     1      14.430  35.807  17.501  1.00  0.00     0.005 C 
ENDBRANCH  33  34
ENDBRANCH  32  33
ENDBRANCH  31  32
ENDBRANCH  30  31
ENDBRANCH  29  30
ENDBRANCH  28  29
ENDBRANCH  27  28
ENDBRANCH   1  27
BRANCH   7  36
HETATM   36  O7  UNL     1      17.391  26.970  13.528  1.00  0.00    -0.386 OA
ATOM     37  H7  UNL     1      16.455  27.120  13.582  1.00  0.00     0.210 HD
ENDBRANCH   7  36
BRANCH  11  38
HETATM   38  C25 UNL     1      22.228  30.996  13.691  1.00  0.00     0.418 C 
HETATM   39  F1  UNL     1      23.581  30.954  13.361  1.00  0.00    -0.169 F 
HETATM   40  F2  UNL     1      21.727  32.110  13.028  1.00  0.00    -0.169 F 
HETATM   41  F3  UNL     1      22.174  31.264  15.041  1.00  0.00    -0.169 F 
ENDBRANCH  11  38
TORSDOF 14
ENDMDL
MODEL 5
REMARK VINA RESULT: -7.417523238      1.863      2.750
REMARK  14 active torsions:
REMARK  status: ('A' for Active; 'I' for Inactive)
REMARK    1  A    between atoms: C2_2  and  C3_3 
REMARK    2  A    between atoms: C3_3  and  C4_4 
REMARK    3  A    between atoms: C4_4  and  C5_5 
REMARK    4  A    between atoms: C5_5  and  C6_6 
REMARK    5  A    between atoms: C6_6  and  C7_7 
REMARK    6  A    between atoms: C7_7  and  C8_8 
REMARK    7  A    between atoms: C8_8  and  C9_9 
REMARK    8  A    between atoms: C9_9  and  C10_10 
REMARK    9  A    between atoms: C12_13  and  C13_14 
REMARK       I    between atoms: C13_14  and  N1_16 
REMARK   10  A    between atoms: N1_16  and  S1_18 
REMARK   11  A    between atoms: S1_18  and  C14_21 
REMARK   12  A    between atoms: C18_25  and  C19_26 
REMARK   13  A    between atoms: C20_29  and  O7_30 
REMARK   14  A    between atoms: C24_35  and  C25_36 
ROOT
HETATM    1  C10 UNL     1      18.290  29.673  12.508  1.00  0.00     0.079 C 
HETATM    2  C11 UNL     1      17.494  28.585  11.889  1.00  0.00     0.168 C 
HETATM    3  O1  UNL     1      17.707  28.655  10.508  1.00  0.00    -0.367 OA
HETATM    4  C12 UNL     1      18.950  28.266  10.093  1.00  0.00     0.220 C 
HETATM    5  C17 UNL     1      19.585  27.260  11.020  1.00  0.00     0.051 C 
HETATM    6  C18 UNL     1      18.431  26.301  11.360  1.00  0.00     0.131 C 
HETATM    7  C20 UNL     1      18.094  27.310  12.454  1.00  0.00     0.105 C 
HETATM    8  C21 UNL     1      19.563  27.654  12.476  1.00  0.00     0.071 C 
HETATM    9  C22 UNL     1      19.688  29.093  12.780  1.00  0.00     0.178 C 
HETATM   10  C23 UNL     1      20.822  29.825  12.087  1.00  0.00     0.088 C 
HETATM   11  C24 UNL     1      21.548  29.771  13.417  1.00  0.00     0.332 C 
HETATM   12  N2  UNL     1      20.247  29.522  14.017  1.00  0.00     0.108 N 
HETATM   13  C26 UNL     1      20.380  28.611  15.098  1.00  0.00     0.311 C 
ENDROOT
BRANCH   4  14
HETATM   14  C13 UNL     1      18.754  27.523   8.792  1.00  0.00     0.260 C 
HETATM   15  O2  UNL     1      17.934  27.894   7.922  1.00  0.00    -0.270 OA
HETATM   16  N1  UNL     1      19.519  26.348   8.516  1.00  0.00    -0.252 N 
ATOM     17  H1  UNL     1      20.194  26.026   9.210  1.00  0.00     0.181 HD
BRANCH  16  18
HETATM   18  S1  UNL     1      19.341  25.466   7.066  1.00  0.00     0.237 S 
HETATM   19  O3  UNL     1      20.024  26.242   5.950  1.00  0.00    -0.205 OA
HETATM   20  O4  UNL     1      19.992  24.109   7.124  1.00  0.00    -0.205 OA
BRANCH  18  21
HETATM   21  C14 UNL     1      17.644  25.256   6.605  1.00  0.00     0.130 A 
HETATM   22  C15 UNL     1      16.769  24.533   7.652  1.00  0.00     0.023 A 
HETATM   23  C16 UNL     1      17.151  23.884   6.326  1.00  0.00     0.023 A 
ENDBRANCH  18  21
ENDBRANCH  16  18
ENDBRANCH   4  14
BRANCH   6  24
HETATM   24  C19 UNL     1      18.927  25.040  11.909  1.00  0.00     0.180 C 
HETATM   25  O5  UNL     1      18.288  24.257  12.633  1.00  0.00    -0.648 OA
HETATM   26  O6  UNL     1      20.252  24.683  11.585  1.00  0.00    -0.648 OA
ENDBRANCH   6  24
BRANCH   1  27
HETATM   27  C9  UNL     1      17.754  30.373  13.689  1.00  0.00    -0.021 C 
BRANCH  27  28
HETATM   28  C8  UNL     1      17.840  31.821  13.848  1.00  0.00    -0.030 C 
BRANCH  28  29
HETATM   29  C7  UNL     1      17.800  32.495  15.151  1.00  0.00     0.027 C 
BRANCH  29  30
HETATM   30  C6  UNL     1      18.805  31.972  16.158  1.00  0.00     0.004 C 
BRANCH  30  31
HETATM   31  C5  UNL     1      19.775  33.017  16.607  1.00  0.00     0.000 C 
BRANCH  31  32
HETATM   32  C4  UNL     1      19.956  34.149  15.639  1.00  0.00     0.000 C 
BRANCH  32  33
HETATM   33  C3  UNL     1      21.244  34.919  15.911  1.00  0.00    -0.000 C 
BRANCH  33  34
HETATM   34  C2  UNL     1      22.160  34.064  16.758  1.00  0.00    -0.005 C 
HETATM   35  C1  UNL     1      23.417  33.826  15.926  1.00  0.00     0.005 C 
ENDBRANCH  33  34
ENDBRANCH  32  33
ENDBRANCH  31  32
ENDBRANCH  30  31
ENDBRANCH  29  30
ENDBRANCH  28  29
ENDBRANCH  27  28
ENDBRANCH   1  27
BRANCH   7  36
HETATM   36  O7  UNL     1      17.510  26.808  13.563  1.00  0.00    -0.386 OA
ATOM     37  H7  UNL     1      18.063  26.717  14.330  1.00  0.00     0.210 HD
ENDBRANCH   7  36
BRANCH  11  38
HETATM   38  C25 UNL     1      22.160  31.038  13.895  1.00  0.00     0.418 C 
HETATM   39  F1  UNL     1      22.182  31.064  15.288  1.00  0.00    -0.169 F 
HETATM   40  F2  UNL     1      23.489  31.166  13.509  1.00  0.00    -0.169 F 
HETATM   41  F3  UNL     1      21.507  32.187  13.504  1.00  0.00    -0.169 F 
ENDBRANCH  11  38
TORSDOF 14
ENDMDL
