MODEL 1
REMARK VINA RESULT: -8.864287485      0.000      0.000
REMARK  13 active torsions:
REMARK  status: ('A' for Active; 'I' for Inactive)
REMARK    1  A    between atoms: C2_2  and  C3_3 
REMARK    2  A    between atoms: N1_7  and  C7_8 
REMARK    3  A    between atoms: C7_8  and  C8_9 
REMARK       I    between atoms: C8_9  and  N2_11 
REMARK    4  A    between atoms: N2_11  and  C9_13 
REMARK    5  A    between atoms: C12_16  and  C13_17 
REMARK    6  A    between atoms: C13_17  and  C14_18 
REMARK    7  A    between atoms: C14_18  and  N3_19 
REMARK    8  A    between atoms: N4_22  and  C17_23 
REMARK    9  A    between atoms: C17_23  and  C18_24 
REMARK   10  A    between atoms: C18_24  and  O2_25 
REMARK   11  A    between atoms: C18_24  and  C19_27 
REMARK   12  A    between atoms: C19_27  and  S1_28 
REMARK   13  A    between atoms: S1_28  and  C20_29 
ROOT
HETATM    1  N3  UNL     1      17.306  36.176  18.241  1.00  0.00    -0.185 NA
HETATM    2  C15 UNL     1      17.663  37.583  18.371  1.00  0.00     0.141 C 
HETATM    3  C16 UNL     1      19.030  37.886  17.854  1.00  0.00     0.145 C 
HETATM    4  N4  UNL     1      19.988  36.829  18.154  1.00  0.00    -0.323 N 
HETATM    5  C27 UNL     1      19.554  35.806  19.036  1.00  0.00     0.380 C 
HETATM    6  O3  UNL     1      20.350  35.329  19.884  1.00  0.00    -0.237 OA
HETATM    7  O4  UNL     1      18.223  35.382  18.900  1.00  0.00    -0.207 OA
ENDROOT
BRANCH   1   8
HETATM    8  C14 UNL     1      17.226  35.848  16.846  1.00  0.00     0.121 C 
BRANCH   8   9
HETATM    9  C13 UNL     1      16.138  34.943  16.457  1.00  0.00     0.021 C 
BRANCH   9  10
HETATM   10  C12 UNL     1      16.377  33.817  15.547  1.00  0.00    -0.013 C 
HETATM   11  C11 UNL     1      15.979  32.459  15.949  1.00  0.00     0.007 C 
HETATM   12  C10 UNL     1      17.166  31.500  16.046  1.00  0.00     0.025 C 
HETATM   13  C9  UNL     1      17.929  31.420  14.771  1.00  0.00     0.084 C 
HETATM   14  C29 UNL     1      17.787  32.686  13.930  1.00  0.00     0.025 C 
HETATM   15  C28 UNL     1      17.782  33.843  14.930  1.00  0.00     0.007 C 
BRANCH  13  16
HETATM   16  N2  UNL     1      17.629  30.267  13.959  1.00  0.00    -0.355 N 
HETATM   17  C8  UNL     1      18.532  29.156  13.896  1.00  0.00     0.246 C 
HETATM   18  O1  UNL     1      19.602  29.182  14.542  1.00  0.00    -0.272 OA
ATOM     19  H2  UNL     1      16.761  30.242  13.422  1.00  0.00     0.162 HD
BRANCH  17  20
HETATM   20  C7  UNL     1      18.224  27.964  13.073  1.00  0.00     0.375 C 
BRANCH  20  21
HETATM   21  N1  UNL     1      18.672  28.020  11.727  1.00  0.00     0.101 N 
HETATM   22  C3  UNL     1      19.232  26.811  11.200  1.00  0.00     0.223 C 
HETATM   23  C4  UNL     1      18.921  26.764   9.741  1.00  0.00     0.037 C 
HETATM   24  C5  UNL     1      17.707  27.634   9.580  1.00  0.00     0.032 C 
HETATM   25  C6  UNL     1      17.737  28.529  10.787  1.00  0.00     0.273 C 
BRANCH  22  26
HETATM   26  C2  UNL     1      20.748  26.909  11.427  1.00  0.00     0.031 C 
HETATM   27  C1  UNL     1      21.342  25.563  11.176  1.00  0.00     0.007 C 
ENDBRANCH  22  26
ENDBRANCH  20  21
ENDBRANCH  17  20
ENDBRANCH  13  16
ENDBRANCH   9  10
ENDBRANCH   8   9
ENDBRANCH   1   8
BRANCH   4  28
HETATM   28  C17 UNL     1      21.295  36.861  17.570  1.00  0.00     0.160 C 
BRANCH  28  29
HETATM   29  C18 UNL     1      21.409  36.275  16.194  1.00  0.00     0.145 C 
BRANCH  29  30
HETATM   30  O2  UNL     1      20.308  35.472  15.872  1.00  0.00    -0.393 OA
ATOM     31  H2  UNL     1      20.478  34.922  15.116  1.00  0.00     0.210 HD
ENDBRANCH  29  30
BRANCH  29  32
HETATM   32  C19 UNL     1      22.652  35.376  16.241  1.00  0.00     0.112 C 
BRANCH  32  33
HETATM   33  S1  UNL     1      22.206  33.747  16.840  1.00  0.00    -0.127 SA
BRANCH  33  34
HETATM   34  C20 UNL     1      22.385  32.569  15.494  1.00  0.00     0.001 A 
HETATM   35  C21 UNL     1      23.362  31.607  15.455  1.00  0.00     0.020 A 
HETATM   36  C22 UNL     1      23.447  30.738  14.402  1.00  0.00     0.026 A 
HETATM   37  C23 UNL     1      22.560  30.802  13.355  1.00  0.00     0.040 A 
HETATM   38 CL1  UNL     1      22.616  29.727  11.987  1.00  0.00    -0.084 Cl
HETATM   39  C24 UNL     1      21.569  31.777  13.393  1.00  0.00    -0.039 A 
HETATM   40  C25 UNL     1      20.591  31.860  12.268  1.00  0.00     0.050 C 
HETATM   41  C26 UNL     1      21.481  32.646  14.445  1.00  0.00     0.027 A 
ENDBRANCH  33  34
ENDBRANCH  32  33
ENDBRANCH  29  32
ENDBRANCH  28  29
ENDBRANCH   4  28
TORSDOF 13
ENDMDL
MODEL 2
REMARK VINA RESULT: -8.849981638      2.104      4.500
REMARK  13 active torsions:
REMARK  status: ('A' for Active; 'I' for Inactive)
REMARK    1  A    between atoms: C2_2  and  C3_3 
REMARK    2  A    between atoms: N1_7  and  C7_8 
REMARK    3  A    between atoms: C7_8  and  C8_9 
REMARK       I    between atoms: C8_9  and  N2_11 
REMARK    4  A    between atoms: N2_11  and  C9_13 
REMARK    5  A    between atoms: C12_16  and  C13_17 
REMARK    6  A    between atoms: C13_17  and  C14_18 
REMARK    7  A    between atoms: C14_18  and  N3_19 
REMARK    8  A    between atoms: N4_22  and  C17_23 
REMARK    9  A    between atoms: C17_23  and  C18_24 
REMARK   10  A    between atoms: C18_24  and  O2_25 
REMARK   11  A    between atoms: C18_24  and  C19_27 
REMARK   12  A    between atoms: C19_27  and  S1_28 
REMARK   13  A    between atoms: S1_28  and  C20_29 
ROOT
HETATM    1  N3  UNL     1      20.853  36.893  18.487  1.00  0.00    -0.185 NA
HETATM    2  C15 UNL     1      20.143  35.713  18.965  1.00  0.00     0.141 C 
HETATM    3  C16 UNL     1      18.879  35.453  18.215  1.00  0.00     0.145 C 
HETATM    4  N4  UNL     1      18.169  36.680  17.872  1.00  0.00    -0.323 N 
HETATM    5  C27 UNL     1      18.652  37.880  18.454  1.00  0.00     0.380 C 
HETATM    6  O3  UNL     1      17.842  38.760  18.840  1.00  0.00    -0.237 OA
HETATM    7  O4  UNL     1      20.045  38.009  18.565  1.00  0.00    -0.207 OA
ENDROOT
BRANCH   1   8
HETATM    8  C14 UNL     1      21.296  36.650  17.143  1.00  0.00     0.121 C 
BRANCH   8   9
HETATM    9  C13 UNL     1      22.283  35.578  16.972  1.00  0.00     0.021 C 
BRANCH   9  10
HETATM   10  C12 UNL     1      22.268  34.716  15.784  1.00  0.00    -0.013 C 
HETATM   11  C11 UNL     1      21.238  33.674  15.654  1.00  0.00     0.007 C 
HETATM   12  C10 UNL     1      21.827  32.265  15.597  1.00  0.00     0.025 C 
HETATM   13  C9  UNL     1      22.809  32.111  14.489  1.00  0.00     0.084 C 
HETATM   14  C29 UNL     1      23.458  33.437  14.102  1.00  0.00     0.025 C 
HETATM   15  C28 UNL     1      23.663  34.192  15.417  1.00  0.00     0.007 C 
BRANCH  13  16
HETATM   16  N2  UNL     1      22.291  31.467  13.307  1.00  0.00    -0.355 N 
HETATM   17  C8  UNL     1      22.469  30.060  13.098  1.00  0.00     0.246 C 
HETATM   18  O1  UNL     1      23.089  29.376  13.940  1.00  0.00    -0.272 OA
ATOM     19  H2  UNL     1      21.791  32.021  12.611  1.00  0.00     0.162 HD
BRANCH  17  20
HETATM   20  C7  UNL     1      21.928  29.391  11.893  1.00  0.00     0.375 C 
BRANCH  20  21
HETATM   21  N1  UNL     1      21.665  28.003  12.034  1.00  0.00     0.101 N 
HETATM   22  C3  UNL     1      20.624  27.473  11.204  1.00  0.00     0.223 C 
HETATM   23  C4  UNL     1      20.978  26.060  10.877  1.00  0.00     0.037 C 
HETATM   24  C5  UNL     1      22.471  25.994  11.032  1.00  0.00     0.032 C 
HETATM   25  C6  UNL     1      22.795  27.148  11.937  1.00  0.00     0.273 C 
BRANCH  22  26
HETATM   26  C2  UNL     1      19.339  27.528  12.043  1.00  0.00     0.031 C 
HETATM   27  C1  UNL     1      18.183  27.684  11.113  1.00  0.00     0.007 C 
ENDBRANCH  22  26
ENDBRANCH  20  21
ENDBRANCH  17  20
ENDBRANCH  13  16
ENDBRANCH   9  10
ENDBRANCH   8   9
ENDBRANCH   1   8
BRANCH   4  28
HETATM   28  C17 UNL     1      17.043  36.632  16.989  1.00  0.00     0.160 C 
BRANCH  28  29
HETATM   29  C18 UNL     1      15.766  36.120  17.587  1.00  0.00     0.145 C 
BRANCH  29  30
HETATM   30  O2  UNL     1      15.933  35.722  18.919  1.00  0.00    -0.393 OA
ATOM     31  H2  UNL     1      15.127  35.795  19.417  1.00  0.00     0.210 HD
ENDBRANCH  29  30
BRANCH  29  32
HETATM   32  C19 UNL     1      15.406  34.876  16.764  1.00  0.00     0.112 C 
BRANCH  32  33
HETATM   33  S1  UNL     1      16.418  34.807  15.286  1.00  0.00    -0.127 SA
BRANCH  33  34
HETATM   34  C20 UNL     1      17.338  33.262  15.290  1.00  0.00     0.001 A 
HETATM   35  C21 UNL     1      17.691  32.595  16.435  1.00  0.00     0.020 A 
HETATM   36  C22 UNL     1      18.392  31.422  16.374  1.00  0.00     0.026 A 
HETATM   37  C23 UNL     1      18.762  30.878  15.168  1.00  0.00     0.040 A 
HETATM   38 CL1  UNL     1      19.655  29.391  15.024  1.00  0.00    -0.084 Cl
HETATM   39  C24 UNL     1      18.405  31.553  14.006  1.00  0.00    -0.039 A 
HETATM   40  C25 UNL     1      18.792  30.977  12.685  1.00  0.00     0.050 C 
HETATM   41  C26 UNL     1      17.704  32.725  14.065  1.00  0.00     0.027 A 
ENDBRANCH  33  34
ENDBRANCH  32  33
ENDBRANCH  29  32
ENDBRANCH  28  29
ENDBRANCH   4  28
TORSDOF 13
ENDMDL
MODEL 3
REMARK VINA RESULT: -8.797900542      2.273      4.840
REMARK  13 active torsions:
REMARK  status: ('A' for Active; 'I' for Inactive)
REMARK    1  A    between atoms: C2_2  and  C3_3 
REMARK    2  A    between atoms: N1_7  and  C7_8 
REMARK    3  A    between atoms: C7_8  and  C8_9 
REMARK       I    between atoms: C8_9  and  N2_11 
REMARK    4  A    between atoms: N2_11  and  C9_13 
REMARK    5  A    between atoms: C12_16  and  C13_17 
REMARK    6  A    between atoms: C13_17  and  C14_18 
REMARK    7  A    between atoms: C14_18  and  N3_19 
REMARK    8  A    between atoms: N4_22  and  C17_23 
REMARK    9  A    between atoms: C17_23  and  C18_24 
REMARK   10  A    between atoms: C18_24  and  O2_25 
REMARK   11  A    between atoms: C18_24  and  C19_27 
REMARK   12  A    between atoms: C19_27  and  S1_28 
REMARK   13  A    between atoms: S1_28  and  C20_29 
ROOT
HETATM    1  N3  UNL     1      21.524  36.669  18.462  1.00  0.00    -0.185 NA
HETATM    2  C15 UNL     1      20.540  35.684  18.892  1.00  0.00     0.141 C 
HETATM    3  C16 UNL     1      19.187  35.920  18.306  1.00  0.00     0.145 C 
HETATM    4  N4  UNL     1      18.855  37.338  18.218  1.00  0.00    -0.323 N 
HETATM    5  C27 UNL     1      19.737  38.240  18.865  1.00  0.00     0.380 C 
HETATM    6  O3  UNL     1      19.278  39.244  19.466  1.00  0.00    -0.237 OA
HETATM    7  O4  UNL     1      21.107  37.945  18.788  1.00  0.00    -0.207 OA
ENDROOT
BRANCH   1   8
HETATM    8  C14 UNL     1      21.732  36.525  17.049  1.00  0.00     0.121 C 
BRANCH   8   9
HETATM    9  C13 UNL     1      22.785  35.585  16.644  1.00  0.00     0.021 C 
BRANCH   9  10
HETATM   10  C12 UNL     1      22.574  34.638  15.543  1.00  0.00    -0.013 C 
HETATM   11  C11 UNL     1      21.355  33.814  15.515  1.00  0.00     0.007 C 
HETATM   12  C10 UNL     1      21.652  32.317  15.590  1.00  0.00     0.025 C 
HETATM   13  C9  UNL     1      22.560  31.869  14.498  1.00  0.00     0.084 C 
HETATM   14  C29 UNL     1      23.450  32.998  13.986  1.00  0.00     0.025 C 
HETATM   15  C28 UNL     1      23.829  33.815  15.223  1.00  0.00     0.007 C 
BRANCH  13  16
HETATM   16  N2  UNL     1      21.899  31.236  13.385  1.00  0.00    -0.355 N 
HETATM   17  C8  UNL     1      22.286  29.927  12.947  1.00  0.00     0.246 C 
HETATM   18  O1  UNL     1      23.215  29.323  13.525  1.00  0.00    -0.272 OA
ATOM     19  H2  UNL     1      21.145  31.726  12.902  1.00  0.00     0.162 HD
BRANCH  17  20
HETATM   20  C7  UNL     1      21.602  29.266  11.811  1.00  0.00     0.375 C 
BRANCH  20  21
HETATM   21  N1  UNL     1      20.867  28.096  12.141  1.00  0.00     0.101 N 
HETATM   22  C3  UNL     1      19.444  28.190  12.007  1.00  0.00     0.223 C 
HETATM   23  C4  UNL     1      18.934  26.843  11.616  1.00  0.00     0.037 C 
HETATM   24  C5  UNL     1      20.108  26.161  10.971  1.00  0.00     0.032 C 
HETATM   25  C6  UNL     1      21.300  26.899  11.512  1.00  0.00     0.273 C 
BRANCH  22  26
HETATM   26  C2  UNL     1      18.910  28.591  13.390  1.00  0.00     0.031 C 
HETATM   27  C1  UNL     1      17.737  27.725  13.703  1.00  0.00     0.007 C 
ENDBRANCH  22  26
ENDBRANCH  20  21
ENDBRANCH  17  20
ENDBRANCH  13  16
ENDBRANCH   9  10
ENDBRANCH   8   9
ENDBRANCH   1   8
BRANCH   4  28
HETATM   28  C17 UNL     1      17.685  37.755  17.508  1.00  0.00     0.160 C 
BRANCH  28  29
HETATM   29  C18 UNL     1      16.392  37.652  18.262  1.00  0.00     0.145 C 
BRANCH  29  30
HETATM   30  O2  UNL     1      16.441  38.338  19.482  1.00  0.00    -0.393 OA
ATOM     31  H2  UNL     1      16.034  39.195  19.425  1.00  0.00     0.210 HD
ENDBRANCH  29  30
BRANCH  29  32
HETATM   32  C19 UNL     1      16.220  36.158  18.566  1.00  0.00     0.112 C 
BRANCH  32  33
HETATM   33  S1  UNL     1      15.153  35.403  17.339  1.00  0.00    -0.127 SA
BRANCH  33  34
HETATM   34  C20 UNL     1      16.177  34.545  16.136  1.00  0.00     0.001 A 
HETATM   35  C21 UNL     1      16.691  35.145  15.015  1.00  0.00     0.020 A 
HETATM   36  C22 UNL     1      17.464  34.438  14.135  1.00  0.00     0.026 A 
HETATM   37  C23 UNL     1      17.748  33.111  14.346  1.00  0.00     0.040 A 
HETATM   38 CL1  UNL     1      18.724  32.158  13.264  1.00  0.00    -0.084 Cl
HETATM   39  C24 UNL     1      17.228  32.501  15.482  1.00  0.00    -0.039 A 
HETATM   40  C25 UNL     1      17.528  31.061  15.733  1.00  0.00     0.050 C 
HETATM   41  C26 UNL     1      16.455  33.205  16.363  1.00  0.00     0.027 A 
ENDBRANCH  33  34
ENDBRANCH  32  33
ENDBRANCH  29  32
ENDBRANCH  28  29
ENDBRANCH   4  28
TORSDOF 13
ENDMDL
MODEL 4
REMARK VINA RESULT: -8.758899916      2.342      4.720
REMARK  13 active torsions:
REMARK  status: ('A' for Active; 'I' for Inactive)
REMARK    1  A    between atoms: C2_2  and  C3_3 
REMARK    2  A    between atoms: N1_7  and  C7_8 
REMARK    3  A    between atoms: C7_8  and  C8_9 
REMARK       I    between atoms: C8_9  and  N2_11 
REMARK    4  A    between atoms: N2_11  and  C9_13 
REMARK    5  A    between atoms: C12_16  and  C13_17 
REMARK    6  A    between atoms: C13_17  and  C14_18 
REMARK    7  A    between atoms: C14_18  and  N3_19 
REMARK    8  A    between atoms: N4_22  and  C17_23 
REMARK    9  A    between atoms: C17_23  and  C18_24 
REMARK   10  A    between atoms: C18_24  and  O2_25 
REMARK   11  A    between atoms: C18_24  and  C19_27 
REMARK   12  A    between atoms: C19_27  and  S1_28 
REMARK   13  A    between atoms: S1_28  and  C20_29 
ROOT
HETATM    1  N3  UNL     1      20.953  36.483  18.635  1.00  0.00    -0.185 NA
HETATM    2  C15 UNL     1      20.053  35.514  19.247  1.00  0.00     0.141 C 
HETATM    3  C16 UNL     1      18.733  35.429  18.556  1.00  0.00     0.145 C 
HETATM    4  N4  UNL     1      18.254  36.730  18.103  1.00  0.00    -0.323 N 
HETATM    5  C27 UNL     1      18.977  37.866  18.548  1.00  0.00     0.380 C 
HETATM    6  O3  UNL     1      18.364  38.918  18.859  1.00  0.00    -0.237 OA
HETATM    7  O4  UNL     1      20.373  37.736  18.615  1.00  0.00    -0.207 OA
ENDROOT
BRANCH   1   8
HETATM    8  C14 UNL     1      21.286  36.031  17.314  1.00  0.00     0.121 C 
BRANCH   8   9
HETATM    9  C13 UNL     1      22.459  35.155  17.208  1.00  0.00     0.021 C 
BRANCH   9  10
HETATM   10  C12 UNL     1      22.322  33.749  16.807  1.00  0.00    -0.013 C 
HETATM   11  C11 UNL     1      23.379  33.115  16.005  1.00  0.00     0.007 C 
HETATM   12  C10 UNL     1      22.881  32.647  14.637  1.00  0.00     0.025 C 
HETATM   13  C9  UNL     1      21.733  31.707  14.749  1.00  0.00     0.084 C 
HETATM   14  C29 UNL     1      20.941  31.910  16.039  1.00  0.00     0.025 C 
HETATM   15  C28 UNL     1      20.921  33.421  16.273  1.00  0.00     0.007 C 
BRANCH  13  16
HETATM   16  N2  UNL     1      22.077  30.313  14.611  1.00  0.00    -0.355 N 
HETATM   17  C8  UNL     1      22.188  29.707  13.318  1.00  0.00     0.246 C 
HETATM   18  O1  UNL     1      21.975  30.385  12.289  1.00  0.00    -0.272 OA
ATOM     19  H2  UNL     1      22.245  29.751  15.447  1.00  0.00     0.162 HD
BRANCH  17  20
HETATM   20  C7  UNL     1      22.554  28.280  13.169  1.00  0.00     0.375 C 
BRANCH  20  21
HETATM   21  N1  UNL     1      22.363  27.734  11.872  1.00  0.00     0.101 N 
HETATM   22  C3  UNL     1      23.279  26.704  11.482  1.00  0.00     0.223 C 
HETATM   23  C4  UNL     1      22.549  25.764  10.580  1.00  0.00     0.037 C 
HETATM   24  C5  UNL     1      21.100  25.940  10.935  1.00  0.00     0.032 C 
HETATM   25  C6  UNL     1      21.044  27.299  11.575  1.00  0.00     0.273 C 
BRANCH  22  26
HETATM   26  C2  UNL     1      24.416  27.407  10.726  1.00  0.00     0.031 C 
HETATM   27  C1  UNL     1      25.696  27.110  11.433  1.00  0.00     0.007 C 
ENDBRANCH  22  26
ENDBRANCH  20  21
ENDBRANCH  17  20
ENDBRANCH  13  16
ENDBRANCH   9  10
ENDBRANCH   8   9
ENDBRANCH   1   8
BRANCH   4  28
HETATM   28  C17 UNL     1      17.104  36.813  17.256  1.00  0.00     0.160 C 
BRANCH  28  29
HETATM   29  C18 UNL     1      15.784  36.546  17.917  1.00  0.00     0.145 C 
BRANCH  29  30
HETATM   30  O2  UNL     1      15.933  35.852  19.124  1.00  0.00    -0.393 OA
ATOM     31  H2  UNL     1      15.539  36.317  19.853  1.00  0.00     0.210 HD
ENDBRANCH  29  30
BRANCH  29  32
HETATM   32  C19 UNL     1      15.020  35.640  16.942  1.00  0.00     0.112 C 
BRANCH  32  33
HETATM   33  S1  UNL     1      15.497  33.931  17.195  1.00  0.00    -0.127 SA
BRANCH  33  34
HETATM   34  C20 UNL     1      16.585  33.433  15.853  1.00  0.00     0.001 A 
HETATM   35  C21 UNL     1      17.213  34.322  15.018  1.00  0.00     0.020 A 
HETATM   36  C22 UNL     1      18.030  33.881  14.014  1.00  0.00     0.026 A 
HETATM   37  C23 UNL     1      18.247  32.540  13.811  1.00  0.00     0.040 A 
HETATM   38 CL1  UNL     1      19.274  31.917  12.551  1.00  0.00    -0.084 Cl
HETATM   39  C24 UNL     1      17.611  31.637  14.656  1.00  0.00    -0.039 A 
HETATM   40  C25 UNL     1      17.837  30.176  14.457  1.00  0.00     0.050 C 
HETATM   41  C26 UNL     1      16.795  32.075  15.661  1.00  0.00     0.027 A 
ENDBRANCH  33  34
ENDBRANCH  32  33
ENDBRANCH  29  32
ENDBRANCH  28  29
ENDBRANCH   4  28
TORSDOF 13
ENDMDL
MODEL 5
REMARK VINA RESULT: -8.757469554      2.131      3.907
REMARK  13 active torsions:
REMARK  status: ('A' for Active; 'I' for Inactive)
REMARK    1  A    between atoms: C2_2  and  C3_3 
REMARK    2  A    between atoms: N1_7  and  C7_8 
REMARK    3  A    between atoms: C7_8  and  C8_9 
REMARK       I    between atoms: C8_9  and  N2_11 
REMARK    4  A    between atoms: N2_11  and  C9_13 
REMARK    5  A    between atoms: C12_16  and  C13_17 
REMARK    6  A    between atoms: C13_17  and  C14_18 
REMARK    7  A    between atoms: C14_18  and  N3_19 
REMARK    8  A    between atoms: N4_22  and  C17_23 
REMARK    9  A    between atoms: C17_23  and  C18_24 
REMARK   10  A    between atoms: C18_24  and  O2_25 
REMARK   11  A    between atoms: C18_24  and  C19_27 
REMARK   12  A    between atoms: C19_27  and  S1_28 
REMARK   13  A    between atoms: S1_28  and  C20_29 
ROOT
HETATM    1  N3  UNL     1      16.169  33.298  15.593  1.00  0.00    -0.185 NA
HETATM    2  C15 UNL     1      16.082  34.628  15.002  1.00  0.00     0.141 C 
HETATM    3  C16 UNL     1      16.981  35.618  15.664  1.00  0.00     0.145 C 
HETATM    4  N4  UNL     1      17.050  35.432  17.109  1.00  0.00    -0.323 N 
HETATM    5  C27 UNL     1      16.133  34.512  17.678  1.00  0.00     0.380 C 
HETATM    6  O3  UNL     1      15.602  34.763  18.789  1.00  0.00    -0.237 OA
HETATM    7  O4  UNL     1      15.871  33.347  16.941  1.00  0.00    -0.207 OA
ENDROOT
BRANCH   1   8
HETATM    8  C14 UNL     1      17.485  32.776  15.359  1.00  0.00     0.121 C 
BRANCH   8   9
HETATM    9  C13 UNL     1      17.739  32.242  14.016  1.00  0.00     0.021 C 
BRANCH   9  10
HETATM   10  C12 UNL     1      18.551  31.035  13.820  1.00  0.00    -0.013 C 
HETATM   11  C11 UNL     1      19.219  30.809  12.529  1.00  0.00     0.007 C 
HETATM   12  C10 UNL     1      18.733  29.540  11.828  1.00  0.00     0.025 C 
HETATM   13  C9  UNL     1      18.903  28.329  12.676  1.00  0.00     0.084 C 
HETATM   14  C29 UNL     1      18.901  28.660  14.166  1.00  0.00     0.025 C 
HETATM   15  C28 UNL     1      17.858  29.767  14.337  1.00  0.00     0.007 C 
BRANCH  13  16
HETATM   16  N2  UNL     1      20.062  27.531  12.362  1.00  0.00    -0.355 N 
HETATM   17  C8  UNL     1      19.925  26.244  11.747  1.00  0.00     0.246 C 
HETATM   18  O1  UNL     1      18.789  25.795  11.483  1.00  0.00    -0.272 OA
ATOM     19  H2  UNL     1      20.993  27.887  12.582  1.00  0.00     0.162 HD
BRANCH  17  20
HETATM   20  C7  UNL     1      21.113  25.425  11.411  1.00  0.00     0.375 C 
BRANCH  20  21
HETATM   21  N1  UNL     1      22.063  26.049  10.561  1.00  0.00     0.101 N 
HETATM   22  C3  UNL     1      23.409  26.093  11.049  1.00  0.00     0.223 C 
HETATM   23  C4  UNL     1      24.322  26.017   9.870  1.00  0.00     0.037 C 
HETATM   24  C5  UNL     1      23.509  25.348   8.799  1.00  0.00     0.032 C 
HETATM   25  C6  UNL     1      22.086  25.587   9.219  1.00  0.00     0.273 C 
BRANCH  22  26
HETATM   26  C2  UNL     1      23.560  27.444  11.764  1.00  0.00     0.031 C 
HETATM   27  C1  UNL     1      25.017  27.743  11.888  1.00  0.00     0.007 C 
ENDBRANCH  22  26
ENDBRANCH  20  21
ENDBRANCH  17  20
ENDBRANCH  13  16
ENDBRANCH   9  10
ENDBRANCH   8   9
ENDBRANCH   1   8
BRANCH   4  28
HETATM   28  C17 UNL     1      18.009  36.165  17.879  1.00  0.00     0.160 C 
BRANCH  28  29
HETATM   29  C18 UNL     1      19.211  35.391  18.334  1.00  0.00     0.145 C 
BRANCH  29  30
HETATM   30  O2  UNL     1      19.565  35.700  19.653  1.00  0.00    -0.393 OA
ATOM     31  H2  UNL     1      20.259  36.347  19.693  1.00  0.00     0.210 HD
ENDBRANCH  29  30
BRANCH  29  32
HETATM   32  C19 UNL     1      20.354  35.849  17.418  1.00  0.00     0.112 C 
BRANCH  32  33
HETATM   33  S1  UNL     1      21.855  34.956  17.821  1.00  0.00    -0.127 SA
BRANCH  33  34
HETATM   34  C20 UNL     1      21.969  33.511  16.758  1.00  0.00     0.001 A 
HETATM   35  C21 UNL     1      20.958  32.594  16.616  1.00  0.00     0.020 A 
HETATM   36  C22 UNL     1      21.104  31.513  15.791  1.00  0.00     0.026 A 
HETATM   37  C23 UNL     1      22.263  31.313  15.081  1.00  0.00     0.040 A 
HETATM   38 CL1  UNL     1      22.510  29.958  14.016  1.00  0.00    -0.084 Cl
HETATM   39  C24 UNL     1      23.288  32.241  15.223  1.00  0.00    -0.039 A 
HETATM   40  C25 UNL     1      24.554  32.046  14.456  1.00  0.00     0.050 C 
HETATM   41  C26 UNL     1      23.144  33.323  16.047  1.00  0.00     0.027 A 
ENDBRANCH  33  34
ENDBRANCH  32  33
ENDBRANCH  29  32
ENDBRANCH  28  29
ENDBRANCH   4  28
TORSDOF 13
ENDMDL
