MODEL 1
REMARK VINA RESULT: -6.268541480      0.000      0.000
REMARK  16 active torsions:
REMARK  status: ('A' for Active; 'I' for Inactive)
REMARK    1  A    between atoms: C2_2  and  C3_3 
REMARK    2  A    between atoms: C3_3  and  O1_4 
REMARK    3  A    between atoms: C3_3  and  C4_6 
REMARK    4  A    between atoms: C11_13  and  O2_14 
REMARK    5  A    between atoms: C12_16  and  O3_17 
REMARK    6  A    between atoms: C14_21  and  C15_22 
REMARK    7  A    between atoms: C15_22  and  C16_23 
REMARK    8  A    between atoms: C20_29  and  C21_30 
REMARK    9  A    between atoms: C20_29  and  C25_34 
REMARK   10  A    between atoms: C21_30  and  C22_31 
REMARK   11  A    between atoms: C22_31  and  C23_32 
REMARK   12  A    between atoms: C25_34  and  C26_35 
REMARK   13  A    between atoms: C26_35  and  C27_36 
REMARK   14  A    between atoms: C27_36  and  N1_37 
REMARK   15  A    between atoms: N1_37  and  C28_38 
REMARK   16  A    between atoms: N1_37  and  C30_40 
ROOT
HETATM    1  C4  UNL     1      16.963  36.901  17.494  1.00  0.00     0.116 C 
HETATM    2  C5  UNL     1      16.970  38.358  17.271  1.00  0.00     0.028 C 
HETATM    3  C6  UNL     1      15.966  39.219  17.932  1.00  0.00     0.002 C 
HETATM    4  C7  UNL     1      15.951  39.123  19.441  1.00  0.00     0.000 C 
HETATM    5  C8  UNL     1      16.080  40.466  20.125  1.00  0.00     0.000 C 
HETATM    6  C9  UNL     1      17.201  41.290  19.558  1.00  0.00     0.002 C 
HETATM    7  C10 UNL     1      18.002  41.977  20.651  1.00  0.00     0.034 C 
HETATM    8  C11 UNL     1      19.501  41.893  20.379  1.00  0.00     0.149 C 
HETATM    9  C12 UNL     1      19.872  42.313  18.997  1.00  0.00     0.170 C 
HETATM   10  C13 UNL     1      21.120  41.516  18.591  1.00  0.00     0.203 C 
HETATM   11  O4  UNL     1      20.691  40.255  18.293  1.00  0.00    -0.373 OA
HETATM   12  C14 UNL     1      21.616  39.390  17.766  1.00  0.00     0.221 C 
HETATM   13  C19 UNL     1      20.920  38.563  16.743  1.00  0.00     0.289 C 
HETATM   14  O5  UNL     1      20.246  39.327  15.953  1.00  0.00    -0.262 OA
HETATM   15  O6  UNL     1      21.029  37.258  16.714  1.00  0.00    -0.298 OA
HETATM   16  C20 UNL     1      20.408  36.141  17.389  1.00  0.00     0.151 C 
HETATM   17  C32 UNL     1      19.374  36.556  18.355  1.00  0.00     0.253 C 
HETATM   18  O7  UNL     1      19.911  37.166  19.368  1.00  0.00    -0.270 OA
HETATM   19  N2  UNL     1      18.004  36.420  18.385  1.00  0.00    -0.351 N 
ATOM     20  H2  UNL     1      17.656  35.882  19.179  1.00  0.00     0.163 HD
ENDROOT
BRANCH  16  21
HETATM   21  C21 UNL     1      19.967  35.271  16.275  1.00  0.00     0.049 C 
BRANCH  21  22
HETATM   22  C22 UNL     1      18.979  34.218  16.423  1.00  0.00     0.003 C 
BRANCH  22  23
HETATM   23  C23 UNL     1      18.386  33.969  15.001  1.00  0.00    -0.004 C 
HETATM   24  C24 UNL     1      17.717  32.641  14.909  1.00  0.00     0.005 C 
ENDBRANCH  22  23
ENDBRANCH  21  22
ENDBRANCH  16  21
BRANCH  16  25
HETATM   25  C25 UNL     1      21.626  35.599  18.156  1.00  0.00     0.050 C 
BRANCH  25  26
HETATM   26  C26 UNL     1      22.572  34.741  17.460  1.00  0.00     0.034 C 
BRANCH  26  27
HETATM   27  C27 UNL     1      22.196  33.277  17.830  1.00  0.00     0.272 C 
BRANCH  27  28
HETATM   28  N1  UNL     1      22.610  32.357  16.822  1.00  0.00     0.087 N 
BRANCH  28  29
HETATM   29  C28 UNL     1      21.579  31.847  15.975  1.00  0.00     0.268 C 
HETATM   30  C29 UNL     1      20.549  31.007  16.696  1.00  0.00     0.037 C 
ENDBRANCH  28  29
BRANCH  28  31
HETATM   31  C30 UNL     1      23.594  33.035  15.998  1.00  0.00     0.268 C 
HETATM   32  C31 UNL     1      23.410  32.642  14.539  1.00  0.00     0.037 C 
ENDBRANCH  28  31
ENDBRANCH  27  28
ENDBRANCH  26  27
ENDBRANCH  25  26
ENDBRANCH  16  25
BRANCH  12  33
HETATM   33  C15 UNL     1      22.711  40.238  17.098  1.00  0.00     0.046 C 
BRANCH  33  34
HETATM   34  C16 UNL     1      24.075  39.864  17.645  1.00  0.00    -0.020 C 
HETATM   35  C17 UNL     1      24.691  41.138  18.189  1.00  0.00     0.009 C 
HETATM   36  C18 UNL     1      23.946  38.910  18.823  1.00  0.00     0.009 C 
ENDBRANCH  33  34
ENDBRANCH  12  33
BRANCH   1  37
HETATM   37  C3  UNL     1      15.609  36.353  17.926  1.00  0.00     0.162 C 
BRANCH  37  38
HETATM   38  C2  UNL     1      15.088  35.307  17.012  1.00  0.00    -0.004 C 
HETATM   39  C1  UNL     1      15.191  34.028  17.188  1.00  0.00     0.009 C 
ENDBRANCH  37  38
BRANCH  37  40
HETATM   40  O1  UNL     1      15.821  35.695  19.155  1.00  0.00    -0.390 OA
ATOM     41  H1  UNL     1      15.663  36.354  19.820  1.00  0.00     0.210 HD
ENDBRANCH  37  40
ENDBRANCH   1  37
BRANCH   9  42
HETATM   42  O3  UNL     1      20.156  43.692  18.992  1.00  0.00    -0.391 OA
ATOM     43  H3  UNL     1      20.209  43.997  18.094  1.00  0.00     0.210 HD
ENDBRANCH   9  42
BRANCH   8  44
HETATM   44  O2  UNL     1      20.000  40.645  20.747  1.00  0.00    -0.393 OA
ATOM     45  H2  UNL     1      20.293  40.162  19.984  1.00  0.00     0.210 HD
ENDBRANCH   8  44
TORSDOF 16
ENDMDL
MODEL 2
REMARK VINA RESULT: -5.927720112      2.027      5.832
REMARK  16 active torsions:
REMARK  status: ('A' for Active; 'I' for Inactive)
REMARK    1  A    between atoms: C2_2  and  C3_3 
REMARK    2  A    between atoms: C3_3  and  O1_4 
REMARK    3  A    between atoms: C3_3  and  C4_6 
REMARK    4  A    between atoms: C11_13  and  O2_14 
REMARK    5  A    between atoms: C12_16  and  O3_17 
REMARK    6  A    between atoms: C14_21  and  C15_22 
REMARK    7  A    between atoms: C15_22  and  C16_23 
REMARK    8  A    between atoms: C20_29  and  C21_30 
REMARK    9  A    between atoms: C20_29  and  C25_34 
REMARK   10  A    between atoms: C21_30  and  C22_31 
REMARK   11  A    between atoms: C22_31  and  C23_32 
REMARK   12  A    between atoms: C25_34  and  C26_35 
REMARK   13  A    between atoms: C26_35  and  C27_36 
REMARK   14  A    between atoms: C27_36  and  N1_37 
REMARK   15  A    between atoms: N1_37  and  C28_38 
REMARK   16  A    between atoms: N1_37  and  C30_40 
ROOT
HETATM    1  C4  UNL     1      22.410  38.766  19.074  1.00  0.00     0.116 C 
HETATM    2  C5  UNL     1      21.267  39.548  19.576  1.00  0.00     0.028 C 
HETATM    3  C6  UNL     1      21.350  41.023  19.657  1.00  0.00     0.002 C 
HETATM    4  C7  UNL     1      21.659  41.707  18.344  1.00  0.00     0.000 C 
HETATM    5  C8  UNL     1      20.661  42.785  17.985  1.00  0.00     0.000 C 
HETATM    6  C9  UNL     1      19.240  42.321  18.132  1.00  0.00     0.002 C 
HETATM    7  C10 UNL     1      18.376  42.778  16.971  1.00  0.00     0.034 C 
HETATM    8  C11 UNL     1      17.448  41.664  16.494  1.00  0.00     0.149 C 
HETATM    9  C12 UNL     1      16.686  41.019  17.603  1.00  0.00     0.170 C 
HETATM   10  C13 UNL     1      16.439  39.558  17.205  1.00  0.00     0.203 C 
HETATM   11  O4  UNL     1      17.623  38.903  17.388  1.00  0.00    -0.373 OA
HETATM   12  C14 UNL     1      17.614  37.541  17.228  1.00  0.00     0.221 C 
HETATM   13  C19 UNL     1      18.528  36.966  18.252  1.00  0.00     0.289 C 
HETATM   14  O5  UNL     1      18.257  37.470  19.407  1.00  0.00    -0.262 OA
HETATM   15  O6  UNL     1      19.445  36.082  17.946  1.00  0.00    -0.298 OA
HETATM   16  C20 UNL     1      20.787  36.109  17.411  1.00  0.00     0.151 C 
HETATM   17  C32 UNL     1      21.273  37.476  17.147  1.00  0.00     0.253 C 
HETATM   18  O7  UNL     1      20.622  38.011  16.158  1.00  0.00    -0.270 OA
HETATM   19  N2  UNL     1      22.250  38.257  17.724  1.00  0.00    -0.351 N 
ATOM     20  H2  UNL     1      22.997  38.528  17.085  1.00  0.00     0.163 HD
ENDROOT
BRANCH  16  21
HETATM   21  C21 UNL     1      21.559  35.306  18.386  1.00  0.00     0.049 C 
BRANCH  21  22
HETATM   22  C22 UNL     1      22.749  34.549  18.039  1.00  0.00     0.003 C 
BRANCH  22  23
HETATM   23  C23 UNL     1      22.290  33.068  17.859  1.00  0.00    -0.004 C 
HETATM   24  C24 UNL     1      22.912  32.441  16.659  1.00  0.00     0.005 C 
ENDBRANCH  22  23
ENDBRANCH  21  22
ENDBRANCH  16  21
BRANCH  16  25
HETATM   25  C25 UNL     1      20.542  35.393  16.072  1.00  0.00     0.050 C 
BRANCH  25  26
HETATM   26  C26 UNL     1      19.495  34.386  15.994  1.00  0.00     0.034 C 
BRANCH  26  27
HETATM   27  C27 UNL     1      19.958  33.349  14.929  1.00  0.00     0.272 C 
BRANCH  27  28
HETATM   28  N1  UNL     1      19.175  32.159  14.980  1.00  0.00     0.087 N 
BRANCH  28  29
HETATM   29  C28 UNL     1      18.903  31.640  16.283  1.00  0.00     0.268 C 
HETATM   30  C29 UNL     1      19.787  30.478  16.679  1.00  0.00     0.037 C 
ENDBRANCH  28  29
BRANCH  28  31
HETATM   31  C30 UNL     1      17.913  32.445  14.323  1.00  0.00     0.268 C 
HETATM   32  C31 UNL     1      16.754  32.012  15.210  1.00  0.00     0.037 C 
ENDBRANCH  28  31
ENDBRANCH  27  28
ENDBRANCH  26  27
ENDBRANCH  25  26
ENDBRANCH  16  25
BRANCH  12  33
HETATM   33  C15 UNL     1      16.175  37.057  17.480  1.00  0.00     0.046 C 
BRANCH  33  34
HETATM   34  C16 UNL     1      16.012  35.623  17.016  1.00  0.00    -0.020 C 
HETATM   35  C17 UNL     1      14.587  35.219  17.340  1.00  0.00     0.009 C 
HETATM   36  C18 UNL     1      16.157  35.520  15.505  1.00  0.00     0.009 C 
ENDBRANCH  33  34
ENDBRANCH  12  33
BRANCH   1  37
HETATM   37  C3  UNL     1      23.750  39.479  19.210  1.00  0.00     0.162 C 
BRANCH  37  38
HETATM   38  C2  UNL     1      24.685  38.787  20.130  1.00  0.00    -0.004 C 
HETATM   39  C1  UNL     1      24.667  38.858  21.423  1.00  0.00     0.009 C 
ENDBRANCH  37  38
BRANCH  37  40
HETATM   40  O1  UNL     1      24.364  39.412  17.942  1.00  0.00    -0.390 OA
ATOM     41  H1  UNL     1      23.648  39.335  17.323  1.00  0.00     0.210 HD
ENDBRANCH  37  40
ENDBRANCH   1  37
BRANCH   9  42
HETATM   42  O3  UNL     1      15.459  41.688  17.773  1.00  0.00    -0.391 OA
ATOM     43  H3  UNL     1      14.791  41.059  18.017  1.00  0.00     0.210 HD
ENDBRANCH   9  42
BRANCH   8  44
HETATM   44  O2  UNL     1      18.134  40.766  15.679  1.00  0.00    -0.393 OA
ATOM     45  H2  UNL     1      18.035  40.999  14.764  1.00  0.00     0.210 HD
ENDBRANCH   8  44
TORSDOF 16
ENDMDL
MODEL 3
REMARK VINA RESULT: -5.902285429      2.498      4.467
REMARK  16 active torsions:
REMARK  status: ('A' for Active; 'I' for Inactive)
REMARK    1  A    between atoms: C2_2  and  C3_3 
REMARK    2  A    between atoms: C3_3  and  O1_4 
REMARK    3  A    between atoms: C3_3  and  C4_6 
REMARK    4  A    between atoms: C11_13  and  O2_14 
REMARK    5  A    between atoms: C12_16  and  O3_17 
REMARK    6  A    between atoms: C14_21  and  C15_22 
REMARK    7  A    between atoms: C15_22  and  C16_23 
REMARK    8  A    between atoms: C20_29  and  C21_30 
REMARK    9  A    between atoms: C20_29  and  C25_34 
REMARK   10  A    between atoms: C21_30  and  C22_31 
REMARK   11  A    between atoms: C22_31  and  C23_32 
REMARK   12  A    between atoms: C25_34  and  C26_35 
REMARK   13  A    between atoms: C26_35  and  C27_36 
REMARK   14  A    between atoms: C27_36  and  N1_37 
REMARK   15  A    between atoms: N1_37  and  C28_38 
REMARK   16  A    between atoms: N1_37  and  C30_40 
ROOT
HETATM    1  C4  UNL     1      18.538  36.714  18.022  1.00  0.00     0.116 C 
HETATM    2  C5  UNL     1      17.893  37.667  17.101  1.00  0.00     0.028 C 
HETATM    3  C6  UNL     1      16.452  37.974  17.234  1.00  0.00     0.002 C 
HETATM    4  C7  UNL     1      16.046  38.508  18.589  1.00  0.00     0.000 C 
HETATM    5  C8  UNL     1      15.292  39.817  18.512  1.00  0.00     0.000 C 
HETATM    6  C9  UNL     1      15.971  40.817  17.621  1.00  0.00     0.002 C 
HETATM    7  C10 UNL     1      15.971  42.207  18.231  1.00  0.00     0.034 C 
HETATM    8  C11 UNL     1      17.320  42.895  18.052  1.00  0.00     0.149 C 
HETATM    9  C12 UNL     1      17.822  42.847  16.648  1.00  0.00     0.170 C 
HETATM   10  C13 UNL     1      19.356  42.828  16.706  1.00  0.00     0.203 C 
HETATM   11  O4  UNL     1      19.712  41.563  17.073  1.00  0.00    -0.373 OA
HETATM   12  C14 UNL     1      21.050  41.262  17.058  1.00  0.00     0.221 C 
HETATM   13  C19 UNL     1      21.186  39.860  16.578  1.00  0.00     0.289 C 
HETATM   14  O5  UNL     1      20.488  39.699  15.506  1.00  0.00    -0.262 OA
HETATM   15  O6  UNL     1      21.926  38.980  17.206  1.00  0.00    -0.298 OA
HETATM   16  C20 UNL     1      21.769  38.101  18.342  1.00  0.00     0.151 C 
HETATM   17  C32 UNL     1      20.434  38.196  18.962  1.00  0.00     0.253 C 
HETATM   18  O7  UNL     1      20.278  39.349  19.541  1.00  0.00    -0.270 OA
HETATM   19  N2  UNL     1      19.368  37.327  19.043  1.00  0.00    -0.351 N 
ATOM     20  H2  UNL     1      19.116  37.067  19.997  1.00  0.00     0.163 HD
ENDROOT
BRANCH  16  21
HETATM   21  C21 UNL     1      22.160  36.777  17.808  1.00  0.00     0.049 C 
BRANCH  21  22
HETATM   22  C22 UNL     1      22.044  35.542  18.561  1.00  0.00     0.003 C 
BRANCH  22  23
HETATM   23  C23 UNL     1      21.574  34.452  17.547  1.00  0.00    -0.004 C 
HETATM   24  C24 UNL     1      21.095  35.057  16.272  1.00  0.00     0.005 C 
ENDBRANCH  22  23
ENDBRANCH  21  22
ENDBRANCH  16  21
BRANCH  16  25
HETATM   25  C25 UNL     1      22.810  38.722  19.289  1.00  0.00     0.050 C 
BRANCH  25  26
HETATM   26  C26 UNL     1      24.175  38.894  18.818  1.00  0.00     0.034 C 
BRANCH  26  27
HETATM   27  C27 UNL     1      24.865  39.876  19.809  1.00  0.00     0.272 C 
BRANCH  27  28
HETATM   28  N1  UNL     1      25.733  39.192  20.709  1.00  0.00     0.087 N 
BRANCH  28  29
HETATM   29  C28 UNL     1      27.057  39.716  20.826  1.00  0.00     0.268 C 
HETATM   30  C29 UNL     1      27.931  39.453  19.621  1.00  0.00     0.037 C 
ENDBRANCH  28  29
BRANCH  28  31
HETATM   31  C30 UNL     1      25.106  39.219  22.017  1.00  0.00     0.268 C 
HETATM   32  C31 UNL     1      25.125  37.827  22.633  1.00  0.00     0.037 C 
ENDBRANCH  28  31
ENDBRANCH  27  28
ENDBRANCH  26  27
ENDBRANCH  25  26
ENDBRANCH  16  25
BRANCH  12  33
HETATM   33  C15 UNL     1      21.727  42.223  16.065  1.00  0.00     0.046 C 
BRANCH  33  34
HETATM   34  C16 UNL     1      23.064  42.687  16.609  1.00  0.00    -0.020 C 
HETATM   35  C17 UNL     1      22.956  42.651  18.120  1.00  0.00     0.009 C 
HETATM   36  C18 UNL     1      24.172  41.714  16.232  1.00  0.00     0.009 C 
ENDBRANCH  33  34
ENDBRANCH  12  33
BRANCH   1  37
HETATM   37  C3  UNL     1      17.571  35.723  18.658  1.00  0.00     0.162 C 
BRANCH  37  38
HETATM   38  C2  UNL     1      17.003  34.761  17.683  1.00  0.00    -0.004 C 
HETATM   39  C1  UNL     1      17.672  33.880  17.009  1.00  0.00     0.009 C 
ENDBRANCH  37  38
BRANCH  37  40
HETATM   40  O1  UNL     1      18.336  34.939  19.546  1.00  0.00    -0.390 OA
ATOM     41  H1  UNL     1      19.181  34.839  19.126  1.00  0.00     0.210 HD
ENDBRANCH  37  40
ENDBRANCH   1  37
BRANCH   9  42
HETATM   42  O3  UNL     1      17.379  43.991  15.958  1.00  0.00    -0.391 OA
ATOM     43  H3  UNL     1      18.125  44.432  15.570  1.00  0.00     0.210 HD
ENDBRANCH   9  42
BRANCH   8  44
HETATM   44  O2  UNL     1      18.236  42.439  18.998  1.00  0.00    -0.393 OA
ATOM     45  H2  UNL     1      19.081  42.274  18.597  1.00  0.00     0.210 HD
ENDBRANCH   8  44
TORSDOF 16
ENDMDL
MODEL 4
REMARK VINA RESULT: -5.898665784      2.747      6.694
REMARK  16 active torsions:
REMARK  status: ('A' for Active; 'I' for Inactive)
REMARK    1  A    between atoms: C2_2  and  C3_3 
REMARK    2  A    between atoms: C3_3  and  O1_4 
REMARK    3  A    between atoms: C3_3  and  C4_6 
REMARK    4  A    between atoms: C11_13  and  O2_14 
REMARK    5  A    between atoms: C12_16  and  O3_17 
REMARK    6  A    between atoms: C14_21  and  C15_22 
REMARK    7  A    between atoms: C15_22  and  C16_23 
REMARK    8  A    between atoms: C20_29  and  C21_30 
REMARK    9  A    between atoms: C20_29  and  C25_34 
REMARK   10  A    between atoms: C21_30  and  C22_31 
REMARK   11  A    between atoms: C22_31  and  C23_32 
REMARK   12  A    between atoms: C25_34  and  C26_35 
REMARK   13  A    between atoms: C26_35  and  C27_36 
REMARK   14  A    between atoms: C27_36  and  N1_37 
REMARK   15  A    between atoms: N1_37  and  C28_38 
REMARK   16  A    between atoms: N1_37  and  C30_40 
ROOT
HETATM    1  C4  UNL     1      17.482  40.527  17.659  1.00  0.00     0.116 C 
HETATM    2  C5  UNL     1      17.712  39.329  18.486  1.00  0.00     0.028 C 
HETATM    3  C6  UNL     1      16.816  38.159  18.370  1.00  0.00     0.002 C 
HETATM    4  C7  UNL     1      16.719  37.577  16.978  1.00  0.00     0.000 C 
HETATM    5  C8  UNL     1      17.012  36.094  16.930  1.00  0.00     0.000 C 
HETATM    6  C9  UNL     1      18.266  35.735  17.675  1.00  0.00     0.002 C 
HETATM    7  C10 UNL     1      19.108  34.731  16.908  1.00  0.00     0.034 C 
HETATM    8  C11 UNL     1      20.589  35.093  16.958  1.00  0.00     0.149 C 
HETATM    9  C12 UNL     1      21.080  35.370  18.340  1.00  0.00     0.170 C 
HETATM   10  C13 UNL     1      22.215  36.397  18.229  1.00  0.00     0.203 C 
HETATM   11  O4  UNL     1      21.620  37.604  17.998  1.00  0.00    -0.373 OA
HETATM   12  C14 UNL     1      22.432  38.710  18.000  1.00  0.00     0.221 C 
HETATM   13  C19 UNL     1      21.670  39.820  18.634  1.00  0.00     0.289 C 
HETATM   14  O5  UNL     1      21.151  39.413  19.741  1.00  0.00    -0.262 OA
HETATM   15  O6  UNL     1      21.588  41.007  18.086  1.00  0.00    -0.298 OA
HETATM   16  C20 UNL     1      20.781  41.635  17.064  1.00  0.00     0.151 C 
HETATM   17  C32 UNL     1      19.775  40.724  16.486  1.00  0.00     0.253 C 
HETATM   18  O7  UNL     1      20.350  39.794  15.784  1.00  0.00    -0.270 OA
HETATM   19  N2  UNL     1      18.400  40.679  16.544  1.00  0.00    -0.351 N 
ATOM     20  H2  UNL     1      17.943  40.769  15.637  1.00  0.00     0.163 HD
ENDROOT
BRANCH  16  21
HETATM   21  C21 UNL     1      20.268  42.851  17.734  1.00  0.00     0.049 C 
BRANCH  21  22
HETATM   22  C22 UNL     1      20.476  43.141  19.141  1.00  0.00     0.003 C 
BRANCH  22  23
HETATM   23  C23 UNL     1      19.071  43.066  19.818  1.00  0.00    -0.004 C 
HETATM   24  C24 UNL     1      19.006  41.974  20.830  1.00  0.00     0.005 C 
ENDBRANCH  22  23
ENDBRANCH  21  22
ENDBRANCH  16  21
BRANCH  16  25
HETATM   25  C25 UNL     1      21.871  41.914  16.016  1.00  0.00     0.050 C 
BRANCH  25  26
HETATM   26  C26 UNL     1      21.665  42.988  15.056  1.00  0.00     0.034 C 
BRANCH  26  27
HETATM   27  C27 UNL     1      22.891  42.967  14.099  1.00  0.00     0.272 C 
BRANCH  27  28
HETATM   28  N1  UNL     1      23.283  41.635  13.775  1.00  0.00     0.087 N 
BRANCH  28  29
HETATM   29  C28 UNL     1      22.767  41.107  12.552  1.00  0.00     0.268 C 
HETATM   30  C29 UNL     1      21.978  39.829  12.718  1.00  0.00     0.037 C 
ENDBRANCH  28  29
BRANCH  28  31
HETATM   31  C30 UNL     1      24.733  41.616  13.714  1.00  0.00     0.268 C 
HETATM   32  C31 UNL     1      25.309  41.403  15.107  1.00  0.00     0.037 C 
ENDBRANCH  28  31
ENDBRANCH  27  28
ENDBRANCH  26  27
ENDBRANCH  25  26
ENDBRANCH  16  25
BRANCH  12  33
HETATM   33  C15 UNL     1      23.669  38.371  18.850  1.00  0.00     0.046 C 
BRANCH  33  34
HETATM   34  C16 UNL     1      24.080  39.570  19.683  1.00  0.00    -0.020 C 
HETATM   35  C17 UNL     1      24.547  39.031  21.021  1.00  0.00     0.009 C 
HETATM   36  C18 UNL     1      25.274  40.281  19.063  1.00  0.00     0.009 C 
ENDBRANCH  33  34
ENDBRANCH  12  33
BRANCH   1  37
HETATM   37  C3  UNL     1      16.044  40.675  17.177  1.00  0.00     0.162 C 
BRANCH  37  38
HETATM   38  C2  UNL     1      15.216  41.518  18.073  1.00  0.00    -0.004 C 
HETATM   39  C1  UNL     1      15.587  42.631  18.623  1.00  0.00     0.009 C 
ENDBRANCH  37  38
BRANCH  37  40
HETATM   40  O1  UNL     1      16.105  41.381  15.958  1.00  0.00    -0.390 OA
ATOM     41  H1  UNL     1      16.214  40.715  15.290  1.00  0.00     0.210 HD
ENDBRANCH  37  40
ENDBRANCH   1  37
BRANCH   9  42
HETATM   42  O3  UNL     1      21.562  34.176  18.909  1.00  0.00    -0.391 OA
ATOM     43  H3  UNL     1      21.449  34.210  19.851  1.00  0.00     0.210 HD
ENDBRANCH   9  42
BRANCH   8  44
HETATM   44  O2  UNL     1      20.883  36.097  16.039  1.00  0.00    -0.393 OA
ATOM     45  H2  UNL     1      21.545  35.807  15.424  1.00  0.00     0.210 HD
ENDBRANCH   8  44
TORSDOF 16
ENDMDL
MODEL 5
REMARK VINA RESULT: -5.842344479      2.183      4.266
REMARK  16 active torsions:
REMARK  status: ('A' for Active; 'I' for Inactive)
REMARK    1  A    between atoms: C2_2  and  C3_3 
REMARK    2  A    between atoms: C3_3  and  O1_4 
REMARK    3  A    between atoms: C3_3  and  C4_6 
REMARK    4  A    between atoms: C11_13  and  O2_14 
REMARK    5  A    between atoms: C12_16  and  O3_17 
REMARK    6  A    between atoms: C14_21  and  C15_22 
REMARK    7  A    between atoms: C15_22  and  C16_23 
REMARK    8  A    between atoms: C20_29  and  C21_30 
REMARK    9  A    between atoms: C20_29  and  C25_34 
REMARK   10  A    between atoms: C21_30  and  C22_31 
REMARK   11  A    between atoms: C22_31  and  C23_32 
REMARK   12  A    between atoms: C25_34  and  C26_35 
REMARK   13  A    between atoms: C26_35  and  C27_36 
REMARK   14  A    between atoms: C27_36  and  N1_37 
REMARK   15  A    between atoms: N1_37  and  C28_38 
REMARK   16  A    between atoms: N1_37  and  C30_40 
ROOT
HETATM    1  C4  UNL     1      18.439  36.492  17.897  1.00  0.00     0.116 C 
HETATM    2  C5  UNL     1      17.841  37.572  17.092  1.00  0.00     0.028 C 
HETATM    3  C6  UNL     1      16.442  37.991  17.327  1.00  0.00     0.002 C 
HETATM    4  C7  UNL     1      16.150  38.441  18.741  1.00  0.00     0.000 C 
HETATM    5  C8  UNL     1      15.516  39.813  18.811  1.00  0.00     0.000 C 
HETATM    6  C9  UNL     1      16.242  40.822  17.967  1.00  0.00     0.002 C 
HETATM    7  C10 UNL     1      16.397  42.149  18.687  1.00  0.00     0.034 C 
HETATM    8  C11 UNL     1      17.794  42.730  18.491  1.00  0.00     0.149 C 
HETATM    9  C12 UNL     1      18.224  42.758  17.063  1.00  0.00     0.170 C 
HETATM   10  C13 UNL     1      19.750  42.601  17.036  1.00  0.00     0.203 C 
HETATM   11  O4  UNL     1      20.006  41.282  17.281  1.00  0.00    -0.373 OA
HETATM   12  C14 UNL     1      21.309  40.868  17.169  1.00  0.00     0.221 C 
HETATM   13  C19 UNL     1      21.293  39.505  16.570  1.00  0.00     0.289 C 
HETATM   14  O5  UNL     1      20.534  39.498  15.528  1.00  0.00    -0.262 OA
HETATM   15  O6  UNL     1      21.978  38.514  17.084  1.00  0.00    -0.298 OA
HETATM   16  C20 UNL     1      21.794  37.559  18.153  1.00  0.00     0.151 C 
HETATM   17  C32 UNL     1      20.503  37.717  18.850  1.00  0.00     0.253 C 
HETATM   18  O7  UNL     1      20.481  38.825  19.527  1.00  0.00    -0.270 OA
HETATM   19  N2  UNL     1      19.368  36.941  18.918  1.00  0.00    -0.351 N 
ATOM     20  H2  UNL     1      19.137  36.623  19.860  1.00  0.00     0.163 HD
ENDROOT
BRANCH  16  21
HETATM   21  C21 UNL     1      22.037  36.256  17.493  1.00  0.00     0.049 C 
BRANCH  21  22
HETATM   22  C22 UNL     1      21.964  34.981  18.183  1.00  0.00     0.003 C 
BRANCH  22  23
HETATM   23  C23 UNL     1      21.508  33.932  17.121  1.00  0.00    -0.004 C 
HETATM   24  C24 UNL     1      20.805  34.578  15.977  1.00  0.00     0.005 C 
ENDBRANCH  22  23
ENDBRANCH  21  22
ENDBRANCH  16  21
BRANCH  16  25
HETATM   25  C25 UNL     1      22.930  38.004  19.089  1.00  0.00     0.050 C 
BRANCH  25  26
HETATM   26  C26 UNL     1      23.972  38.874  18.567  1.00  0.00     0.034 C 
BRANCH  26  27
HETATM   27  C27 UNL     1      24.102  40.058  19.569  1.00  0.00     0.272 C 
BRANCH  27  28
HETATM   28  N1  UNL     1      23.883  39.636  20.913  1.00  0.00     0.087 N 
BRANCH  28  29
HETATM   29  C28 UNL     1      25.053  39.355  21.682  1.00  0.00     0.268 C 
HETATM   30  C29 UNL     1      25.000  38.038  22.424  1.00  0.00     0.037 C 
ENDBRANCH  28  29
BRANCH  28  31
HETATM   31  C30 UNL     1      23.132  40.686  21.577  1.00  0.00     0.268 C 
HETATM   32  C31 UNL     1      22.590  41.668  20.547  1.00  0.00     0.037 C 
ENDBRANCH  28  31
ENDBRANCH  27  28
ENDBRANCH  26  27
ENDBRANCH  25  26
ENDBRANCH  16  25
BRANCH  12  33
HETATM   33  C15 UNL     1      22.023  41.848  16.222  1.00  0.00     0.046 C 
BRANCH  33  34
HETATM   34  C16 UNL     1      23.446  41.391  15.967  1.00  0.00    -0.020 C 
HETATM   35  C17 UNL     1      23.665  41.459  14.469  1.00  0.00     0.009 C 
HETATM   36  C18 UNL     1      24.447  42.351  16.593  1.00  0.00     0.009 C 
ENDBRANCH  33  34
ENDBRANCH  12  33
BRANCH   1  37
HETATM   37  C3  UNL     1      17.416  35.538  18.502  1.00  0.00     0.162 C 
BRANCH  37  38
HETATM   38  C2  UNL     1      16.775  34.658  17.494  1.00  0.00    -0.004 C 
HETATM   39  C1  UNL     1      15.534  34.289  17.490  1.00  0.00     0.009 C 
ENDBRANCH  37  38
BRANCH  37  40
HETATM   40  O1  UNL     1      18.136  34.668  19.346  1.00  0.00    -0.390 OA
ATOM     41  H1  UNL     1      18.664  35.235  19.895  1.00  0.00     0.210 HD
ENDBRANCH  37  40
ENDBRANCH   1  37
BRANCH   9  42
HETATM   42  O3  UNL     1      17.855  43.991  16.492  1.00  0.00    -0.391 OA
ATOM     43  H3  UNL     1      17.644  43.861  15.575  1.00  0.00     0.210 HD
ENDBRANCH   9  42
BRANCH   8  44
HETATM   44  O2  UNL     1      18.707  42.117  19.347  1.00  0.00    -0.393 OA
ATOM     45  H2  UNL     1      18.599  42.432  20.236  1.00  0.00     0.210 HD
ENDBRANCH   8  44
TORSDOF 16
ENDMDL
