MODEL 1
REMARK VINA RESULT: -9.160556801      0.000      0.000
REMARK  12 active torsions:
REMARK  status: ('A' for Active; 'I' for Inactive)
REMARK    1  A    between atoms: C2_2  and  C3_3 
REMARK    2  A    between atoms: C5_5  and  O1_6 
REMARK    3  A    between atoms: C6_8  and  O2_9 
REMARK    4  A    between atoms: O2_9  and  C7_10 
REMARK    5  A    between atoms: C7_10  and  C8_12 
REMARK    6  A    between atoms: C8_12  and  C9_13 
REMARK    7  A    between atoms: C9_13  and  C10_14 
REMARK    8  A    between atoms: C10_14  and  C11_15 
REMARK    9  A    between atoms: C20_26  and  C21_27 
REMARK   10  A    between atoms: C20_26  and  C25_31 
REMARK   11  A    between atoms: C22_28  and  C23_29 
REMARK   12  A    between atoms: C26_34  and  C27_35 
ROOT
HETATM    1  C3  UNL     1      18.488  29.341  12.918  1.00  0.00     0.005 C 
HETATM    2  C4  UNL     1      17.961  27.971  13.385  1.00  0.00     0.022 C 
HETATM    3  C5  UNL     1      19.696  29.080  12.082  1.00  0.00     0.160 C 
HETATM    4  C6  UNL     1      21.008  29.183  12.740  1.00  0.00     0.162 C 
HETATM    5  C12 UNL     1      20.959  29.584  14.214  1.00  0.00     0.041 C 
HETATM    6  C13 UNL     1      20.086  30.813  14.244  1.00  0.00     0.010 C 
HETATM    7  C14 UNL     1      18.675  30.272  14.072  1.00  0.00     0.005 C 
HETATM    8  C15 UNL     1      17.670  31.357  14.181  1.00  0.00     0.007 C 
HETATM    9  C16 UNL     1      18.321  32.735  14.192  1.00  0.00     0.015 C 
HETATM   10  C17 UNL     1      19.392  32.986  15.162  1.00  0.00    -0.004 C 
HETATM   11  C18 UNL     1      20.370  33.801  14.273  1.00  0.00     0.021 C 
HETATM   12  C19 UNL     1      19.238  33.675  16.419  1.00  0.00    -0.042 C 
HETATM   13  C20 UNL     1      18.200  34.070  17.193  1.00  0.00     0.044 C 
HETATM   14  C26 UNL     1      20.578  34.120  16.983  1.00  0.00     0.085 C 
HETATM   15  C28 UNL     1      21.562  32.978  17.043  1.00  0.00     0.095 C 
HETATM   16  C29 UNL     1      21.483  32.065  15.891  1.00  0.00     0.137 C 
HETATM   17  O9  UNL     1      22.550  31.753  15.435  1.00  0.00    -0.297 OA
HETATM   18  C30 UNL     1      20.151  31.647  15.434  1.00  0.00     0.032 C 
HETATM   19  C31 UNL     1      19.573  30.915  16.611  1.00  0.00     0.025 C 
ENDROOT
BRANCH   4  20
HETATM   20  O2  UNL     1      21.870  28.095  12.520  1.00  0.00    -0.313 OA
BRANCH  20  21
HETATM   21  C7  UNL     1      22.948  28.107  11.636  1.00  0.00     0.259 C 
HETATM   22  O3  UNL     1      22.948  29.043  10.841  1.00  0.00    -0.265 OA
BRANCH  21  23
HETATM   23  C8  UNL     1      23.919  27.046  11.750  1.00  0.00     0.111 C 
BRANCH  23  24
HETATM   24  C9  UNL     1      23.720  25.759  11.072  1.00  0.00     0.020 C 
BRANCH  24  25
HETATM   25  C10 UNL     1      22.948  25.765   9.806  1.00  0.00     0.113 C 
BRANCH  25  26
HETATM   26  C11 UNL     1      21.575  25.290   9.791  1.00  0.00     0.172 C 
HETATM   27  O4  UNL     1      20.969  25.080   8.681  1.00  0.00    -0.648 OA
HETATM   28  O5  UNL     1      20.923  25.068  11.009  1.00  0.00    -0.648 OA
ENDBRANCH  25  26
ENDBRANCH  24  25
ENDBRANCH  23  24
ENDBRANCH  21  23
ENDBRANCH  20  21
ENDBRANCH   4  20
BRANCH   3  29
HETATM   29  O1  UNL     1      19.599  27.766  11.549  1.00  0.00    -0.392 OA
ATOM     30  H1  UNL     1      19.184  27.817  10.697  1.00  0.00     0.210 HD
ENDBRANCH   3  29
BRANCH   1  31
HETATM   31  C2  UNL     1      17.432  29.796  11.959  1.00  0.00    -0.025 C 
HETATM   32  C1  UNL     1      16.648  29.047  11.245  1.00  0.00     0.008 C 
ENDBRANCH   1  31
BRANCH  13  33
HETATM   33  C21 UNL     1      18.453  34.776  18.511  1.00  0.00     0.014 C 
HETATM   34  C22 UNL     1      18.215  36.168  18.721  1.00  0.00    -0.026 C 
BRANCH  34  35
HETATM   35  C23 UNL     1      16.929  36.871  18.567  1.00  0.00     0.022 C 
HETATM   36  C24 UNL     1      17.084  37.828  17.349  1.00  0.00     0.009 C 
ENDBRANCH  34  35
ENDBRANCH  13  33
BRANCH  13  37
HETATM   37  C25 UNL     1      16.791  33.980  16.944  1.00  0.00     0.209 C 
HETATM   38  O6  UNL     1      15.837  33.399  17.428  1.00  0.00    -0.644 OA
HETATM   39  O7  UNL     1      16.303  34.784  15.830  1.00  0.00    -0.644 OA
ENDBRANCH  13  37
BRANCH  14  40
HETATM   40  C27 UNL     1      21.208  35.291  16.335  1.00  0.00     0.240 C 
HETATM   41  O8  UNL     1      21.482  36.364  16.755  1.00  0.00    -0.306 OA
ENDBRANCH  14  40
TORSDOF 12
ENDMDL
MODEL 2
REMARK VINA RESULT: -8.718000618      2.171      4.905
REMARK  12 active torsions:
REMARK  status: ('A' for Active; 'I' for Inactive)
REMARK    1  A    between atoms: C2_2  and  C3_3 
REMARK    2  A    between atoms: C5_5  and  O1_6 
REMARK    3  A    between atoms: C6_8  and  O2_9 
REMARK    4  A    between atoms: O2_9  and  C7_10 
REMARK    5  A    between atoms: C7_10  and  C8_12 
REMARK    6  A    between atoms: C8_12  and  C9_13 
REMARK    7  A    between atoms: C9_13  and  C10_14 
REMARK    8  A    between atoms: C10_14  and  C11_15 
REMARK    9  A    between atoms: C20_26  and  C21_27 
REMARK   10  A    between atoms: C20_26  and  C25_31 
REMARK   11  A    between atoms: C22_28  and  C23_29 
REMARK   12  A    between atoms: C26_34  and  C27_35 
ROOT
HETATM    1  C3  UNL     1      22.752  28.000  11.579  1.00  0.00     0.005 C 
HETATM    2  C4  UNL     1      23.401  28.372  10.233  1.00  0.00     0.022 C 
HETATM    3  C5  UNL     1      21.855  26.835  11.320  1.00  0.00     0.160 C 
HETATM    4  C6  UNL     1      20.427  27.118  11.099  1.00  0.00     0.162 C 
HETATM    5  C12 UNL     1      20.040  28.592  11.198  1.00  0.00     0.041 C 
HETATM    6  C13 UNL     1      20.629  29.053  12.508  1.00  0.00     0.010 C 
HETATM    7  C14 UNL     1      22.116  29.190  12.221  1.00  0.00     0.005 C 
HETATM    8  C15 UNL     1      22.838  29.738  13.394  1.00  0.00     0.007 C 
HETATM    9  C16 UNL     1      21.953  29.787  14.634  1.00  0.00     0.015 C 
HETATM   10  C17 UNL     1      20.650  30.455  14.528  1.00  0.00    -0.004 C 
HETATM   11  C18 UNL     1      19.780  29.472  15.356  1.00  0.00     0.021 C 
HETATM   12  C19 UNL     1      20.361  31.798  14.965  1.00  0.00    -0.042 C 
HETATM   13  C20 UNL     1      21.085  32.878  15.340  1.00  0.00     0.044 C 
HETATM   14  C26 UNL     1      18.865  32.037  15.089  1.00  0.00     0.085 C 
HETATM   15  C28 UNL     1      18.132  31.646  13.829  1.00  0.00     0.095 C 
HETATM   16  C29 UNL     1      18.661  30.431  13.188  1.00  0.00     0.137 C 
HETATM   17  O9  UNL     1      17.817  29.658  12.825  1.00  0.00    -0.297 OA
HETATM   18  C30 UNL     1      20.119  30.296  13.067  1.00  0.00     0.032 C 
HETATM   19  C31 UNL     1      20.524  31.455  12.204  1.00  0.00     0.025 C 
ENDROOT
BRANCH   4  20
HETATM   20  O2  UNL     1      19.870  26.502   9.966  1.00  0.00    -0.313 OA
BRANCH  20  21
HETATM   21  C7  UNL     1      18.519  26.187   9.822  1.00  0.00     0.259 C 
HETATM   22  O3  UNL     1      17.997  25.702  10.822  1.00  0.00    -0.265 OA
BRANCH  21  23
HETATM   23  C8  UNL     1      17.901  26.460   8.547  1.00  0.00     0.111 C 
BRANCH  23  24
HETATM   24  C9  UNL     1      18.708  26.620   7.331  1.00  0.00     0.020 C 
BRANCH  24  25
HETATM   25  C10 UNL     1      19.332  25.403   6.759  1.00  0.00     0.113 C 
BRANCH  25  26
HETATM   26  C11 UNL     1      20.770  25.214   6.850  1.00  0.00     0.172 C 
HETATM   27  O4  UNL     1      21.553  25.730   5.976  1.00  0.00    -0.648 OA
HETATM   28  O5  UNL     1      21.287  24.456   7.907  1.00  0.00    -0.648 OA
ENDBRANCH  25  26
ENDBRANCH  24  25
ENDBRANCH  23  24
ENDBRANCH  21  23
ENDBRANCH  20  21
ENDBRANCH   4  20
BRANCH   3  29
HETATM   29  O1  UNL     1      22.328  26.150  10.169  1.00  0.00    -0.392 OA
ATOM     30  H1  UNL     1      23.273  26.234  10.136  1.00  0.00     0.210 HD
ENDBRANCH   3  29
BRANCH   1  31
HETATM   31  C2  UNL     1      23.901  27.450  12.365  1.00  0.00    -0.025 C 
HETATM   32  C1  UNL     1      25.108  27.232  11.937  1.00  0.00     0.008 C 
ENDBRANCH   1  31
BRANCH  13  33
HETATM   33  C21 UNL     1      20.390  34.171  15.722  1.00  0.00     0.014 C 
HETATM   34  C22 UNL     1      20.216  34.606  17.071  1.00  0.00    -0.026 C 
BRANCH  34  35
HETATM   35  C23 UNL     1      21.283  34.865  18.053  1.00  0.00     0.022 C 
HETATM   36  C24 UNL     1      22.047  36.130  17.564  1.00  0.00     0.009 C 
ENDBRANCH  34  35
ENDBRANCH  13  33
BRANCH  13  37
HETATM   37  C25 UNL     1      22.503  33.012  15.505  1.00  0.00     0.209 C 
HETATM   38  O6  UNL     1      23.297  32.990  16.427  1.00  0.00    -0.644 OA
HETATM   39  O7  UNL     1      23.255  33.223  14.274  1.00  0.00    -0.644 OA
ENDBRANCH  13  37
BRANCH  14  40
HETATM   40  C27 UNL     1      18.198  31.434  16.264  1.00  0.00     0.240 C 
HETATM   41  O8  UNL     1      17.058  31.197  16.482  1.00  0.00    -0.306 OA
ENDBRANCH  14  40
TORSDOF 12
ENDMDL
MODEL 3
REMARK VINA RESULT: -8.613665200      1.058      1.677
REMARK  12 active torsions:
REMARK  status: ('A' for Active; 'I' for Inactive)
REMARK    1  A    between atoms: C2_2  and  C3_3 
REMARK    2  A    between atoms: C5_5  and  O1_6 
REMARK    3  A    between atoms: C6_8  and  O2_9 
REMARK    4  A    between atoms: O2_9  and  C7_10 
REMARK    5  A    between atoms: C7_10  and  C8_12 
REMARK    6  A    between atoms: C8_12  and  C9_13 
REMARK    7  A    between atoms: C9_13  and  C10_14 
REMARK    8  A    between atoms: C10_14  and  C11_15 
REMARK    9  A    between atoms: C20_26  and  C21_27 
REMARK   10  A    between atoms: C20_26  and  C25_31 
REMARK   11  A    between atoms: C22_28  and  C23_29 
REMARK   12  A    between atoms: C26_34  and  C27_35 
ROOT
HETATM    1  C3  UNL     1      18.043  29.329  13.069  1.00  0.00     0.005 C 
HETATM    2  C4  UNL     1      17.490  27.989  13.589  1.00  0.00     0.022 C 
HETATM    3  C5  UNL     1      19.200  29.006  12.182  1.00  0.00     0.160 C 
HETATM    4  C6  UNL     1      20.545  29.073  12.776  1.00  0.00     0.162 C 
HETATM    5  C12 UNL     1      20.581  29.503  14.241  1.00  0.00     0.041 C 
HETATM    6  C13 UNL     1      19.755  30.765  14.287  1.00  0.00     0.010 C 
HETATM    7  C14 UNL     1      18.319  30.274  14.193  1.00  0.00     0.005 C 
HETATM    8  C15 UNL     1      17.360  31.397  14.327  1.00  0.00     0.007 C 
HETATM    9  C16 UNL     1      18.061  32.750  14.278  1.00  0.00     0.015 C 
HETATM   10  C17 UNL     1      19.187  32.979  15.191  1.00  0.00    -0.004 C 
HETATM   11  C18 UNL     1      20.149  33.740  14.240  1.00  0.00     0.021 C 
HETATM   12  C19 UNL     1      19.118  33.698  16.439  1.00  0.00    -0.042 C 
HETATM   13  C20 UNL     1      18.133  34.146  17.253  1.00  0.00     0.044 C 
HETATM   14  C26 UNL     1      20.498  34.103  16.930  1.00  0.00     0.085 C 
HETATM   15  C28 UNL     1      21.442  32.926  16.968  1.00  0.00     0.095 C 
HETATM   16  C29 UNL     1      21.275  31.995  15.840  1.00  0.00     0.137 C 
HETATM   17  O9  UNL     1      22.306  31.634  15.341  1.00  0.00    -0.297 OA
HETATM   18  C30 UNL     1      19.908  31.619  15.455  1.00  0.00     0.032 C 
HETATM   19  C31 UNL     1      19.361  30.931  16.673  1.00  0.00     0.025 C 
ENDROOT
BRANCH   4  20
HETATM   20  O2  UNL     1      21.354  27.949  12.538  1.00  0.00    -0.313 OA
BRANCH  20  21
HETATM   21  C7  UNL     1      22.025  27.698  11.342  1.00  0.00     0.259 C 
HETATM   22  O3  UNL     1      21.751  26.622  10.817  1.00  0.00    -0.265 OA
BRANCH  21  23
HETATM   23  C8  UNL     1      22.944  28.704  10.866  1.00  0.00     0.111 C 
BRANCH  23  24
HETATM   24  C9  UNL     1      23.993  28.374   9.895  1.00  0.00     0.020 C 
BRANCH  24  25
HETATM   25  C10 UNL     1      25.203  27.683  10.402  1.00  0.00     0.113 C 
BRANCH  25  26
HETATM   26  C11 UNL     1      25.171  27.022  11.696  1.00  0.00     0.172 C 
HETATM   27  O4  UNL     1      25.618  27.613  12.742  1.00  0.00    -0.648 OA
HETATM   28  O5  UNL     1      24.649  25.726  11.781  1.00  0.00    -0.648 OA
ENDBRANCH  25  26
ENDBRANCH  24  25
ENDBRANCH  23  24
ENDBRANCH  21  23
ENDBRANCH  20  21
ENDBRANCH   4  20
BRANCH   3  29
HETATM   29  O1  UNL     1      19.029  27.687  11.683  1.00  0.00    -0.392 OA
ATOM     30  H1  UNL     1      18.792  27.741  10.764  1.00  0.00     0.210 HD
ENDBRANCH   3  29
BRANCH   1  31
HETATM   31  C2  UNL     1      16.960  29.805  12.152  1.00  0.00    -0.025 C 
HETATM   32  C1  UNL     1      16.607  29.278  11.018  1.00  0.00     0.008 C 
ENDBRANCH   1  31
BRANCH  13  33
HETATM   33  C21 UNL     1      18.474  34.867  18.543  1.00  0.00     0.014 C 
HETATM   34  C22 UNL     1      18.269  36.266  18.744  1.00  0.00    -0.026 C 
BRANCH  34  35
HETATM   35  C23 UNL     1      16.987  36.986  18.657  1.00  0.00     0.022 C 
HETATM   36  C24 UNL     1      17.056  37.871  17.379  1.00  0.00     0.009 C 
ENDBRANCH  34  35
ENDBRANCH  13  33
BRANCH  13  37
HETATM   37  C25 UNL     1      16.712  34.104  17.072  1.00  0.00     0.209 C 
HETATM   38  O6  UNL     1      15.754  33.630  17.656  1.00  0.00    -0.644 OA
HETATM   39  O7  UNL     1      16.212  34.808  15.898  1.00  0.00    -0.644 OA
ENDBRANCH  13  37
BRANCH  14  40
HETATM   40  C27 UNL     1      21.139  35.237  16.229  1.00  0.00     0.240 C 
HETATM   41  O8  UNL     1      21.405  36.333  16.593  1.00  0.00    -0.306 OA
ENDBRANCH  14  40
TORSDOF 12
ENDMDL
MODEL 4
REMARK VINA RESULT: -8.585470622      2.338      5.131
REMARK  12 active torsions:
REMARK  status: ('A' for Active; 'I' for Inactive)
REMARK    1  A    between atoms: C2_2  and  C3_3 
REMARK    2  A    between atoms: C5_5  and  O1_6 
REMARK    3  A    between atoms: C6_8  and  O2_9 
REMARK    4  A    between atoms: O2_9  and  C7_10 
REMARK    5  A    between atoms: C7_10  and  C8_12 
REMARK    6  A    between atoms: C8_12  and  C9_13 
REMARK    7  A    between atoms: C9_13  and  C10_14 
REMARK    8  A    between atoms: C10_14  and  C11_15 
REMARK    9  A    between atoms: C20_26  and  C21_27 
REMARK   10  A    between atoms: C20_26  and  C25_31 
REMARK   11  A    between atoms: C22_28  and  C23_29 
REMARK   12  A    between atoms: C26_34  and  C27_35 
ROOT
HETATM    1  C3  UNL     1      22.775  27.938  11.554  1.00  0.00     0.005 C 
HETATM    2  C4  UNL     1      23.430  28.306  10.209  1.00  0.00     0.022 C 
HETATM    3  C5  UNL     1      21.878  26.773  11.295  1.00  0.00     0.160 C 
HETATM    4  C6  UNL     1      20.452  27.056  11.068  1.00  0.00     0.162 C 
HETATM    5  C12 UNL     1      20.065  28.531  11.162  1.00  0.00     0.041 C 
HETATM    6  C13 UNL     1      20.649  28.994  12.473  1.00  0.00     0.010 C 
HETATM    7  C14 UNL     1      22.138  29.130  12.191  1.00  0.00     0.005 C 
HETATM    8  C15 UNL     1      22.856  29.681  13.366  1.00  0.00     0.007 C 
HETATM    9  C16 UNL     1      21.966  29.733  14.602  1.00  0.00     0.015 C 
HETATM   10  C17 UNL     1      20.664  30.401  14.490  1.00  0.00    -0.004 C 
HETATM   11  C18 UNL     1      19.790  29.420  15.317  1.00  0.00     0.021 C 
HETATM   12  C19 UNL     1      20.374  31.745  14.922  1.00  0.00    -0.042 C 
HETATM   13  C20 UNL     1      21.098  32.826  15.298  1.00  0.00     0.044 C 
HETATM   14  C26 UNL     1      18.877  31.985  15.041  1.00  0.00     0.085 C 
HETATM   15  C28 UNL     1      18.149  31.591  13.779  1.00  0.00     0.095 C 
HETATM   16  C29 UNL     1      18.680  30.374  13.143  1.00  0.00     0.137 C 
HETATM   17  O9  UNL     1      17.836  29.601  12.778  1.00  0.00    -0.297 OA
HETATM   18  C30 UNL     1      20.138  30.238  13.027  1.00  0.00     0.032 C 
HETATM   19  C31 UNL     1      20.546  31.396  12.162  1.00  0.00     0.025 C 
ENDROOT
BRANCH   4  20
HETATM   20  O2  UNL     1      19.898  26.438   9.934  1.00  0.00    -0.313 OA
BRANCH  20  21
HETATM   21  C7  UNL     1      18.538  26.189   9.755  1.00  0.00     0.259 C 
HETATM   22  O3  UNL     1      17.972  25.710  10.734  1.00  0.00    -0.265 OA
BRANCH  21  23
HETATM   23  C8  UNL     1      17.961  26.513   8.473  1.00  0.00     0.111 C 
BRANCH  23  24
HETATM   24  C9  UNL     1      18.347  27.733   7.754  1.00  0.00     0.020 C 
BRANCH  24  25
HETATM   25  C10 UNL     1      18.271  27.708   6.274  1.00  0.00     0.113 C 
BRANCH  25  26
HETATM   26  C11 UNL     1      18.952  26.662   5.529  1.00  0.00     0.172 C 
HETATM   27  O4  UNL     1      20.145  26.312   5.840  1.00  0.00    -0.648 OA
HETATM   28  O5  UNL     1      18.285  26.045   4.464  1.00  0.00    -0.648 OA
ENDBRANCH  25  26
ENDBRANCH  24  25
ENDBRANCH  23  24
ENDBRANCH  21  23
ENDBRANCH  20  21
ENDBRANCH   4  20
BRANCH   3  29
HETATM   29  O1  UNL     1      22.355  26.085  10.146  1.00  0.00    -0.392 OA
ATOM     30  H1  UNL     1      22.117  25.169  10.224  1.00  0.00     0.210 HD
ENDBRANCH   3  29
BRANCH   1  31
HETATM   31  C2  UNL     1      23.921  27.390  12.345  1.00  0.00    -0.025 C 
HETATM   32  C1  UNL     1      25.138  27.199  11.931  1.00  0.00     0.008 C 
ENDBRANCH   1  31
BRANCH  13  33
HETATM   33  C21 UNL     1      20.402  34.120  15.674  1.00  0.00     0.014 C 
HETATM   34  C22 UNL     1      20.235  34.565  17.021  1.00  0.00    -0.026 C 
BRANCH  34  35
HETATM   35  C23 UNL     1      21.307  34.833  17.995  1.00  0.00     0.022 C 
HETATM   36  C24 UNL     1      22.040  36.119  17.513  1.00  0.00     0.009 C 
ENDBRANCH  34  35
ENDBRANCH  13  33
BRANCH  13  37
HETATM   37  C25 UNL     1      22.515  32.959  15.467  1.00  0.00     0.209 C 
HETATM   38  O6  UNL     1      23.310  32.905  16.387  1.00  0.00    -0.644 OA
HETATM   39  O7  UNL     1      23.265  33.222  14.245  1.00  0.00    -0.644 OA
ENDBRANCH  13  37
BRANCH  14  40
HETATM   40  C27 UNL     1      18.207  31.385  16.215  1.00  0.00     0.240 C 
HETATM   41  O8  UNL     1      17.059  31.261  16.482  1.00  0.00    -0.306 OA
ENDBRANCH  14  40
TORSDOF 12
ENDMDL
MODEL 5
REMARK VINA RESULT: -8.504212784      1.850      2.798
REMARK  12 active torsions:
REMARK  status: ('A' for Active; 'I' for Inactive)
REMARK    1  A    between atoms: C2_2  and  C3_3 
REMARK    2  A    between atoms: C5_5  and  O1_6 
REMARK    3  A    between atoms: C6_8  and  O2_9 
REMARK    4  A    between atoms: O2_9  and  C7_10 
REMARK    5  A    between atoms: C7_10  and  C8_12 
REMARK    6  A    between atoms: C8_12  and  C9_13 
REMARK    7  A    between atoms: C9_13  and  C10_14 
REMARK    8  A    between atoms: C10_14  and  C11_15 
REMARK    9  A    between atoms: C20_26  and  C21_27 
REMARK   10  A    between atoms: C20_26  and  C25_31 
REMARK   11  A    between atoms: C22_28  and  C23_29 
REMARK   12  A    between atoms: C26_34  and  C27_35 
ROOT
HETATM    1  C3  UNL     1      18.826  27.195  11.459  1.00  0.00     0.005 C 
HETATM    2  C4  UNL     1      18.337  25.845  12.016  1.00  0.00     0.022 C 
HETATM    3  C5  UNL     1      19.989  26.902  10.570  1.00  0.00     0.160 C 
HETATM    4  C6  UNL     1      21.335  27.042  11.150  1.00  0.00     0.162 C 
HETATM    5  C12 UNL     1      21.364  27.509  12.604  1.00  0.00     0.041 C 
HETATM    6  C13 UNL     1      20.484  28.734  12.627  1.00  0.00     0.010 C 
HETATM    7  C14 UNL     1      19.070  28.178  12.558  1.00  0.00     0.005 C 
HETATM    8  C15 UNL     1      18.064  29.262  12.674  1.00  0.00     0.007 C 
HETATM    9  C16 UNL     1      18.704  30.642  12.587  1.00  0.00     0.015 C 
HETATM   10  C17 UNL     1      19.825  30.943  13.484  1.00  0.00    -0.004 C 
HETATM   11  C18 UNL     1      20.746  31.721  12.506  1.00  0.00     0.021 C 
HETATM   12  C19 UNL     1      19.735  31.688  14.715  1.00  0.00    -0.042 C 
HETATM   13  C20 UNL     1      18.738  32.112  15.526  1.00  0.00     0.044 C 
HETATM   14  C26 UNL     1      21.101  32.164  15.183  1.00  0.00     0.085 C 
HETATM   15  C28 UNL     1      22.096  31.031  15.240  1.00  0.00     0.095 C 
HETATM   16  C29 UNL     1      21.960  30.066  14.136  1.00  0.00     0.137 C 
HETATM   17  O9  UNL     1      23.003  29.740  13.637  1.00  0.00    -0.297 OA
HETATM   18  C30 UNL     1      20.608  29.622  13.773  1.00  0.00     0.032 C 
HETATM   19  C31 UNL     1      20.101  28.941  15.012  1.00  0.00     0.025 C 
ENDROOT
BRANCH   4  20
HETATM   20  O2  UNL     1      22.191  25.949  10.931  1.00  0.00    -0.313 OA
BRANCH  20  21
HETATM   21  C7  UNL     1      23.544  26.057  10.616  1.00  0.00     0.259 C 
HETATM   22  O3  UNL     1      24.308  25.689  11.505  1.00  0.00    -0.265 OA
BRANCH  21  23
HETATM   23  C8  UNL     1      23.889  26.575   9.314  1.00  0.00     0.111 C 
BRANCH  23  24
HETATM   24  C9  UNL     1      23.951  25.696   8.140  1.00  0.00     0.020 C 
BRANCH  24  25
HETATM   25  C10 UNL     1      22.863  24.704   7.970  1.00  0.00     0.113 C 
BRANCH  25  26
HETATM   26  C11 UNL     1      21.741  25.000   7.096  1.00  0.00     0.172 C 
HETATM   27  O4  UNL     1      21.911  25.682   6.024  1.00  0.00    -0.648 OA
HETATM   28  O5  UNL     1      20.469  24.531   7.445  1.00  0.00    -0.648 OA
ENDBRANCH  25  26
ENDBRANCH  24  25
ENDBRANCH  23  24
ENDBRANCH  21  23
ENDBRANCH  20  21
ENDBRANCH   4  20
BRANCH   3  29
HETATM   29  O1  UNL     1      19.872  25.565  10.104  1.00  0.00    -0.392 OA
ATOM     30  H1  UNL     1      20.703  25.125  10.240  1.00  0.00     0.210 HD
ENDBRANCH   3  29
BRANCH   1  31
HETATM   31  C2  UNL     1      17.716  27.601  10.541  1.00  0.00    -0.025 C 
HETATM   32  C1  UNL     1      17.240  26.922   9.541  1.00  0.00     0.008 C 
ENDBRANCH   1  31
BRANCH  13  33
HETATM   33  C21 UNL     1      19.058  32.878  16.796  1.00  0.00     0.014 C 
HETATM   34  C22 UNL     1      18.471  34.137  17.128  1.00  0.00    -0.026 C 
BRANCH  34  35
HETATM   35  C23 UNL     1      17.035  34.419  17.294  1.00  0.00     0.022 C 
HETATM   36  C24 UNL     1      16.683  35.561  16.297  1.00  0.00     0.009 C 
ENDBRANCH  34  35
ENDBRANCH  13  33
BRANCH  13  37
HETATM   37  C25 UNL     1      17.319  32.003  15.360  1.00  0.00     0.209 C 
HETATM   38  O6  UNL     1      16.472  32.463  14.616  1.00  0.00    -0.644 OA
HETATM   39  O7  UNL     1      16.650  31.107  16.295  1.00  0.00    -0.644 OA
ENDBRANCH  13  37
BRANCH  14  40
HETATM   40  C27 UNL     1      21.685  33.308  14.449  1.00  0.00     0.240 C 
HETATM   41  O8  UNL     1      22.789  33.515  14.074  1.00  0.00    -0.306 OA
ENDBRANCH  14  40
TORSDOF 12
ENDMDL
