MODEL 1
REMARK VINA RESULT: -8.705914174      0.000      0.000
REMARK  14 active torsions:
REMARK  status: ('A' for Active; 'I' for Inactive)
REMARK    1  A    between atoms: C2_2  and  C3_3 
REMARK    2  A    between atoms: C3_3  and  C4_4 
REMARK    3  A    between atoms: C4_4  and  C5_5 
REMARK    4  A    between atoms: C5_5  and  C6_6 
REMARK    5  A    between atoms: C6_6  and  N1_7 
REMARK    6  A    between atoms: C9_10  and  O1_11 
REMARK       I    between atoms: N2_15  and  C11_17 
REMARK    7  A    between atoms: C11_17  and  C12_19 
REMARK       I    between atoms: N3_27  and  C20_28 
REMARK    8  A    between atoms: C20_28  and  C21_30 
REMARK    9  A    between atoms: C21_30  and  N4_31 
REMARK   10  A    between atoms: C21_30  and  C22_35 
REMARK   11  A    between atoms: C22_35  and  C23_36 
REMARK   12  A    between atoms: C23_36  and  C24_37 
REMARK   13  A    between atoms: C24_37  and  N5_38 
REMARK       I    between atoms: N5_38  and  C25_40 
REMARK   14  A    between atoms: C25_40  and  C26_42 
ROOT
HETATM    1  C12 UNL     1      20.329  31.052  14.052  1.00  0.00     0.087 C 
HETATM    2  C13 UNL     1      18.940  31.099  14.633  1.00  0.00     0.047 C 
HETATM    3  C14 UNL     1      17.991  32.064  14.038  1.00  0.00     0.011 C 
HETATM    4  C15 UNL     1      16.962  32.359  15.148  1.00  0.00     0.001 C 
HETATM    5  C16 UNL     1      16.880  31.182  16.132  1.00  0.00     0.000 C 
HETATM    6  C17 UNL     1      18.201  31.032  16.911  1.00  0.00     0.007 C 
HETATM    7  C18 UNL     1      19.216  31.652  16.041  1.00  0.00     0.014 C 
HETATM    8  C19 UNL     1      20.649  31.320  16.258  1.00  0.00     0.137 C 
HETATM    9  N3  UNL     1      21.149  31.826  14.922  1.00  0.00    -0.314 N 
HETATM   10  C20 UNL     1      22.119  32.809  14.822  1.00  0.00     0.255 C 
HETATM   11  O3  UNL     1      22.471  33.279  13.721  1.00  0.00    -0.271 OA
ENDROOT
BRANCH   1  12
HETATM   12  C11 UNL     1      20.428  31.102  12.640  1.00  0.00     0.270 C 
HETATM   13  N2  UNL     1      20.448  29.883  11.892  1.00  0.00    -0.302 N 
HETATM   14  C10 UNL     1      21.497  29.082  11.959  1.00  0.00     0.156 A 
ATOM     15  H2  UNL     1      19.651  29.632  11.307  1.00  0.00     0.171 HD
HETATM   16  N1  UNL     1      21.634  27.917  11.309  1.00  0.00    -0.328 N 
HETATM   17  S1  UNL     1      22.938  29.231  12.841  1.00  0.00    -0.027 SA
HETATM   18  C7  UNL     1      22.750  27.240  11.497  1.00  0.00     0.050 A 
HETATM   19  C8  UNL     1      23.094  25.885  10.866  1.00  0.00     0.072 C 
HETATM   20  C9  UNL     1      23.681  27.786  12.347  1.00  0.00     0.133 A 
HETATM   21  O2  UNL     1      20.501  32.127  11.949  1.00  0.00    -0.266 OA
BRANCH  16  22
HETATM   22  C6  UNL     1      20.550  27.448  10.390  1.00  0.00     0.131 C 
BRANCH  22  23
HETATM   23  C5  UNL     1      19.585  26.542  11.066  1.00  0.00     0.020 C 
BRANCH  23  24
HETATM   24  C4  UNL     1      18.172  26.995  11.146  1.00  0.00     0.002 C 
BRANCH  24  25
HETATM   25  C3  UNL     1      17.870  27.410  12.599  1.00  0.00    -0.000 C 
BRANCH  25  26
HETATM   26  C2  UNL     1      17.235  28.801  12.492  1.00  0.00    -0.005 C 
HETATM   27  C1  UNL     1      16.965  29.101  11.033  1.00  0.00     0.005 C 
ENDBRANCH  25  26
ENDBRANCH  24  25
ENDBRANCH  23  24
ENDBRANCH  22  23
ENDBRANCH  16  22
BRANCH  20  28
HETATM   28  O1  UNL     1      24.948  27.265  12.714  1.00  0.00    -0.352 OA
ATOM     29  H1  UNL     1      25.330  27.202  13.581  1.00  0.00     0.218 HD
ENDBRANCH  20  28
ENDBRANCH   1  12
BRANCH  10  30
HETATM   30  C21 UNL     1      22.821  33.381  16.039  1.00  0.00     0.275 C 
BRANCH  30  31
HETATM   31  N4  UNL     1      22.543  32.537  17.211  1.00  0.00    -0.066 N 
ATOM     32  H43 UNL     1      21.691  31.989  17.096  1.00  0.00     0.275 HD
ATOM     33  H42 UNL     1      23.204  31.765  17.294  1.00  0.00     0.275 HD
ATOM     34  H41 UNL     1      22.519  33.115  18.051  1.00  0.00     0.275 HD
ENDBRANCH  30  31
BRANCH  30  35
HETATM   35  C22 UNL     1      22.216  34.713  16.359  1.00  0.00     0.044 C 
BRANCH  35  36
HETATM   36  C23 UNL     1      20.970  34.514  17.181  1.00  0.00     0.022 C 
BRANCH  36  37
HETATM   37  C24 UNL     1      20.340  35.806  17.583  1.00  0.00     0.122 C 
BRANCH  37  38
HETATM   38  N5  UNL     1      18.935  35.830  17.235  1.00  0.00    -0.360 N 
HETATM   39  C25 UNL     1      17.920  35.487  18.148  1.00  0.00     0.225 C 
HETATM   40  O4  UNL     1      18.125  35.130  19.333  1.00  0.00    -0.273 OA
ATOM     41  H5  UNL     1      18.670  36.106  16.290  1.00  0.00     0.162 HD
BRANCH  39  42
HETATM   42  C26 UNL     1      16.502  35.553  17.677  1.00  0.00     0.030 C 
HETATM   43  C27 UNL     1      16.507  35.832  16.196  1.00  0.00     0.024 C 
HETATM   44  C28 UNL     1      15.755  34.269  18.008  1.00  0.00     0.024 C 
HETATM   45  C29 UNL     1      15.852  36.697  18.443  1.00  0.00     0.024 C 
ENDBRANCH  39  42
ENDBRANCH  37  38
ENDBRANCH  36  37
ENDBRANCH  35  36
ENDBRANCH  30  35
ENDBRANCH  10  30
TORSDOF 14
ENDMDL
MODEL 2
REMARK VINA RESULT: -8.347795432      0.779      1.320
REMARK  14 active torsions:
REMARK  status: ('A' for Active; 'I' for Inactive)
REMARK    1  A    between atoms: C2_2  and  C3_3 
REMARK    2  A    between atoms: C3_3  and  C4_4 
REMARK    3  A    between atoms: C4_4  and  C5_5 
REMARK    4  A    between atoms: C5_5  and  C6_6 
REMARK    5  A    between atoms: C6_6  and  N1_7 
REMARK    6  A    between atoms: C9_10  and  O1_11 
REMARK       I    between atoms: N2_15  and  C11_17 
REMARK    7  A    between atoms: C11_17  and  C12_19 
REMARK       I    between atoms: N3_27  and  C20_28 
REMARK    8  A    between atoms: C20_28  and  C21_30 
REMARK    9  A    between atoms: C21_30  and  N4_31 
REMARK   10  A    between atoms: C21_30  and  C22_35 
REMARK   11  A    between atoms: C22_35  and  C23_36 
REMARK   12  A    between atoms: C23_36  and  C24_37 
REMARK   13  A    between atoms: C24_37  and  N5_38 
REMARK       I    between atoms: N5_38  and  C25_40 
REMARK   14  A    between atoms: C25_40  and  C26_42 
ROOT
HETATM    1  C12 UNL     1      20.152  31.042  14.065  1.00  0.00     0.087 C 
HETATM    2  C13 UNL     1      18.785  31.179  14.683  1.00  0.00     0.047 C 
HETATM    3  C14 UNL     1      17.883  32.202  14.110  1.00  0.00     0.011 C 
HETATM    4  C15 UNL     1      16.906  32.564  15.247  1.00  0.00     0.001 C 
HETATM    5  C16 UNL     1      16.775  31.397  16.237  1.00  0.00     0.000 C 
HETATM    6  C17 UNL     1      18.104  31.164  16.981  1.00  0.00     0.007 C 
HETATM    7  C18 UNL     1      19.134  31.717  16.081  1.00  0.00     0.014 C 
HETATM    8  C19 UNL     1      20.548  31.294  16.261  1.00  0.00     0.137 C 
HETATM    9  N3  UNL     1      21.043  31.764  14.911  1.00  0.00    -0.314 N 
HETATM   10  C20 UNL     1      22.070  32.682  14.781  1.00  0.00     0.255 C 
HETATM   11  O3  UNL     1      22.422  33.127  13.670  1.00  0.00    -0.271 OA
ENDROOT
BRANCH   1  12
HETATM   12  C11 UNL     1      20.216  31.083  12.651  1.00  0.00     0.270 C 
HETATM   13  N2  UNL     1      20.249  29.859  11.913  1.00  0.00    -0.302 N 
HETATM   14  C10 UNL     1      21.321  29.086  11.961  1.00  0.00     0.156 A 
ATOM     15  H2  UNL     1      19.446  29.582  11.348  1.00  0.00     0.171 HD
HETATM   16  N1  UNL     1      21.472  27.920  11.316  1.00  0.00    -0.328 N 
HETATM   17  S1  UNL     1      22.778  29.280  12.806  1.00  0.00    -0.027 SA
HETATM   18  C7  UNL     1      22.609  27.273  11.483  1.00  0.00     0.050 A 
HETATM   19  C8  UNL     1      22.973  25.922  10.853  1.00  0.00     0.072 C 
HETATM   20  C9  UNL     1      23.546  27.850  12.305  1.00  0.00     0.133 A 
HETATM   21  O2  UNL     1      20.246  32.104  11.951  1.00  0.00    -0.266 OA
BRANCH  16  22
HETATM   22  C6  UNL     1      20.379  27.415  10.428  1.00  0.00     0.131 C 
BRANCH  22  23
HETATM   23  C5  UNL     1      19.484  26.452  11.119  1.00  0.00     0.020 C 
BRANCH  23  24
HETATM   24  C4  UNL     1      18.051  26.827  11.242  1.00  0.00     0.002 C 
BRANCH  24  25
HETATM   25  C3  UNL     1      17.575  27.401   9.893  1.00  0.00    -0.000 C 
BRANCH  25  26
HETATM   26  C2  UNL     1      17.212  26.178   9.044  1.00  0.00    -0.005 C 
HETATM   27  C1  UNL     1      17.801  26.353   7.661  1.00  0.00     0.005 C 
ENDBRANCH  25  26
ENDBRANCH  24  25
ENDBRANCH  23  24
ENDBRANCH  22  23
ENDBRANCH  16  22
BRANCH  20  28
HETATM   28  O1  UNL     1      24.834  27.365  12.646  1.00  0.00    -0.352 OA
ATOM     29  H1  UNL     1      25.061  26.674  13.257  1.00  0.00     0.218 HD
ENDBRANCH  20  28
ENDBRANCH   1  12
BRANCH  10  30
HETATM   30  C21 UNL     1      22.840  33.211  15.976  1.00  0.00     0.275 C 
BRANCH  30  31
HETATM   31  N4  UNL     1      22.484  32.435  17.175  1.00  0.00    -0.066 N 
ATOM     32  H43 UNL     1      23.069  32.673  17.975  1.00  0.00     0.275 HD
ATOM     33  H42 UNL     1      21.584  32.717  17.562  1.00  0.00     0.275 HD
ATOM     34  H41 UNL     1      22.515  31.438  16.959  1.00  0.00     0.275 HD
ENDBRANCH  30  31
BRANCH  30  35
HETATM   35  C22 UNL     1      22.383  34.609  16.261  1.00  0.00     0.044 C 
BRANCH  35  36
HETATM   36  C23 UNL     1      20.887  34.688  16.108  1.00  0.00     0.022 C 
BRANCH  36  37
HETATM   37  C24 UNL     1      20.215  35.196  17.341  1.00  0.00     0.122 C 
BRANCH  37  38
HETATM   38  N5  UNL     1      18.811  35.455  17.097  1.00  0.00    -0.360 N 
HETATM   39  C25 UNL     1      17.832  35.342  18.103  1.00  0.00     0.225 C 
HETATM   40  O4  UNL     1      18.070  35.008  19.288  1.00  0.00    -0.273 OA
ATOM     41  H5  UNL     1      18.520  35.732  16.160  1.00  0.00     0.162 HD
BRANCH  39  42
HETATM   42  C26 UNL     1      16.413  35.640  17.735  1.00  0.00     0.030 C 
HETATM   43  C27 UNL     1      15.570  34.442  18.090  1.00  0.00     0.024 C 
HETATM   44  C28 UNL     1      15.923  36.903  18.426  1.00  0.00     0.024 C 
HETATM   45  C29 UNL     1      16.406  35.882  16.232  1.00  0.00     0.024 C 
ENDBRANCH  39  42
ENDBRANCH  37  38
ENDBRANCH  36  37
ENDBRANCH  35  36
ENDBRANCH  30  35
ENDBRANCH  10  30
TORSDOF 14
ENDMDL
MODEL 3
REMARK VINA RESULT: -8.258601056      2.354      4.987
REMARK  14 active torsions:
REMARK  status: ('A' for Active; 'I' for Inactive)
REMARK    1  A    between atoms: C2_2  and  C3_3 
REMARK    2  A    between atoms: C3_3  and  C4_4 
REMARK    3  A    between atoms: C4_4  and  C5_5 
REMARK    4  A    between atoms: C5_5  and  C6_6 
REMARK    5  A    between atoms: C6_6  and  N1_7 
REMARK    6  A    between atoms: C9_10  and  O1_11 
REMARK       I    between atoms: N2_15  and  C11_17 
REMARK    7  A    between atoms: C11_17  and  C12_19 
REMARK       I    between atoms: N3_27  and  C20_28 
REMARK    8  A    between atoms: C20_28  and  C21_30 
REMARK    9  A    between atoms: C21_30  and  N4_31 
REMARK   10  A    between atoms: C21_30  and  C22_35 
REMARK   11  A    between atoms: C22_35  and  C23_36 
REMARK   12  A    between atoms: C23_36  and  C24_37 
REMARK   13  A    between atoms: C24_37  and  N5_38 
REMARK       I    between atoms: N5_38  and  C25_40 
REMARK   14  A    between atoms: C25_40  and  C26_42 
ROOT
HETATM    1  C12 UNL     1      20.029  31.590  15.171  1.00  0.00     0.087 C 
HETATM    2  C13 UNL     1      21.255  32.330  15.639  1.00  0.00     0.047 C 
HETATM    3  C14 UNL     1      21.879  31.875  16.900  1.00  0.00     0.011 C 
HETATM    4  C15 UNL     1      22.630  33.105  17.449  1.00  0.00     0.001 C 
HETATM    5  C16 UNL     1      23.003  34.062  16.306  1.00  0.00     0.000 C 
HETATM    6  C17 UNL     1      21.738  34.678  15.678  1.00  0.00     0.007 C 
HETATM    7  C18 UNL     1      20.667  33.710  15.980  1.00  0.00     0.014 C 
HETATM    8  C19 UNL     1      19.415  33.750  15.179  1.00  0.00     0.137 C 
HETATM    9  N3  UNL     1      18.913  32.378  15.573  1.00  0.00    -0.314 N 
HETATM   10  C20 UNL     1      17.684  32.190  16.183  1.00  0.00     0.255 C 
HETATM   11  O3  UNL     1      17.309  31.068  16.578  1.00  0.00    -0.271 OA
ENDROOT
BRANCH   1  12
HETATM   12  C11 UNL     1      20.063  30.178  15.274  1.00  0.00     0.270 C 
HETATM   13  N2  UNL     1      20.269  29.392  14.098  1.00  0.00    -0.302 N 
HETATM   14  C10 UNL     1      19.325  29.323  13.174  1.00  0.00     0.156 A 
ATOM     15  H2  UNL     1      21.144  28.883  13.971  1.00  0.00     0.171 HD
HETATM   16  N1  UNL     1      19.399  28.623  12.032  1.00  0.00    -0.328 N 
HETATM   17  S1  UNL     1      17.798  30.056  13.108  1.00  0.00    -0.027 SA
HETATM   18  C7  UNL     1      18.363  28.673  11.218  1.00  0.00     0.050 A 
HETATM   19  C8  UNL     1      18.254  27.963   9.862  1.00  0.00     0.072 C 
HETATM   20  C9  UNL     1      17.292  29.440  11.608  1.00  0.00     0.133 A 
HETATM   21  O2  UNL     1      19.931  29.519  16.314  1.00  0.00    -0.266 OA
BRANCH  16  22
HETATM   22  C6  UNL     1      20.617  27.805  11.740  1.00  0.00     0.131 C 
BRANCH  22  23
HETATM   23  C5  UNL     1      21.753  28.631  11.254  1.00  0.00     0.020 C 
BRANCH  23  24
HETATM   24  C4  UNL     1      23.121  28.197  11.639  1.00  0.00     0.002 C 
BRANCH  24  25
HETATM   25  C3  UNL     1      24.015  28.218  10.384  1.00  0.00    -0.000 C 
BRANCH  25  26
HETATM   26  C2  UNL     1      25.209  27.322  10.730  1.00  0.00    -0.005 C 
HETATM   27  C1  UNL     1      25.268  27.149  12.233  1.00  0.00     0.005 C 
ENDBRANCH  25  26
ENDBRANCH  24  25
ENDBRANCH  23  24
ENDBRANCH  22  23
ENDBRANCH  16  22
BRANCH  20  28
HETATM   28  O1  UNL     1      16.071  29.657  10.922  1.00  0.00    -0.352 OA
ATOM     29  H1  UNL     1      15.921  30.161  10.131  1.00  0.00     0.218 HD
ENDBRANCH  20  28
ENDBRANCH   1  12
BRANCH  10  30
HETATM   30  C21 UNL     1      16.710  33.330  16.412  1.00  0.00     0.275 C 
BRANCH  30  31
HETATM   31  N4  UNL     1      15.350  32.793  16.568  1.00  0.00    -0.066 N 
ATOM     32  H43 UNL     1      14.743  33.052  15.790  1.00  0.00     0.275 HD
ATOM     33  H42 UNL     1      15.320  31.781  16.446  1.00  0.00     0.275 HD
ATOM     34  H41 UNL     1      14.968  33.084  17.468  1.00  0.00     0.275 HD
ENDBRANCH  30  31
BRANCH  30  35
HETATM   35  C22 UNL     1      16.662  34.174  15.175  1.00  0.00     0.044 C 
BRANCH  35  36
HETATM   36  C23 UNL     1      16.485  35.619  15.560  1.00  0.00     0.022 C 
BRANCH  36  37
HETATM   37  C24 UNL     1      16.689  35.848  17.021  1.00  0.00     0.122 C 
BRANCH  37  38
HETATM   38  N5  UNL     1      17.964  36.486  17.273  1.00  0.00    -0.360 N 
HETATM   39  C25 UNL     1      18.768  36.166  18.384  1.00  0.00     0.225 C 
HETATM   40  O4  UNL     1      18.467  35.313  19.253  1.00  0.00    -0.273 OA
ATOM     41  H5  UNL     1      18.293  37.197  16.620  1.00  0.00     0.162 HD
BRANCH  39  42
HETATM   42  C26 UNL     1      20.069  36.888  18.539  1.00  0.00     0.030 C 
HETATM   43  C27 UNL     1      21.057  35.951  19.183  1.00  0.00     0.024 C 
HETATM   44  C28 UNL     1      20.569  37.407  17.200  1.00  0.00     0.024 C 
HETATM   45  C29 UNL     1      19.786  38.082  19.441  1.00  0.00     0.024 C 
ENDBRANCH  39  42
ENDBRANCH  37  38
ENDBRANCH  36  37
ENDBRANCH  35  36
ENDBRANCH  30  35
ENDBRANCH  10  30
TORSDOF 14
ENDMDL
MODEL 4
REMARK VINA RESULT: -8.227253681      3.497      9.534
REMARK  14 active torsions:
REMARK  status: ('A' for Active; 'I' for Inactive)
REMARK    1  A    between atoms: C2_2  and  C3_3 
REMARK    2  A    between atoms: C3_3  and  C4_4 
REMARK    3  A    between atoms: C4_4  and  C5_5 
REMARK    4  A    between atoms: C5_5  and  C6_6 
REMARK    5  A    between atoms: C6_6  and  N1_7 
REMARK    6  A    between atoms: C9_10  and  O1_11 
REMARK       I    between atoms: N2_15  and  C11_17 
REMARK    7  A    between atoms: C11_17  and  C12_19 
REMARK       I    between atoms: N3_27  and  C20_28 
REMARK    8  A    between atoms: C20_28  and  C21_30 
REMARK    9  A    between atoms: C21_30  and  N4_31 
REMARK   10  A    between atoms: C21_30  and  C22_35 
REMARK   11  A    between atoms: C22_35  and  C23_36 
REMARK   12  A    between atoms: C23_36  and  C24_37 
REMARK   13  A    between atoms: C24_37  and  N5_38 
REMARK       I    between atoms: N5_38  and  C25_40 
REMARK   14  A    between atoms: C25_40  and  C26_42 
ROOT
HETATM    1  C12 UNL     1      19.436  36.282  17.558  1.00  0.00     0.087 C 
HETATM    2  C13 UNL     1      17.976  35.928  17.444  1.00  0.00     0.047 C 
HETATM    3  C14 UNL     1      17.269  35.565  18.691  1.00  0.00     0.011 C 
HETATM    4  C15 UNL     1      16.089  34.678  18.246  1.00  0.00     0.001 C 
HETATM    5  C16 UNL     1      15.693  34.998  16.796  1.00  0.00     0.000 C 
HETATM    6  C17 UNL     1      16.818  34.595  15.824  1.00  0.00     0.007 C 
HETATM    7  C18 UNL     1      18.042  34.615  16.645  1.00  0.00     0.014 C 
HETATM    8  C19 UNL     1      19.362  34.700  15.967  1.00  0.00     0.137 C 
HETATM    9  N3  UNL     1      20.158  35.112  17.186  1.00  0.00    -0.314 N 
HETATM   10  C20 UNL     1      21.232  34.373  17.650  1.00  0.00     0.255 C 
HETATM   11  O3  UNL     1      21.835  34.672  18.700  1.00  0.00    -0.271 OA
ENDROOT
BRANCH   1  12
HETATM   12  C11 UNL     1      19.804  37.112  18.645  1.00  0.00     0.270 C 
HETATM   13  N2  UNL     1      19.538  38.515  18.581  1.00  0.00    -0.302 N 
HETATM   14  C10 UNL     1      20.214  39.279  17.740  1.00  0.00     0.156 A 
ATOM     15  H2  UNL     1      18.826  38.927  19.184  1.00  0.00     0.171 HD
HETATM   16  N1  UNL     1      20.056  40.603  17.587  1.00  0.00    -0.328 N 
HETATM   17  S1  UNL     1      21.429  38.881  16.626  1.00  0.00    -0.027 SA
HETATM   18  C7  UNL     1      20.813  41.209  16.694  1.00  0.00     0.050 A 
HETATM   19  C8  UNL     1      20.777  42.704  16.354  1.00  0.00     0.072 C 
HETATM   20  C9  UNL     1      21.703  40.432  15.992  1.00  0.00     0.133 A 
HETATM   21  O2  UNL     1      20.354  36.743  19.691  1.00  0.00    -0.266 OA
BRANCH  16  22
HETATM   22  C6  UNL     1      19.065  41.336  18.436  1.00  0.00     0.131 C 
BRANCH  22  23
HETATM   23  C5  UNL     1      17.811  41.649  17.704  1.00  0.00     0.020 C 
BRANCH  23  24
HETATM   24  C4  UNL     1      16.563  41.003  18.188  1.00  0.00     0.002 C 
BRANCH  24  25
HETATM   25  C3  UNL     1      16.451  39.606  17.546  1.00  0.00    -0.000 C 
BRANCH  25  26
HETATM   26  C2  UNL     1      15.746  38.740  18.595  1.00  0.00    -0.005 C 
HETATM   27  C1  UNL     1      16.125  39.240  19.973  1.00  0.00     0.005 C 
ENDBRANCH  25  26
ENDBRANCH  24  25
ENDBRANCH  23  24
ENDBRANCH  22  23
ENDBRANCH  16  22
BRANCH  20  28
HETATM   28  O1  UNL     1      22.620  40.835  14.989  1.00  0.00    -0.352 OA
ATOM     29  H1  UNL     1      23.407  40.390  14.697  1.00  0.00     0.218 HD
ENDBRANCH  20  28
ENDBRANCH   1  12
BRANCH  10  30
HETATM   30  C21 UNL     1      21.752  33.151  16.916  1.00  0.00     0.275 C 
BRANCH  30  31
HETATM   31  N4  UNL     1      22.182  32.136  17.891  1.00  0.00    -0.066 N 
ATOM     32  H43 UNL     1      23.197  32.091  17.977  1.00  0.00     0.275 HD
ATOM     33  H42 UNL     1      21.965  32.408  18.849  1.00  0.00     0.275 HD
ATOM     34  H41 UNL     1      21.776  31.233  17.646  1.00  0.00     0.275 HD
ENDBRANCH  30  31
BRANCH  30  35
HETATM   35  C22 UNL     1      22.994  33.532  16.170  1.00  0.00     0.044 C 
BRANCH  35  36
HETATM   36  C23 UNL     1      23.261  32.519  15.088  1.00  0.00     0.022 C 
BRANCH  36  37
HETATM   37  C24 UNL     1      22.298  32.632  13.953  1.00  0.00     0.122 C 
BRANCH  37  38
HETATM   38  N5  UNL     1      21.180  31.729  14.129  1.00  0.00    -0.360 N 
HETATM   39  C25 UNL     1      20.080  31.701  13.251  1.00  0.00     0.225 C 
HETATM   40  O4  UNL     1      19.957  32.443  12.247  1.00  0.00    -0.273 OA
ATOM     41  H5  UNL     1      21.189  31.087  14.921  1.00  0.00     0.162 HD
BRANCH  39  42
HETATM   42  C26 UNL     1      18.985  30.722  13.530  1.00  0.00     0.030 C 
HETATM   43  C27 UNL     1      17.782  31.484  14.025  1.00  0.00     0.024 C 
HETATM   44  C28 UNL     1      18.662  29.895  12.295  1.00  0.00     0.024 C 
HETATM   45  C29 UNL     1      19.516  29.787  14.609  1.00  0.00     0.024 C 
ENDBRANCH  39  42
ENDBRANCH  37  38
ENDBRANCH  36  37
ENDBRANCH  35  36
ENDBRANCH  30  35
ENDBRANCH  10  30
TORSDOF 14
ENDMDL
MODEL 5
REMARK VINA RESULT: -8.209405684      2.556      5.043
REMARK  14 active torsions:
REMARK  status: ('A' for Active; 'I' for Inactive)
REMARK    1  A    between atoms: C2_2  and  C3_3 
REMARK    2  A    between atoms: C3_3  and  C4_4 
REMARK    3  A    between atoms: C4_4  and  C5_5 
REMARK    4  A    between atoms: C5_5  and  C6_6 
REMARK    5  A    between atoms: C6_6  and  N1_7 
REMARK    6  A    between atoms: C9_10  and  O1_11 
REMARK       I    between atoms: N2_15  and  C11_17 
REMARK    7  A    between atoms: C11_17  and  C12_19 
REMARK       I    between atoms: N3_27  and  C20_28 
REMARK    8  A    between atoms: C20_28  and  C21_30 
REMARK    9  A    between atoms: C21_30  and  N4_31 
REMARK   10  A    between atoms: C21_30  and  C22_35 
REMARK   11  A    between atoms: C22_35  and  C23_36 
REMARK   12  A    between atoms: C23_36  and  C24_37 
REMARK   13  A    between atoms: C24_37  and  N5_38 
REMARK       I    between atoms: N5_38  and  C25_40 
REMARK   14  A    between atoms: C25_40  and  C26_42 
ROOT
HETATM    1  C12 UNL     1      19.898  31.790  15.211  1.00  0.00     0.087 C 
HETATM    2  C13 UNL     1      21.053  32.597  15.743  1.00  0.00     0.047 C 
HETATM    3  C14 UNL     1      21.604  32.203  17.058  1.00  0.00     0.011 C 
HETATM    4  C15 UNL     1      22.259  33.479  17.624  1.00  0.00     0.001 C 
HETATM    5  C16 UNL     1      22.671  34.423  16.484  1.00  0.00     0.000 C 
HETATM    6  C17 UNL     1      21.429  34.964  15.750  1.00  0.00     0.007 C 
HETATM    7  C18 UNL     1      20.382  33.957  16.002  1.00  0.00     0.014 C 
HETATM    8  C19 UNL     1      19.191  33.920  15.113  1.00  0.00     0.137 C 
HETATM    9  N3  UNL     1      18.722  32.537  15.509  1.00  0.00    -0.314 N 
HETATM   10  C20 UNL     1      17.462  32.308  16.036  1.00  0.00     0.255 C 
HETATM   11  O3  UNL     1      17.108  31.181  16.435  1.00  0.00    -0.271 OA
ENDROOT
BRANCH   1  12
HETATM   12  C11 UNL     1      19.985  30.384  15.356  1.00  0.00     0.270 C 
HETATM   13  N2  UNL     1      20.258  29.574  14.210  1.00  0.00    -0.302 N 
HETATM   14  C10 UNL     1      19.346  29.441  13.262  1.00  0.00     0.156 A 
ATOM     15  H2  UNL     1      21.156  29.098  14.123  1.00  0.00     0.171 HD
HETATM   16  N1  UNL     1      19.481  28.713  12.143  1.00  0.00    -0.328 N 
HETATM   17  S1  UNL     1      17.793  30.109  13.130  1.00  0.00    -0.027 SA
HETATM   18  C7  UNL     1      18.469  28.697  11.298  1.00  0.00     0.050 A 
HETATM   19  C8  UNL     1      18.429  27.946   9.962  1.00  0.00     0.072 C 
HETATM   20  C9  UNL     1      17.357  29.430  11.635  1.00  0.00     0.133 A 
HETATM   21  O2  UNL     1      19.849  29.750  16.411  1.00  0.00    -0.266 OA
BRANCH  16  22
HETATM   22  C6  UNL     1      20.740  27.938  11.910  1.00  0.00     0.131 C 
BRANCH  22  23
HETATM   23  C5  UNL     1      21.851  28.793  11.419  1.00  0.00     0.020 C 
BRANCH  23  24
HETATM   24  C4  UNL     1      23.236  28.326  11.686  1.00  0.00     0.002 C 
BRANCH  24  25
HETATM   25  C3  UNL     1      23.988  28.224  10.344  1.00  0.00    -0.000 C 
BRANCH  25  26
HETATM   26  C2  UNL     1      25.198  27.329  10.632  1.00  0.00    -0.005 C 
HETATM   27  C1  UNL     1      25.292  27.104  12.126  1.00  0.00     0.005 C 
ENDBRANCH  25  26
ENDBRANCH  24  25
ENDBRANCH  23  24
ENDBRANCH  22  23
ENDBRANCH  16  22
BRANCH  20  28
HETATM   28  O1  UNL     1      16.149  29.577  10.908  1.00  0.00    -0.352 OA
ATOM     29  H1  UNL     1      15.808  30.356  10.484  1.00  0.00     0.218 HD
ENDBRANCH  20  28
ENDBRANCH   1  12
BRANCH  10  30
HETATM   30  C21 UNL     1      16.425  33.409  16.163  1.00  0.00     0.275 C 
BRANCH  30  31
HETATM   31  N4  UNL     1      16.694  34.457  15.166  1.00  0.00    -0.066 N 
ATOM     32  H43 UNL     1      16.988  34.069  14.270  1.00  0.00     0.275 HD
ATOM     33  H42 UNL     1      15.841  34.918  14.853  1.00  0.00     0.275 HD
ATOM     34  H41 UNL     1      17.374  35.119  15.541  1.00  0.00     0.275 HD
ENDBRANCH  30  31
BRANCH  30  35
HETATM   35  C22 UNL     1      16.595  34.076  17.493  1.00  0.00     0.044 C 
BRANCH  35  36
HETATM   36  C23 UNL     1      15.242  34.346  18.096  1.00  0.00     0.022 C 
BRANCH  36  37
HETATM   37  C24 UNL     1      14.738  35.714  17.775  1.00  0.00     0.122 C 
BRANCH  37  38
HETATM   38  N5  UNL     1      15.620  36.731  18.309  1.00  0.00    -0.360 N 
HETATM   39  C25 UNL     1      16.486  37.488  17.498  1.00  0.00     0.225 C 
HETATM   40  O4  UNL     1      16.583  37.362  16.254  1.00  0.00    -0.273 OA
ATOM     41  H5  UNL     1      15.614  36.905  19.314  1.00  0.00     0.162 HD
BRANCH  39  42
HETATM   42  C26 UNL     1      17.349  38.515  18.162  1.00  0.00     0.030 C 
HETATM   43  C27 UNL     1      18.590  37.831  18.673  1.00  0.00     0.024 C 
HETATM   44  C28 UNL     1      17.680  39.651  17.207  1.00  0.00     0.024 C 
HETATM   45  C29 UNL     1      16.527  39.079  19.313  1.00  0.00     0.024 C 
ENDBRANCH  39  42
ENDBRANCH  37  38
ENDBRANCH  36  37
ENDBRANCH  35  36
ENDBRANCH  30  35
ENDBRANCH  10  30
TORSDOF 14
ENDMDL
