MODEL 1
REMARK VINA RESULT: -7.715671158      0.000      0.000
REMARK  16 active torsions:
REMARK  status: ('A' for Active; 'I' for Inactive)
REMARK    1  A    between atoms: N1_8  and  C8_9 
REMARK    2  A    between atoms: C8_9  and  C9_10 
REMARK    3  A    between atoms: C9_10  and  O1_11 
REMARK    4  A    between atoms: O1_11  and  C10_12 
REMARK    5  A    between atoms: C10_12  and  C11_13 
REMARK    6  A    between atoms: C11_13  and  C12_14 
REMARK    7  A    between atoms: C12_14  and  C13_15 
REMARK    8  A    between atoms: C13_15  and  C14_16 
REMARK    9  A    between atoms: C14_16  and  C15_17 
REMARK   10  A    between atoms: C15_17  and  N2_18 
REMARK   11  A    between atoms: N2_18  and  C16_19 
REMARK       I    between atoms: N2_18  and  C23_29 
REMARK   12  A    between atoms: C16_19  and  C17_20 
REMARK   13  A    between atoms: C17_20  and  C18_21 
REMARK       I    between atoms: C18_21  and  N3_23 
REMARK       I    between atoms: C23_29  and  N4_31 
REMARK   14  A    between atoms: N4_31  and  C24_33 
REMARK   15  A    between atoms: C24_33  and  C25_34 
REMARK   16  A    between atoms: C25_34  and  C26_35 
ROOT
HETATM    1  N2  UNL     1      21.474  30.746  14.511  1.00  0.00    -0.334 N 
HETATM    2  C23 UNL     1      20.351  30.415  15.308  1.00  0.00     0.318 C 
HETATM    3  O3  UNL     1      20.101  29.182  15.563  1.00  0.00    -0.247 OA
HETATM    4  N4  UNL     1      19.505  31.423  15.823  1.00  0.00    -0.342 N 
ATOM      5  H4  UNL     1      19.731  32.395  15.612  1.00  0.00     0.164 HD
ENDROOT
BRANCH   1   6
HETATM    6  C15 UNL     1      21.752  32.110  14.184  1.00  0.00     0.127 C 
BRANCH   6   7
HETATM    7  C14 UNL     1      23.147  32.565  14.583  1.00  0.00     0.020 C 
BRANCH   7   8
HETATM    8  C13 UNL     1      23.046  33.024  16.015  1.00  0.00     0.002 C 
BRANCH   8   9
HETATM    9  C12 UNL     1      21.807  33.828  16.300  1.00  0.00     0.002 C 
BRANCH   9  10
HETATM   10  C11 UNL     1      22.109  35.250  16.704  1.00  0.00     0.026 C 
BRANCH  10  11
HETATM   11  C10 UNL     1      22.213  35.437  18.174  1.00  0.00     0.167 C 
BRANCH  11  12
HETATM   12  O1  UNL     1      21.121  35.265  18.876  1.00  0.00    -0.389 OA
BRANCH  12  13
HETATM   13  C9  UNL     1      19.911  35.757  18.774  1.00  0.00     0.198 C 
BRANCH  13  14
HETATM   14  C8  UNL     1      18.696  35.085  19.278  1.00  0.00     0.299 C 
BRANCH  14  15
HETATM   15  N1  UNL     1      17.737  34.836  18.250  1.00  0.00     0.100 N 
HETATM   16  C5  UNL     1      16.688  35.724  17.979  1.00  0.00     0.162 C 
HETATM   17  C4  UNL     1      15.324  35.074  18.241  1.00  0.00     0.042 C 
HETATM   18  C6  UNL     1      17.000  35.696  16.480  1.00  0.00     0.072 C 
HETATM   19  C27 UNL     1      16.634  37.084  18.562  1.00  0.00     0.046 C 
HETATM   20  C3  UNL     1      14.411  36.298  18.302  1.00  0.00     0.007 C 
HETATM   21  C2  UNL     1      15.239  37.254  19.095  1.00  0.00    -0.016 C 
HETATM   22  C1  UNL     1      14.739  38.690  18.980  1.00  0.00     0.010 C 
HETATM   23  C7  UNL     1      18.282  35.045  16.933  1.00  0.00     0.276 C 
ENDBRANCH  14  15
ENDBRANCH  13  14
ENDBRANCH  12  13
ENDBRANCH  11  12
ENDBRANCH  10  11
ENDBRANCH   9  10
ENDBRANCH   8   9
ENDBRANCH   7   8
ENDBRANCH   6   7
ENDBRANCH   1   6
BRANCH   1  24
HETATM   24  C16 UNL     1      22.329  29.670  14.042  1.00  0.00     0.136 C 
BRANCH  24  25
HETATM   25  C17 UNL     1      21.952  29.383  12.605  1.00  0.00     0.123 C 
BRANCH  25  26
HETATM   26  C18 UNL     1      22.427  28.029  12.184  1.00  0.00     0.221 C 
HETATM   27  O2  UNL     1      23.671  27.800  12.162  1.00  0.00    -0.273 OA
HETATM   28  N3  UNL     1      21.465  27.066  11.831  1.00  0.00    -0.351 N 
HETATM   29  C19 UNL     1      20.065  27.383  11.872  1.00  0.00     0.136 C 
HETATM   30  C22 UNL     1      21.895  25.750  11.428  1.00  0.00     0.136 C 
HETATM   31  C20 UNL     1      19.449  27.441  10.465  1.00  0.00     0.093 C 
HETATM   32  S1  UNL     1      19.730  25.782   9.732  1.00  0.00    -0.166 SA
HETATM   33  C21 UNL     1      20.746  24.884  10.960  1.00  0.00     0.093 C 
ENDBRANCH  25  26
ENDBRANCH  24  25
ENDBRANCH   1  24
BRANCH   4  34
HETATM   34  C24 UNL     1      18.344  31.156  16.627  1.00  0.00     0.135 C 
BRANCH  34  35
HETATM   35  C25 UNL     1      17.097  31.541  15.905  1.00  0.00     0.133 C 
BRANCH  35  36
HETATM   36  C26 UNL     1      17.434  31.840  14.477  1.00  0.00     0.174 C 
HETATM   37  O4  UNL     1      17.717  33.008  14.152  1.00  0.00    -0.648 OA
HETATM   38  O5  UNL     1      17.437  30.848  13.525  1.00  0.00    -0.648 OA
ENDBRANCH  35  36
ENDBRANCH  34  35
ENDBRANCH   4  34
TORSDOF 16
ENDMDL
MODEL 2
REMARK VINA RESULT: -7.694849066      1.525      2.148
REMARK  16 active torsions:
REMARK  status: ('A' for Active; 'I' for Inactive)
REMARK    1  A    between atoms: N1_8  and  C8_9 
REMARK    2  A    between atoms: C8_9  and  C9_10 
REMARK    3  A    between atoms: C9_10  and  O1_11 
REMARK    4  A    between atoms: O1_11  and  C10_12 
REMARK    5  A    between atoms: C10_12  and  C11_13 
REMARK    6  A    between atoms: C11_13  and  C12_14 
REMARK    7  A    between atoms: C12_14  and  C13_15 
REMARK    8  A    between atoms: C13_15  and  C14_16 
REMARK    9  A    between atoms: C14_16  and  C15_17 
REMARK   10  A    between atoms: C15_17  and  N2_18 
REMARK   11  A    between atoms: N2_18  and  C16_19 
REMARK       I    between atoms: N2_18  and  C23_29 
REMARK   12  A    between atoms: C16_19  and  C17_20 
REMARK   13  A    between atoms: C17_20  and  C18_21 
REMARK       I    between atoms: C18_21  and  N3_23 
REMARK       I    between atoms: C23_29  and  N4_31 
REMARK   14  A    between atoms: N4_31  and  C24_33 
REMARK   15  A    between atoms: C24_33  and  C25_34 
REMARK   16  A    between atoms: C25_34  and  C26_35 
ROOT
HETATM    1  N2  UNL     1      21.485  30.539  14.543  1.00  0.00    -0.334 N 
HETATM    2  C23 UNL     1      20.351  30.276  15.349  1.00  0.00     0.318 C 
HETATM    3  O3  UNL     1      20.049  29.062  15.636  1.00  0.00    -0.247 OA
HETATM    4  N4  UNL     1      19.549  31.332  15.839  1.00  0.00    -0.342 N 
ATOM      5  H4  UNL     1      19.815  32.288  15.603  1.00  0.00     0.164 HD
ENDROOT
BRANCH   1   6
HETATM    6  C15 UNL     1      21.819  31.882  14.181  1.00  0.00     0.127 C 
BRANCH   6   7
HETATM    7  C14 UNL     1      23.168  32.342  14.711  1.00  0.00     0.020 C 
BRANCH   7   8
HETATM    8  C13 UNL     1      22.883  33.487  15.648  1.00  0.00     0.002 C 
BRANCH   8   9
HETATM    9  C12 UNL     1      22.498  33.046  17.034  1.00  0.00     0.002 C 
BRANCH   9  10
HETATM   10  C11 UNL     1      21.901  34.158  17.860  1.00  0.00     0.026 C 
BRANCH  10  11
HETATM   11  C10 UNL     1      20.753  34.832  17.200  1.00  0.00     0.167 C 
BRANCH  11  12
HETATM   12  O1  UNL     1      19.588  34.240  17.278  1.00  0.00    -0.389 OA
BRANCH  12  13
HETATM   13  C9  UNL     1      18.393  34.666  17.606  1.00  0.00     0.198 C 
BRANCH  13  14
HETATM   14  C8  UNL     1      18.128  35.662  18.664  1.00  0.00     0.299 C 
BRANCH  14  15
HETATM   15  N1  UNL     1      16.735  35.894  18.867  1.00  0.00     0.100 N 
HETATM   16  C5  UNL     1      16.100  37.060  18.418  1.00  0.00     0.162 C 
HETATM   17  C4  UNL     1      15.545  37.880  19.590  1.00  0.00     0.042 C 
HETATM   18  C6  UNL     1      14.975  36.245  17.773  1.00  0.00     0.072 C 
HETATM   19  C27 UNL     1      16.760  38.014  17.501  1.00  0.00     0.046 C 
HETATM   20  C3  UNL     1      15.310  39.236  18.926  1.00  0.00     0.007 C 
HETATM   21  C2  UNL     1      16.537  39.380  18.088  1.00  0.00    -0.016 C 
HETATM   22  C1  UNL     1      16.388  40.459  17.022  1.00  0.00     0.010 C 
HETATM   23  C7  UNL     1      15.915  35.089  17.998  1.00  0.00     0.276 C 
ENDBRANCH  14  15
ENDBRANCH  13  14
ENDBRANCH  12  13
ENDBRANCH  11  12
ENDBRANCH  10  11
ENDBRANCH   9  10
ENDBRANCH   8   9
ENDBRANCH   7   8
ENDBRANCH   6   7
ENDBRANCH   1   6
BRANCH   1  24
HETATM   24  C16 UNL     1      22.292  29.416  14.100  1.00  0.00     0.136 C 
BRANCH  24  25
HETATM   25  C17 UNL     1      22.220  29.371  12.590  1.00  0.00     0.123 C 
BRANCH  25  26
HETATM   26  C18 UNL     1      21.628  28.081  12.118  1.00  0.00     0.221 C 
HETATM   27  O2  UNL     1      20.523  27.704  12.606  1.00  0.00    -0.273 OA
HETATM   28  N3  UNL     1      22.328  27.342  11.147  1.00  0.00    -0.351 N 
HETATM   29  C19 UNL     1      23.580  27.818  10.631  1.00  0.00     0.136 C 
HETATM   30  C22 UNL     1      21.776  26.099  10.670  1.00  0.00     0.136 C 
HETATM   31  C20 UNL     1      24.758  26.941  11.084  1.00  0.00     0.093 C 
HETATM   32  S1  UNL     1      24.386  25.253  10.464  1.00  0.00    -0.166 SA
HETATM   33  C21 UNL     1      22.714  25.373   9.730  1.00  0.00     0.093 C 
ENDBRANCH  25  26
ENDBRANCH  24  25
ENDBRANCH   1  24
BRANCH   4  34
HETATM   34  C24 UNL     1      18.380  31.136  16.652  1.00  0.00     0.135 C 
BRANCH  34  35
HETATM   35  C25 UNL     1      17.148  31.551  15.920  1.00  0.00     0.133 C 
BRANCH  35  36
HETATM   36  C26 UNL     1      17.531  32.022  14.551  1.00  0.00     0.174 C 
HETATM   37  O4  UNL     1      17.512  31.215  13.604  1.00  0.00    -0.648 OA
HETATM   38  O5  UNL     1      17.901  33.327  14.327  1.00  0.00    -0.648 OA
ENDBRANCH  35  36
ENDBRANCH  34  35
ENDBRANCH   4  34
TORSDOF 16
ENDMDL
MODEL 3
REMARK VINA RESULT: -7.572447855      2.923      6.192
REMARK  16 active torsions:
REMARK  status: ('A' for Active; 'I' for Inactive)
REMARK    1  A    between atoms: N1_8  and  C8_9 
REMARK    2  A    between atoms: C8_9  and  C9_10 
REMARK    3  A    between atoms: C9_10  and  O1_11 
REMARK    4  A    between atoms: O1_11  and  C10_12 
REMARK    5  A    between atoms: C10_12  and  C11_13 
REMARK    6  A    between atoms: C11_13  and  C12_14 
REMARK    7  A    between atoms: C12_14  and  C13_15 
REMARK    8  A    between atoms: C13_15  and  C14_16 
REMARK    9  A    between atoms: C14_16  and  C15_17 
REMARK   10  A    between atoms: C15_17  and  N2_18 
REMARK   11  A    between atoms: N2_18  and  C16_19 
REMARK       I    between atoms: N2_18  and  C23_29 
REMARK   12  A    between atoms: C16_19  and  C17_20 
REMARK   13  A    between atoms: C17_20  and  C18_21 
REMARK       I    between atoms: C18_21  and  N3_23 
REMARK       I    between atoms: C23_29  and  N4_31 
REMARK   14  A    between atoms: N4_31  and  C24_33 
REMARK   15  A    between atoms: C24_33  and  C25_34 
REMARK   16  A    between atoms: C25_34  and  C26_35 
ROOT
HETATM    1  N2  UNL     1      21.129  28.746  12.704  1.00  0.00    -0.334 N 
HETATM    2  C23 UNL     1      21.740  27.604  12.133  1.00  0.00     0.318 C 
HETATM    3  O3  UNL     1      22.963  27.669  11.747  1.00  0.00    -0.247 OA
HETATM    4  N4  UNL     1      21.022  26.395  11.982  1.00  0.00    -0.342 N 
ATOM      5  H4  UNL     1      20.055  26.367  12.304  1.00  0.00     0.164 HD
ENDROOT
BRANCH   1   6
HETATM    6  C15 UNL     1      19.757  28.706  13.108  1.00  0.00     0.127 C 
BRANCH   6   7
HETATM    7  C14 UNL     1      18.778  28.995  11.981  1.00  0.00     0.020 C 
BRANCH   7   8
HETATM    8  C13 UNL     1      17.815  30.024  12.515  1.00  0.00     0.002 C 
BRANCH   8   9
HETATM    9  C12 UNL     1      17.835  30.143  14.015  1.00  0.00     0.002 C 
BRANCH   9  10
HETATM   10  C11 UNL     1      17.354  31.487  14.504  1.00  0.00     0.026 C 
BRANCH  10  11
HETATM   11  C10 UNL     1      17.155  31.542  15.975  1.00  0.00     0.167 C 
BRANCH  11  12
HETATM   12  O1  UNL     1      16.513  32.579  16.452  1.00  0.00    -0.389 OA
BRANCH  12  13
HETATM   13  C9  UNL     1      15.905  33.589  15.880  1.00  0.00     0.198 C 
BRANCH  13  14
HETATM   14  C8  UNL     1      16.253  35.006  16.109  1.00  0.00     0.299 C 
BRANCH  14  15
HETATM   15  N1  UNL     1      16.260  35.356  17.492  1.00  0.00     0.100 N 
HETATM   16  C5  UNL     1      16.547  36.656  17.931  1.00  0.00     0.162 C 
HETATM   17  C4  UNL     1      17.821  36.690  18.784  1.00  0.00     0.042 C 
HETATM   18  C6  UNL     1      15.313  36.664  18.837  1.00  0.00     0.072 C 
HETATM   19  C27 UNL     1      16.623  37.804  16.999  1.00  0.00     0.046 C 
HETATM   20  C3  UNL     1      18.155  38.181  18.772  1.00  0.00     0.007 C 
HETATM   21  C2  UNL     1      17.887  38.539  17.348  1.00  0.00    -0.016 C 
HETATM   22  C1  UNL     1      17.765  40.044  17.141  1.00  0.00     0.010 C 
HETATM   23  C7  UNL     1      14.931  35.442  18.040  1.00  0.00     0.276 C 
ENDBRANCH  14  15
ENDBRANCH  13  14
ENDBRANCH  12  13
ENDBRANCH  11  12
ENDBRANCH  10  11
ENDBRANCH   9  10
ENDBRANCH   8   9
ENDBRANCH   7   8
ENDBRANCH   6   7
ENDBRANCH   1   6
BRANCH   1  24
HETATM   24  C16 UNL     1      21.928  29.947  12.868  1.00  0.00     0.136 C 
BRANCH  24  25
HETATM   25  C17 UNL     1      21.653  30.491  14.253  1.00  0.00     0.123 C 
BRANCH  25  26
HETATM   26  C18 UNL     1      20.995  31.831  14.184  1.00  0.00     0.221 C 
HETATM   27  O2  UNL     1      20.713  32.313  13.049  1.00  0.00    -0.273 OA
HETATM   28  N3  UNL     1      20.716  32.500  15.390  1.00  0.00    -0.351 N 
HETATM   29  C19 UNL     1      21.062  31.906  16.651  1.00  0.00     0.136 C 
HETATM   30  C22 UNL     1      20.076  33.790  15.352  1.00  0.00     0.136 C 
HETATM   31  C20 UNL     1      22.200  32.665  17.350  1.00  0.00     0.093 C 
HETATM   32  S1  UNL     1      21.587  34.381  17.574  1.00  0.00    -0.166 SA
HETATM   33  C21 UNL     1      19.968  34.424  16.723  1.00  0.00     0.093 C 
ENDBRANCH  25  26
ENDBRANCH  24  25
ENDBRANCH   1  24
BRANCH   4  34
HETATM   34  C24 UNL     1      21.578  25.204  11.401  1.00  0.00     0.135 C 
BRANCH  34  35
HETATM   35  C25 UNL     1      20.563  24.496  10.567  1.00  0.00     0.133 C 
BRANCH  35  36
HETATM   36  C26 UNL     1      19.304  24.340  11.362  1.00  0.00     0.174 C 
HETATM   37  O4  UNL     1      18.482  25.274  11.387  1.00  0.00    -0.648 OA
HETATM   38  O5  UNL     1      19.045  23.184  12.061  1.00  0.00    -0.648 OA
ENDBRANCH  35  36
ENDBRANCH  34  35
ENDBRANCH   4  34
TORSDOF 16
ENDMDL
MODEL 4
REMARK VINA RESULT: -7.562461970      1.439      2.022
REMARK  16 active torsions:
REMARK  status: ('A' for Active; 'I' for Inactive)
REMARK    1  A    between atoms: N1_8  and  C8_9 
REMARK    2  A    between atoms: C8_9  and  C9_10 
REMARK    3  A    between atoms: C9_10  and  O1_11 
REMARK    4  A    between atoms: O1_11  and  C10_12 
REMARK    5  A    between atoms: C10_12  and  C11_13 
REMARK    6  A    between atoms: C11_13  and  C12_14 
REMARK    7  A    between atoms: C12_14  and  C13_15 
REMARK    8  A    between atoms: C13_15  and  C14_16 
REMARK    9  A    between atoms: C14_16  and  C15_17 
REMARK   10  A    between atoms: C15_17  and  N2_18 
REMARK   11  A    between atoms: N2_18  and  C16_19 
REMARK       I    between atoms: N2_18  and  C23_29 
REMARK   12  A    between atoms: C16_19  and  C17_20 
REMARK   13  A    between atoms: C17_20  and  C18_21 
REMARK       I    between atoms: C18_21  and  N3_23 
REMARK       I    between atoms: C23_29  and  N4_31 
REMARK   14  A    between atoms: N4_31  and  C24_33 
REMARK   15  A    between atoms: C24_33  and  C25_34 
REMARK   16  A    between atoms: C25_34  and  C26_35 
ROOT
HETATM    1  N2  UNL     1      21.258  31.216  13.836  1.00  0.00    -0.334 N 
HETATM    2  C23 UNL     1      20.026  31.867  13.582  1.00  0.00     0.318 C 
HETATM    3  O3  UNL     1      19.404  31.637  12.483  1.00  0.00    -0.247 OA
HETATM    4  N4  UNL     1      19.474  32.767  14.523  1.00  0.00    -0.342 N 
ATOM      5  H4  UNL     1      19.984  32.927  15.392  1.00  0.00     0.164 HD
ENDROOT
BRANCH   1   6
HETATM    6  C15 UNL     1      21.984  31.485  15.037  1.00  0.00     0.127 C 
BRANCH   6   7
HETATM    7  C14 UNL     1      23.167  32.421  14.842  1.00  0.00     0.020 C 
BRANCH   7   8
HETATM    8  C13 UNL     1      23.066  33.458  15.931  1.00  0.00     0.002 C 
BRANCH   8   9
HETATM    9  C12 UNL     1      22.155  33.056  17.059  1.00  0.00     0.002 C 
BRANCH   9  10
HETATM   10  C11 UNL     1      21.774  34.215  17.947  1.00  0.00     0.026 C 
BRANCH  10  11
HETATM   11  C10 UNL     1      20.473  34.834  17.584  1.00  0.00     0.167 C 
BRANCH  11  12
HETATM   12  O1  UNL     1      19.798  35.413  18.545  1.00  0.00    -0.389 OA
BRANCH  12  13
HETATM   13  C9  UNL     1      18.574  35.265  18.987  1.00  0.00     0.198 C 
BRANCH  13  14
HETATM   14  C8  UNL     1      17.445  34.788  18.162  1.00  0.00     0.299 C 
BRANCH  14  15
HETATM   15  N1  UNL     1      16.185  35.283  18.611  1.00  0.00     0.100 N 
HETATM   16  C5  UNL     1      15.755  36.588  18.336  1.00  0.00     0.162 C 
HETATM   17  C4  UNL     1      15.582  37.403  19.623  1.00  0.00     0.042 C 
HETATM   18  C6  UNL     1      14.394  36.080  17.854  1.00  0.00     0.072 C 
HETATM   19  C27 UNL     1      16.455  37.461  17.366  1.00  0.00     0.046 C 
HETATM   20  C3  UNL     1      15.545  38.830  19.077  1.00  0.00     0.007 C 
HETATM   21  C2  UNL     1      16.627  38.788  18.050  1.00  0.00    -0.016 C 
HETATM   22  C1  UNL     1      16.551  39.961  17.078  1.00  0.00     0.010 C 
HETATM   23  C7  UNL     1      15.084  34.740  17.857  1.00  0.00     0.276 C 
ENDBRANCH  14  15
ENDBRANCH  13  14
ENDBRANCH  12  13
ENDBRANCH  11  12
ENDBRANCH  10  11
ENDBRANCH   9  10
ENDBRANCH   8   9
ENDBRANCH   7   8
ENDBRANCH   6   7
ENDBRANCH   1   6
BRANCH   1  24
HETATM   24  C16 UNL     1      21.755  30.274  12.849  1.00  0.00     0.136 C 
BRANCH  24  25
HETATM   25  C17 UNL     1      21.570  28.883  13.415  1.00  0.00     0.123 C 
BRANCH  25  26
HETATM   26  C18 UNL     1      21.754  27.843  12.356  1.00  0.00     0.221 C 
HETATM   27  O2  UNL     1      22.929  27.501  12.035  1.00  0.00    -0.273 OA
HETATM   28  N3  UNL     1      20.606  27.288  11.762  1.00  0.00    -0.351 N 
HETATM   29  C19 UNL     1      19.296  27.717  12.163  1.00  0.00     0.136 C 
HETATM   30  C22 UNL     1      20.754  26.278  10.744  1.00  0.00     0.136 C 
HETATM   31  C20 UNL     1      18.586  28.509  11.054  1.00  0.00     0.093 C 
HETATM   32  S1  UNL     1      18.498  27.374   9.613  1.00  0.00    -0.166 SA
HETATM   33  C21 UNL     1      19.431  25.885  10.121  1.00  0.00     0.093 C 
ENDBRANCH  25  26
ENDBRANCH  24  25
ENDBRANCH   1  24
BRANCH   4  34
HETATM   34  C24 UNL     1      18.236  33.469  14.325  1.00  0.00     0.135 C 
BRANCH  34  35
HETATM   35  C25 UNL     1      17.130  32.825  15.091  1.00  0.00     0.133 C 
BRANCH  35  36
HETATM   36  C26 UNL     1      17.672  31.631  15.815  1.00  0.00     0.174 C 
HETATM   37  O4  UNL     1      17.409  30.492  15.389  1.00  0.00    -0.648 OA
HETATM   38  O5  UNL     1      18.451  31.776  16.939  1.00  0.00    -0.648 OA
ENDBRANCH  35  36
ENDBRANCH  34  35
ENDBRANCH   4  34
TORSDOF 16
ENDMDL
MODEL 5
REMARK VINA RESULT: -7.556856730      3.158      7.016
REMARK  16 active torsions:
REMARK  status: ('A' for Active; 'I' for Inactive)
REMARK    1  A    between atoms: N1_8  and  C8_9 
REMARK    2  A    between atoms: C8_9  and  C9_10 
REMARK    3  A    between atoms: C9_10  and  O1_11 
REMARK    4  A    between atoms: O1_11  and  C10_12 
REMARK    5  A    between atoms: C10_12  and  C11_13 
REMARK    6  A    between atoms: C11_13  and  C12_14 
REMARK    7  A    between atoms: C12_14  and  C13_15 
REMARK    8  A    between atoms: C13_15  and  C14_16 
REMARK    9  A    between atoms: C14_16  and  C15_17 
REMARK   10  A    between atoms: C15_17  and  N2_18 
REMARK   11  A    between atoms: N2_18  and  C16_19 
REMARK       I    between atoms: N2_18  and  C23_29 
REMARK   12  A    between atoms: C16_19  and  C17_20 
REMARK   13  A    between atoms: C17_20  and  C18_21 
REMARK       I    between atoms: C18_21  and  N3_23 
REMARK       I    between atoms: C23_29  and  N4_31 
REMARK   14  A    between atoms: N4_31  and  C24_33 
REMARK   15  A    between atoms: C24_33  and  C25_34 
REMARK   16  A    between atoms: C25_34  and  C26_35 
ROOT
HETATM    1  N2  UNL     1      20.244  26.017  10.895  1.00  0.00    -0.334 N 
HETATM    2  C23 UNL     1      21.249  25.345  10.157  1.00  0.00     0.318 C 
HETATM    3  O3  UNL     1      21.143  24.082   9.952  1.00  0.00    -0.247 OA
HETATM    4  N4  UNL     1      22.363  26.047   9.643  1.00  0.00    -0.342 N 
ATOM      5  H4  UNL     1      22.419  27.051   9.813  1.00  0.00     0.164 HD
ENDROOT
BRANCH   1   6
HETATM    6  C15 UNL     1      20.359  27.416  11.165  1.00  0.00     0.127 C 
BRANCH   6   7
HETATM    7  C14 UNL     1      21.228  27.739  12.371  1.00  0.00     0.020 C 
BRANCH   7   8
HETATM    8  C13 UNL     1      21.633  29.183  12.222  1.00  0.00     0.002 C 
BRANCH   8   9
HETATM    9  C12 UNL     1      22.584  29.652  13.289  1.00  0.00     0.002 C 
BRANCH   9  10
HETATM   10  C11 UNL     1      21.921  30.528  14.323  1.00  0.00     0.026 C 
BRANCH  10  11
HETATM   11  C10 UNL     1      22.001  31.978  14.007  1.00  0.00     0.167 C 
BRANCH  11  12
HETATM   12  O1  UNL     1      21.425  32.804  14.844  1.00  0.00    -0.389 OA
BRANCH  12  13
HETATM   13  C9  UNL     1      21.052  32.687  16.094  1.00  0.00     0.198 C 
BRANCH  13  14
HETATM   14  C8  UNL     1      19.686  32.327  16.524  1.00  0.00     0.299 C 
BRANCH  14  15
HETATM   15  N1  UNL     1      18.704  32.600  15.525  1.00  0.00     0.100 N 
HETATM   16  C5  UNL     1      18.050  31.578  14.824  1.00  0.00     0.162 C 
HETATM   17  C4  UNL     1      18.368  31.638  13.325  1.00  0.00     0.042 C 
HETATM   18  C6  UNL     1      16.684  32.214  15.092  1.00  0.00     0.072 C 
HETATM   19  C27 UNL     1      18.148  30.157  15.227  1.00  0.00     0.046 C 
HETATM   20  C3  UNL     1      17.932  30.247  12.866  1.00  0.00     0.007 C 
HETATM   21  C2  UNL     1      18.449  29.388  13.971  1.00  0.00    -0.016 C 
HETATM   22  C1  UNL     1      17.821  27.999  13.970  1.00  0.00     0.010 C 
HETATM   23  C7  UNL     1      17.454  33.036  16.094  1.00  0.00     0.276 C 
ENDBRANCH  14  15
ENDBRANCH  13  14
ENDBRANCH  12  13
ENDBRANCH  11  12
ENDBRANCH  10  11
ENDBRANCH   9  10
ENDBRANCH   8   9
ENDBRANCH   7   8
ENDBRANCH   6   7
ENDBRANCH   1   6
BRANCH   1  24
HETATM   24  C16 UNL     1      19.104  25.250  11.364  1.00  0.00     0.136 C 
BRANCH  24  25
HETATM   25  C17 UNL     1      17.997  25.412  10.345  1.00  0.00     0.123 C 
BRANCH  25  26
HETATM   26  C18 UNL     1      17.832  24.171   9.528  1.00  0.00     0.221 C 
HETATM   27  O2  UNL     1      17.574  23.083  10.118  1.00  0.00    -0.273 OA
HETATM   28  N3  UNL     1      17.971  24.270   8.131  1.00  0.00    -0.351 N 
HETATM   29  C19 UNL     1      18.268  25.532   7.515  1.00  0.00     0.136 C 
HETATM   30  C22 UNL     1      17.810  23.090   7.319  1.00  0.00     0.136 C 
HETATM   31  C20 UNL     1      19.683  25.561   6.917  1.00  0.00     0.093 C 
HETATM   32  S1  UNL     1      19.729  24.198   5.688  1.00  0.00    -0.166 SA
HETATM   33  C21 UNL     1      18.119  23.347   5.859  1.00  0.00     0.093 C 
ENDBRANCH  25  26
ENDBRANCH  24  25
ENDBRANCH   1  24
BRANCH   4  34
HETATM   34  C24 UNL     1      23.423  25.426   8.896  1.00  0.00     0.135 C 
BRANCH  34  35
HETATM   35  C25 UNL     1      24.751  25.966   9.308  1.00  0.00     0.133 C 
BRANCH  35  36
HETATM   36  C26 UNL     1      24.657  26.467  10.716  1.00  0.00     0.174 C 
HETATM   37  O4  UNL     1      24.647  27.695  10.924  1.00  0.00    -0.648 OA
HETATM   38  O5  UNL     1      24.583  25.595  11.776  1.00  0.00    -0.648 OA
ENDBRANCH  35  36
ENDBRANCH  34  35
ENDBRANCH   4  34
TORSDOF 16
ENDMDL
