MODEL 1
REMARK VINA RESULT: -8.650739035      0.000      0.000
REMARK  12 active torsions:
REMARK  status: ('A' for Active; 'I' for Inactive)
REMARK    1  A    between atoms: S1_2  and  C2_3 
REMARK    2  A    between atoms: C7_8  and  C8_9 
REMARK    3  A    between atoms: N1_10  and  C9_11 
REMARK    4  A    between atoms: N1_10  and  C20_23 
REMARK    5  A    between atoms: C9_11  and  C10_12 
REMARK    6  A    between atoms: C10_12  and  C11_13 
REMARK    7  A    between atoms: C11_13  and  C12_14 
REMARK    8  A    between atoms: C12_14  and  C13_15 
REMARK    9  A    between atoms: C13_15  and  C14_16 
REMARK   10  A    between atoms: C14_16  and  N2_17 
REMARK   11  A    between atoms: C20_23  and  C21_24 
REMARK   12  A    between atoms: C23_28  and  C24_29 
ROOT
HETATM    1  C8  UNL     1      82.511  88.733 150.356  1.00  0.00     0.103 C 
HETATM    2  N1  UNL     1      83.056  89.650 149.505  1.00  0.00    -0.365 N 
ENDROOT
BRANCH   2   3
HETATM    3  C9  UNL     1      82.177  90.807 149.362  1.00  0.00     0.128 C 
BRANCH   3   4
HETATM    4  C10 UNL     1      81.890  91.534 150.630  1.00  0.00     0.020 C 
BRANCH   4   5
HETATM    5  C11 UNL     1      80.391  91.828 150.711  1.00  0.00     0.002 C 
BRANCH   5   6
HETATM    6  C12 UNL     1      79.872  91.553 152.096  1.00  0.00     0.002 C 
BRANCH   6   7
HETATM    7  C13 UNL     1      80.494  92.388 153.163  1.00  0.00     0.030 C 
BRANCH   7   8
HETATM    8  C14 UNL     1      79.442  92.819 154.153  1.00  0.00     0.272 C 
BRANCH   8   9
HETATM    9  N2  UNL     1      80.029  92.974 155.470  1.00  0.00     0.088 N 
HETATM   10  C15 UNL     1      79.427  94.113 156.154  1.00  0.00     0.272 C 
HETATM   11  C16 UNL     1      80.244  95.347 155.834  1.00  0.00     0.030 C 
HETATM   12  C17 UNL     1      81.572  95.286 156.566  1.00  0.00     0.003 C 
HETATM   13  C18 UNL     1      82.048  93.841 156.601  1.00  0.00     0.030 C 
HETATM   14  C19 UNL     1      81.455  93.062 155.440  1.00  0.00     0.272 C 
ENDBRANCH   8   9
ENDBRANCH   7   8
ENDBRANCH   6   7
ENDBRANCH   5   6
ENDBRANCH   4   5
ENDBRANCH   3   4
ENDBRANCH   2   3
BRANCH   2  15
HETATM   15  C20 UNL     1      83.912  89.499 148.445  1.00  0.00     0.106 C 
BRANCH  15  16
HETATM   16  C21 UNL     1      85.004  90.479 148.225  1.00  0.00     0.036 A 
HETATM   17  C22 UNL     1      85.418  90.945 147.004  1.00  0.00     0.106 A 
HETATM   18  N3  UNL     1      86.408  91.849 146.870  1.00  0.00    -0.349 N 
HETATM   19  C23 UNL     1      87.056  92.357 147.911  1.00  0.00     0.134 A 
ATOM     20  H3  UNL     1      86.669  92.155 145.932  1.00  0.00     0.166 HD
HETATM   21  N5  UNL     1      86.657  91.904 149.136  1.00  0.00    -0.328 N 
HETATM   22  C30 UNL     1      85.692  91.020 149.320  1.00  0.00     0.131 A 
ATOM     23  H5  UNL     1      87.132  92.270 149.960  1.00  0.00     0.168 HD
HETATM   24  N6  UNL     1      85.323  90.582 150.609  1.00  0.00    -0.082 NA
BRANCH  19  25
HETATM   25  C24 UNL     1      88.142  93.336 147.843  1.00  0.00     0.082 A 
HETATM   26  N4  UNL     1      89.436  92.892 147.923  1.00  0.00    -0.362 N 
HETATM   27  C25 UNL     1      90.479  93.720 147.863  1.00  0.00     0.088 A 
ATOM     28  H4  UNL     1      89.607  91.892 148.032  1.00  0.00     0.165 HD
HETATM   29  C26 UNL     1      90.332  95.091 147.715  1.00  0.00     0.018 A 
HETATM   30  C27 UNL     1      89.055  95.568 147.631  1.00  0.00     0.010 A 
HETATM   31  C28 UNL     1      87.984  94.681 147.697  1.00  0.00    -0.031 A 
HETATM   32  C29 UNL     1      86.616  95.247 147.602  1.00  0.00     0.050 C 
ENDBRANCH  19  25
ENDBRANCH  15  16
ENDBRANCH   2  15
BRANCH   1  33
HETATM   33  C7  UNL     1      83.074  87.456 150.717  1.00  0.00    -0.004 A 
HETATM   34  C2  UNL     1      82.310  86.334 150.323  1.00  0.00     0.011 A 
HETATM   35  C3  UNL     1      82.708  85.058 150.607  1.00  0.00     0.019 A 
HETATM   36  C4  UNL     1      83.875  84.809 151.290  1.00  0.00     0.001 A 
HETATM   37  C5  UNL     1      84.646  85.866 151.689  1.00  0.00     0.001 A 
HETATM   38  C6  UNL     1      84.211  87.152 151.385  1.00  0.00     0.014 A 
BRANCH  34  39
HETATM   39  S1  UNL     1      80.777  86.550 149.430  1.00  0.00    -0.134 SA
HETATM   40  C1  UNL     1      79.937  84.978 149.195  1.00  0.00     0.095 C 
ENDBRANCH  34  39
ENDBRANCH   1  33
TORSDOF 12
ENDMDL
MODEL 2
REMARK VINA RESULT: -8.647723554      2.410      4.106
REMARK  12 active torsions:
REMARK  status: ('A' for Active; 'I' for Inactive)
REMARK    1  A    between atoms: S1_2  and  C2_3 
REMARK    2  A    between atoms: C7_8  and  C8_9 
REMARK    3  A    between atoms: N1_10  and  C9_11 
REMARK    4  A    between atoms: N1_10  and  C20_23 
REMARK    5  A    between atoms: C9_11  and  C10_12 
REMARK    6  A    between atoms: C10_12  and  C11_13 
REMARK    7  A    between atoms: C11_13  and  C12_14 
REMARK    8  A    between atoms: C12_14  and  C13_15 
REMARK    9  A    between atoms: C13_15  and  C14_16 
REMARK   10  A    between atoms: C14_16  and  N2_17 
REMARK   11  A    between atoms: C20_23  and  C21_24 
REMARK   12  A    between atoms: C23_28  and  C24_29 
ROOT
HETATM    1  C8  UNL     1      82.516  88.695 150.220  1.00  0.00     0.103 C 
HETATM    2  N1  UNL     1      83.111  89.602 149.392  1.00  0.00    -0.365 N 
ENDROOT
BRANCH   2   3
HETATM    3  C9  UNL     1      82.241  90.755 149.181  1.00  0.00     0.128 C 
BRANCH   3   4
HETATM    4  C10 UNL     1      82.168  91.700 150.329  1.00  0.00     0.020 C 
BRANCH   4   5
HETATM    5  C11 UNL     1      80.699  91.971 150.661  1.00  0.00     0.002 C 
BRANCH   5   6
HETATM    6  C12 UNL     1      80.266  91.152 151.847  1.00  0.00     0.002 C 
BRANCH   6   7
HETATM    7  C13 UNL     1      78.960  90.454 151.670  1.00  0.00     0.030 C 
BRANCH   7   8
HETATM    8  C14 UNL     1      78.961  89.690 150.370  1.00  0.00     0.272 C 
BRANCH   8   9
HETATM    9  N2  UNL     1      77.780  90.019 149.597  1.00  0.00     0.088 N 
HETATM   10  C15 UNL     1      77.011  88.811 149.322  1.00  0.00     0.272 C 
HETATM   11  C16 UNL     1      77.495  88.227 148.010  1.00  0.00     0.030 C 
HETATM   12  C17 UNL     1      77.022  89.095 146.859  1.00  0.00     0.003 C 
HETATM   13  C18 UNL     1      77.056  90.552 147.295  1.00  0.00     0.030 C 
HETATM   14  C19 UNL     1      78.076  90.747 148.404  1.00  0.00     0.272 C 
ENDBRANCH   8   9
ENDBRANCH   7   8
ENDBRANCH   6   7
ENDBRANCH   5   6
ENDBRANCH   4   5
ENDBRANCH   3   4
ENDBRANCH   2   3
BRANCH   2  15
HETATM   15  C20 UNL     1      84.031  89.438 148.388  1.00  0.00     0.106 C 
BRANCH  15  16
HETATM   16  C21 UNL     1      85.098  90.449 148.185  1.00  0.00     0.036 A 
HETATM   17  C22 UNL     1      85.487  90.959 146.973  1.00  0.00     0.106 A 
HETATM   18  N3  UNL     1      86.454  91.889 146.854  1.00  0.00    -0.349 N 
HETATM   19  C23 UNL     1      87.103  92.382 147.903  1.00  0.00     0.134 A 
ATOM     20  H3  UNL     1      86.698  92.227 145.923  1.00  0.00     0.166 HD
HETATM   21  N5  UNL     1      86.727  91.885 149.118  1.00  0.00    -0.328 N 
HETATM   22  C30 UNL     1      85.786  90.974 149.288  1.00  0.00     0.131 A 
ATOM     23  H5  UNL     1      87.204  92.239 149.947  1.00  0.00     0.168 HD
HETATM   24  N6  UNL     1      85.441  90.492 150.568  1.00  0.00    -0.082 NA
BRANCH  19  25
HETATM   25  C24 UNL     1      88.165  93.388 147.851  1.00  0.00     0.082 A 
HETATM   26  N4  UNL     1      89.466  92.980 147.994  1.00  0.00    -0.362 N 
HETATM   27  C25 UNL     1      90.489  93.834 147.952  1.00  0.00     0.088 A 
ATOM     28  H4  UNL     1      89.658  91.988 148.136  1.00  0.00     0.165 HD
HETATM   29  C26 UNL     1      90.313  95.196 147.762  1.00  0.00     0.018 A 
HETATM   30  C27 UNL     1      89.029  95.636 147.615  1.00  0.00     0.010 A 
HETATM   31  C28 UNL     1      87.979  94.724 147.663  1.00  0.00    -0.031 A 
HETATM   32  C29 UNL     1      86.601  95.250 147.499  1.00  0.00     0.050 C 
ENDBRANCH  19  25
ENDBRANCH  15  16
ENDBRANCH   2  15
BRANCH   1  33
HETATM   33  C7  UNL     1      83.057  87.423 150.632  1.00  0.00    -0.004 A 
HETATM   34  C2  UNL     1      82.290  86.298 150.255  1.00  0.00     0.011 A 
HETATM   35  C3  UNL     1      82.667  85.027 150.585  1.00  0.00     0.019 A 
HETATM   36  C4  UNL     1      83.816  84.787 151.301  1.00  0.00     0.001 A 
HETATM   37  C5  UNL     1      84.590  85.848 151.685  1.00  0.00     0.001 A 
HETATM   38  C6  UNL     1      84.176  87.128 151.334  1.00  0.00     0.014 A 
BRANCH  34  39
HETATM   39  S1  UNL     1      80.779  86.503 149.322  1.00  0.00    -0.134 SA
HETATM   40  C1  UNL     1      79.950  84.926 149.076  1.00  0.00     0.095 C 
ENDBRANCH  34  39
ENDBRANCH   1  33
TORSDOF 12
ENDMDL
MODEL 3
REMARK VINA RESULT: -8.607575168      2.689      6.445
REMARK  12 active torsions:
REMARK  status: ('A' for Active; 'I' for Inactive)
REMARK    1  A    between atoms: S1_2  and  C2_3 
REMARK    2  A    between atoms: C7_8  and  C8_9 
REMARK    3  A    between atoms: N1_10  and  C9_11 
REMARK    4  A    between atoms: N1_10  and  C20_23 
REMARK    5  A    between atoms: C9_11  and  C10_12 
REMARK    6  A    between atoms: C10_12  and  C11_13 
REMARK    7  A    between atoms: C11_13  and  C12_14 
REMARK    8  A    between atoms: C12_14  and  C13_15 
REMARK    9  A    between atoms: C13_15  and  C14_16 
REMARK   10  A    between atoms: C14_16  and  N2_17 
REMARK   11  A    between atoms: C20_23  and  C21_24 
REMARK   12  A    between atoms: C23_28  and  C24_29 
ROOT
HETATM    1  C8  UNL     1      80.932  90.377 149.659  1.00  0.00     0.103 C 
HETATM    2  N1  UNL     1      82.036  90.571 148.881  1.00  0.00    -0.365 N 
ENDROOT
BRANCH   2   3
HETATM    3  C9  UNL     1      83.206  89.937 149.481  1.00  0.00     0.128 C 
BRANCH   3   4
HETATM    4  C10 UNL     1      83.334  88.478 149.212  1.00  0.00     0.020 C 
BRANCH   4   5
HETATM    5  C11 UNL     1      83.830  87.778 150.478  1.00  0.00     0.002 C 
BRANCH   5   6
HETATM    6  C12 UNL     1      83.271  86.384 150.565  1.00  0.00     0.002 C 
BRANCH   6   7
HETATM    7  C13 UNL     1      82.510  85.949 149.359  1.00  0.00     0.030 C 
BRANCH   7   8
HETATM    8  C14 UNL     1      81.492  84.905 149.745  1.00  0.00     0.272 C 
BRANCH   8   9
HETATM    9  N2  UNL     1      80.196  85.522 149.943  1.00  0.00     0.088 N 
HETATM   10  C15 UNL     1      79.139  84.535 149.751  1.00  0.00     0.272 C 
HETATM   11  C16 UNL     1      78.732  84.550 148.292  1.00  0.00     0.030 C 
HETATM   12  C17 UNL     1      77.951  85.817 147.992  1.00  0.00     0.003 C 
HETATM   13  C18 UNL     1      78.541  86.961 148.804  1.00  0.00     0.030 C 
HETATM   14  C19 UNL     1      79.997  86.681 149.131  1.00  0.00     0.272 C 
ENDBRANCH   8   9
ENDBRANCH   7   8
ENDBRANCH   6   7
ENDBRANCH   5   6
ENDBRANCH   4   5
ENDBRANCH   3   4
ENDBRANCH   2   3
BRANCH   2  15
HETATM   15  C20 UNL     1      82.363  91.584 148.017  1.00  0.00     0.106 C 
BRANCH  15  16
HETATM   16  C21 UNL     1      83.770  92.045 147.910  1.00  0.00     0.036 A 
HETATM   17  C22 UNL     1      84.784  91.359 147.294  1.00  0.00     0.106 A 
HETATM   18  N3  UNL     1      86.041  91.838 147.216  1.00  0.00    -0.349 N 
HETATM   19  C23 UNL     1      86.391  93.010 147.731  1.00  0.00     0.134 A 
ATOM     20  H3  UNL     1      86.751  91.278 146.743  1.00  0.00     0.166 HD
HETATM   21  N5  UNL     1      85.392  93.707 148.350  1.00  0.00    -0.328 N 
HETATM   22  C30 UNL     1      84.146  93.282 148.452  1.00  0.00     0.131 A 
ATOM     23  H5  UNL     1      85.623  94.612 148.759  1.00  0.00     0.168 HD
HETATM   24  N6  UNL     1      83.153  94.041 149.107  1.00  0.00    -0.082 NA
BRANCH  19  25
HETATM   25  C24 UNL     1      87.734  93.592 147.690  1.00  0.00     0.082 A 
HETATM   26  N4  UNL     1      88.803  92.807 148.037  1.00  0.00    -0.362 N 
HETATM   27  C25 UNL     1      90.056  93.262 148.019  1.00  0.00     0.088 A 
ATOM     28  H4  UNL     1      88.633  91.841 148.318  1.00  0.00     0.165 HD
HETATM   29  C26 UNL     1      90.370  94.560 147.650  1.00  0.00     0.018 A 
HETATM   30  C27 UNL     1      89.328  95.370 147.297  1.00  0.00     0.010 A 
HETATM   31  C28 UNL     1      88.030  94.870 147.325  1.00  0.00    -0.031 A 
HETATM   32  C29 UNL     1      86.931  95.788 146.935  1.00  0.00     0.050 C 
ENDBRANCH  19  25
ENDBRANCH  15  16
ENDBRANCH   2  15
BRANCH   1  33
HETATM   33  C7  UNL     1      79.604  90.878 149.406  1.00  0.00    -0.004 A 
HETATM   34  C2  UNL     1      79.027  91.605 150.472  1.00  0.00     0.011 A 
HETATM   35  C3  UNL     1      77.769  92.131 150.386  1.00  0.00     0.019 A 
HETATM   36  C4  UNL     1      77.007  91.976 149.252  1.00  0.00     0.001 A 
HETATM   37  C5  UNL     1      77.526  91.280 148.196  1.00  0.00     0.001 A 
HETATM   38  C6  UNL     1      78.810  90.757 148.317  1.00  0.00     0.014 A 
BRANCH  34  39
HETATM   39  S1  UNL     1      79.936  91.863 151.989  1.00  0.00    -0.134 SA
HETATM   40  C1  UNL     1      79.093  91.110 153.386  1.00  0.00     0.095 C 
ENDBRANCH  34  39
ENDBRANCH   1  33
TORSDOF 12
ENDMDL
MODEL 4
REMARK VINA RESULT: -8.586485577      2.508      6.224
REMARK  12 active torsions:
REMARK  status: ('A' for Active; 'I' for Inactive)
REMARK    1  A    between atoms: S1_2  and  C2_3 
REMARK    2  A    between atoms: C7_8  and  C8_9 
REMARK    3  A    between atoms: N1_10  and  C9_11 
REMARK    4  A    between atoms: N1_10  and  C20_23 
REMARK    5  A    between atoms: C9_11  and  C10_12 
REMARK    6  A    between atoms: C10_12  and  C11_13 
REMARK    7  A    between atoms: C11_13  and  C12_14 
REMARK    8  A    between atoms: C12_14  and  C13_15 
REMARK    9  A    between atoms: C13_15  and  C14_16 
REMARK   10  A    between atoms: C14_16  and  N2_17 
REMARK   11  A    between atoms: C20_23  and  C21_24 
REMARK   12  A    between atoms: C23_28  and  C24_29 
ROOT
HETATM    1  C8  UNL     1      81.273  90.429 150.211  1.00  0.00     0.103 C 
HETATM    2  N1  UNL     1      82.391  90.498 149.432  1.00  0.00    -0.365 N 
ENDROOT
BRANCH   2   3
HETATM    3  C9  UNL     1      83.542  89.939 150.133  1.00  0.00     0.128 C 
BRANCH   3   4
HETATM    4  C10 UNL     1      83.834  88.513 149.819  1.00  0.00     0.020 C 
BRANCH   4   5
HETATM    5  C11 UNL     1      83.253  87.628 150.924  1.00  0.00     0.002 C 
BRANCH   5   6
HETATM    6  C12 UNL     1      84.030  86.345 151.038  1.00  0.00     0.002 C 
BRANCH   6   7
HETATM    7  C13 UNL     1      83.199  85.111 150.946  1.00  0.00     0.030 C 
BRANCH   7   8
HETATM    8  C14 UNL     1      82.646  84.969 149.550  1.00  0.00     0.272 C 
BRANCH   8   9
HETATM    9  N2  UNL     1      81.211  84.770 149.600  1.00  0.00     0.088 N 
HETATM   10  C15 UNL     1      80.551  85.661 148.653  1.00  0.00     0.272 C 
HETATM   11  C16 UNL     1      80.221  86.955 149.368  1.00  0.00     0.030 C 
HETATM   12  C17 UNL     1      79.078  86.727 150.339  1.00  0.00     0.003 C 
HETATM   13  C18 UNL     1      79.221  85.340 150.949  1.00  0.00     0.030 C 
HETATM   14  C19 UNL     1      80.674  84.897 150.918  1.00  0.00     0.272 C 
ENDBRANCH   8   9
ENDBRANCH   7   8
ENDBRANCH   6   7
ENDBRANCH   5   6
ENDBRANCH   4   5
ENDBRANCH   3   4
ENDBRANCH   2   3
BRANCH   2  15
HETATM   15  C20 UNL     1      82.745  91.376 148.440  1.00  0.00     0.106 C 
BRANCH  15  16
HETATM   16  C21 UNL     1      84.059  92.065 148.493  1.00  0.00     0.036 A 
HETATM   17  C22 UNL     1      84.347  93.164 149.260  1.00  0.00     0.106 A 
HETATM   18  N3  UNL     1      85.566  93.737 149.277  1.00  0.00    -0.349 N 
HETATM   19  C23 UNL     1      86.580  93.280 148.551  1.00  0.00     0.134 A 
ATOM     20  H3  UNL     1      85.716  94.554 149.869  1.00  0.00     0.166 HD
HETATM   21  N5  UNL     1      86.310  92.185 147.781  1.00  0.00    -0.328 N 
HETATM   22  C30 UNL     1      85.133  91.587 147.730  1.00  0.00     0.131 A 
ATOM     23  H5  UNL     1      87.063  91.806 147.209  1.00  0.00     0.168 HD
HETATM   24  N6  UNL     1      84.907  90.460 146.911  1.00  0.00    -0.082 NA
BRANCH  19  25
HETATM   25  C24 UNL     1      87.927  93.852 148.514  1.00  0.00     0.082 A 
HETATM   26  N4  UNL     1      88.893  93.315 149.325  1.00  0.00    -0.362 N 
HETATM   27  C25 UNL     1      90.144  93.777 149.344  1.00  0.00     0.088 A 
ATOM     28  H4  UNL     1      88.646  92.535 149.935  1.00  0.00     0.165 HD
HETATM   29  C26 UNL     1      90.559  94.832 148.546  1.00  0.00     0.018 A 
HETATM   30  C27 UNL     1      89.621  95.389 147.725  1.00  0.00     0.010 A 
HETATM   31  C28 UNL     1      88.323  94.889 147.725  1.00  0.00    -0.031 A 
HETATM   32  C29 UNL     1      87.339  95.528 146.817  1.00  0.00     0.050 C 
ENDBRANCH  19  25
ENDBRANCH  15  16
ENDBRANCH   2  15
BRANCH   1  33
HETATM   33  C7  UNL     1      79.956  90.908 149.869  1.00  0.00    -0.004 A 
HETATM   34  C2  UNL     1      79.307  91.646 150.885  1.00  0.00     0.011 A 
HETATM   35  C3  UNL     1      78.051  92.153 150.714  1.00  0.00     0.019 A 
HETATM   36  C4  UNL     1      77.360  91.967 149.540  1.00  0.00     0.001 A 
HETATM   37  C5  UNL     1      77.950  91.259 148.529  1.00  0.00     0.001 A 
HETATM   38  C6  UNL     1      79.231  90.756 148.737  1.00  0.00     0.014 A 
BRANCH  34  39
HETATM   39  S1  UNL     1      80.120  91.945 152.448  1.00  0.00    -0.134 SA
HETATM   40  C1  UNL     1      79.065  91.478 153.827  1.00  0.00     0.095 C 
ENDBRANCH  34  39
ENDBRANCH   1  33
TORSDOF 12
ENDMDL
MODEL 5
REMARK VINA RESULT: -8.573162056      2.248      3.002
REMARK  12 active torsions:
REMARK  status: ('A' for Active; 'I' for Inactive)
REMARK    1  A    between atoms: S1_2  and  C2_3 
REMARK    2  A    between atoms: C7_8  and  C8_9 
REMARK    3  A    between atoms: N1_10  and  C9_11 
REMARK    4  A    between atoms: N1_10  and  C20_23 
REMARK    5  A    between atoms: C9_11  and  C10_12 
REMARK    6  A    between atoms: C10_12  and  C11_13 
REMARK    7  A    between atoms: C11_13  and  C12_14 
REMARK    8  A    between atoms: C12_14  and  C13_15 
REMARK    9  A    between atoms: C13_15  and  C14_16 
REMARK   10  A    between atoms: C14_16  and  N2_17 
REMARK   11  A    between atoms: C20_23  and  C21_24 
REMARK   12  A    between atoms: C23_28  and  C24_29 
ROOT
HETATM    1  C8  UNL     1      82.477  88.670 150.235  1.00  0.00     0.103 C 
HETATM    2  N1  UNL     1      83.060  89.576 149.399  1.00  0.00    -0.365 N 
ENDROOT
BRANCH   2   3
HETATM    3  C9  UNL     1      82.178  90.719 149.181  1.00  0.00     0.128 C 
BRANCH   3   4
HETATM    4  C10 UNL     1      80.882  90.656 149.911  1.00  0.00     0.020 C 
BRANCH   4   5
HETATM    5  C11 UNL     1      80.693  91.947 150.708  1.00  0.00     0.002 C 
BRANCH   5   6
HETATM    6  C12 UNL     1      79.585  91.791 151.714  1.00  0.00     0.002 C 
BRANCH   6   7
HETATM    7  C13 UNL     1      79.705  90.582 152.579  1.00  0.00     0.030 C 
BRANCH   7   8
HETATM    8  C14 UNL     1      78.350  89.943 152.754  1.00  0.00     0.272 C 
BRANCH   8   9
HETATM    9  N2  UNL     1      78.477  88.499 152.755  1.00  0.00     0.088 N 
HETATM   10  C15 UNL     1      77.825  87.942 153.935  1.00  0.00     0.272 C 
HETATM   11  C16 UNL     1      78.847  87.860 155.050  1.00  0.00     0.030 C 
HETATM   12  C17 UNL     1      79.834  86.745 154.758  1.00  0.00     0.003 C 
HETATM   13  C18 UNL     1      80.090  86.696 153.259  1.00  0.00     0.030 C 
HETATM   14  C19 UNL     1      79.830  88.055 152.633  1.00  0.00     0.272 C 
ENDBRANCH   8   9
ENDBRANCH   7   8
ENDBRANCH   6   7
ENDBRANCH   5   6
ENDBRANCH   4   5
ENDBRANCH   3   4
ENDBRANCH   2   3
BRANCH   2  15
HETATM   15  C20 UNL     1      83.980  89.415 148.394  1.00  0.00     0.106 C 
BRANCH  15  16
HETATM   16  C21 UNL     1      85.053  90.422 148.199  1.00  0.00     0.036 A 
HETATM   17  C22 UNL     1      85.491  90.888 146.987  1.00  0.00     0.106 A 
HETATM   18  N3  UNL     1      86.461  91.816 146.875  1.00  0.00    -0.349 N 
HETATM   19  C23 UNL     1      87.064  92.349 147.931  1.00  0.00     0.134 A 
ATOM     20  H3  UNL     1      86.742  92.122 145.943  1.00  0.00     0.166 HD
HETATM   21  N5  UNL     1      86.640  91.895 149.147  1.00  0.00    -0.328 N 
HETATM   22  C30 UNL     1      85.694  90.987 149.310  1.00  0.00     0.131 A 
ATOM     23  H5  UNL     1      87.081  92.280 149.981  1.00  0.00     0.168 HD
HETATM   24  N6  UNL     1      85.297  90.550 150.591  1.00  0.00    -0.082 NA
BRANCH  19  25
HETATM   25  C24 UNL     1      88.127  93.356 147.887  1.00  0.00     0.082 A 
HETATM   26  N4  UNL     1      89.426  92.949 148.048  1.00  0.00    -0.362 N 
HETATM   27  C25 UNL     1      90.449  93.804 148.015  1.00  0.00     0.088 A 
ATOM     28  H4  UNL     1      89.617  91.959 148.199  1.00  0.00     0.165 HD
HETATM   29  C26 UNL     1      90.273  95.165 147.815  1.00  0.00     0.018 A 
HETATM   30  C27 UNL     1      88.991  95.604 147.649  1.00  0.00     0.010 A 
HETATM   31  C28 UNL     1      87.942  94.690 147.689  1.00  0.00    -0.031 A 
HETATM   32  C29 UNL     1      86.566  95.214 147.506  1.00  0.00     0.050 C 
ENDBRANCH  19  25
ENDBRANCH  15  16
ENDBRANCH   2  15
BRANCH   1  33
HETATM   33  C7  UNL     1      83.032  87.407 150.655  1.00  0.00    -0.004 A 
HETATM   34  C2  UNL     1      82.290  86.269 150.263  1.00  0.00     0.011 A 
HETATM   35  C3  UNL     1      82.683  85.005 150.599  1.00  0.00     0.019 A 
HETATM   36  C4  UNL     1      83.823  84.784 151.336  1.00  0.00     0.001 A 
HETATM   37  C5  UNL     1      84.571  85.856 151.735  1.00  0.00     0.001 A 
HETATM   38  C6  UNL     1      84.142  87.130 151.377  1.00  0.00     0.014 A 
BRANCH  34  39
HETATM   39  S1  UNL     1      80.794  86.450 149.303  1.00  0.00    -0.134 SA
HETATM   40  C1  UNL     1      79.903  84.892 149.193  1.00  0.00     0.095 C 
ENDBRANCH  34  39
ENDBRANCH   1  33
TORSDOF 12
ENDMDL
