MODEL 1
REMARK VINA RESULT: -9.327848134      0.000      0.000
REMARK  13 active torsions:
REMARK  status: ('A' for Active; 'I' for Inactive)
REMARK    1  A    between atoms: C1_2  and  C2_4 
REMARK    2  A    between atoms: C2_4  and  C3_5 
REMARK    3  A    between atoms: C8_10  and  C9_11 
REMARK    4  A    between atoms: C9_11  and  S1_12 
REMARK    5  A    between atoms: S1_12  and  C10_13 
REMARK    6  A    between atoms: C11_18  and  S2_19 
REMARK    7  A    between atoms: S2_19  and  C12_20 
REMARK    8  A    between atoms: C12_20  and  C13_21 
REMARK    9  A    between atoms: C13_21  and  O3_22 
REMARK   10  A    between atoms: O3_22  and  C14_23 
REMARK   11  A    between atoms: N3_29  and  C20_30 
REMARK   12  A    between atoms: C20_30  and  C21_31 
REMARK   13  A    between atoms: C21_31  and  C22_32 
ROOT
HETATM    1  C10 UNL     1      84.707  91.882 149.222  1.00  0.00     0.163 A 
HETATM    2  N1  UNL     1      83.964  92.904 148.709  1.00  0.00    -0.278 N 
ATOM      3  H1  UNL     1      84.313  93.677 148.143  1.00  0.00     0.189 HD
HETATM    4  N2  UNL     1      82.720  92.714 149.073  1.00  0.00    -0.278 N 
ATOM      5  H2  UNL     1      81.948  93.332 148.825  1.00  0.00     0.189 HD
HETATM    6  C11 UNL     1      82.589  91.611 149.810  1.00  0.00     0.163 A 
HETATM    7  N3  UNL     1      83.869  91.089 149.896  1.00  0.00    -0.306 N 
ENDROOT
BRANCH   1   8
HETATM    8  S1  UNL     1      86.485  91.691 149.053  1.00  0.00    -0.088 SA
BRANCH   8   9
HETATM    9  C9  UNL     1      86.992  92.191 147.359  1.00  0.00     0.121 C 
BRANCH   9  10
HETATM   10  C8  UNL     1      88.130  93.123 147.496  1.00  0.00    -0.042 A 
HETATM   11  C3  UNL     1      87.970  94.490 147.416  1.00  0.00    -0.041 A 
HETATM   12  C4  UNL     1      89.045  95.380 147.574  1.00  0.00     0.008 A 
HETATM   13  C5  UNL     1      90.293  94.850 147.815  1.00  0.00     0.001 A 
HETATM   14  C6  UNL     1      90.501  93.497 147.901  1.00  0.00     0.001 A 
HETATM   15  C7  UNL     1      89.423  92.656 147.741  1.00  0.00     0.008 A 
BRANCH  11  16
HETATM   16  C2  UNL     1      86.623  95.033 147.128  1.00  0.00     0.152 C 
BRANCH  16  17
HETATM   17  C1  UNL     1      86.096  95.733 148.324  1.00  0.00     0.176 C 
HETATM   18  O1  UNL     1      85.604  95.114 149.295  1.00  0.00    -0.648 OA
HETATM   19  O2  UNL     1      86.136  97.124 148.402  1.00  0.00    -0.648 OA
ENDBRANCH  16  17
ENDBRANCH  11  16
ENDBRANCH   9  10
ENDBRANCH   8   9
ENDBRANCH   1   8
BRANCH   7  20
HETATM   20  C20 UNL     1      84.129  89.848 150.595  1.00  0.00     0.134 C 
BRANCH  20  21
HETATM   21  C21 UNL     1      83.892  88.592 149.902  1.00  0.00     0.025 C 
BRANCH  21  22
HETATM   22  C22 UNL     1      83.526  87.328 150.515  1.00  0.00    -0.013 C 
HETATM   23  C23 UNL     1      82.173  87.170 151.127  1.00  0.00     0.005 C 
HETATM   24  C24 UNL     1      81.831  85.671 151.024  1.00  0.00     0.000 C 
HETATM   25  C25 UNL     1      83.007  84.801 150.791  1.00  0.00     0.000 C 
HETATM   26  C26 UNL     1      84.293  85.205 151.421  1.00  0.00     0.000 C 
HETATM   27  C27 UNL     1      84.511  86.711 151.488  1.00  0.00     0.005 C 
ENDBRANCH  21  22
ENDBRANCH  20  21
ENDBRANCH   7  20
BRANCH   6  28
HETATM   28  S2  UNL     1      81.150  90.876 150.565  1.00  0.00    -0.090 SA
BRANCH  28  29
HETATM   29  C12 UNL     1      80.240  92.183 151.438  1.00  0.00     0.109 C 
BRANCH  29  30
HETATM   30  C13 UNL     1      80.457  92.030 152.901  1.00  0.00     0.186 C 
BRANCH  30  31
HETATM   31  O3  UNL     1      80.035  93.056 153.688  1.00  0.00    -0.350 OA
BRANCH  31  32
HETATM   32  C14 UNL     1      80.562  93.724 154.738  1.00  0.00     0.068 A 
HETATM   33  C15 UNL     1      80.187  94.972 155.111  1.00  0.00     0.037 A 
HETATM   34  C16 UNL     1      80.781  95.595 156.202  1.00  0.00     0.003 A 
HETATM   35  C17 UNL     1      81.764  94.997 156.955  1.00  0.00     0.000 A 
HETATM   36  C18 UNL     1      82.147  93.730 156.581  1.00  0.00     0.003 A 
HETATM   37  C19 UNL     1      81.568  93.113 155.510  1.00  0.00     0.037 A 
ENDBRANCH  31  32
ENDBRANCH  30  31
ENDBRANCH  29  30
ENDBRANCH  28  29
ENDBRANCH   6  28
TORSDOF 13
ENDMDL
MODEL 2
REMARK VINA RESULT: -9.310013962      1.609      2.408
REMARK  13 active torsions:
REMARK  status: ('A' for Active; 'I' for Inactive)
REMARK    1  A    between atoms: C1_2  and  C2_4 
REMARK    2  A    between atoms: C2_4  and  C3_5 
REMARK    3  A    between atoms: C8_10  and  C9_11 
REMARK    4  A    between atoms: C9_11  and  S1_12 
REMARK    5  A    between atoms: S1_12  and  C10_13 
REMARK    6  A    between atoms: C11_18  and  S2_19 
REMARK    7  A    between atoms: S2_19  and  C12_20 
REMARK    8  A    between atoms: C12_20  and  C13_21 
REMARK    9  A    between atoms: C13_21  and  O3_22 
REMARK   10  A    between atoms: O3_22  and  C14_23 
REMARK   11  A    between atoms: N3_29  and  C20_30 
REMARK   12  A    between atoms: C20_30  and  C21_31 
REMARK   13  A    between atoms: C21_31  and  C22_32 
ROOT
HETATM    1  C10 UNL     1      83.171  91.194 148.137  1.00  0.00     0.163 A 
HETATM    2  N1  UNL     1      82.186  91.936 147.554  1.00  0.00    -0.278 N 
ATOM      3  H1  UNL     1      82.290  92.536 146.736  1.00  0.00     0.189 HD
HETATM    4  N2  UNL     1      81.084  91.739 148.233  1.00  0.00    -0.278 N 
ATOM      5  H2  UNL     1      80.189  92.175 148.013  1.00  0.00     0.189 HD
HETATM    6  C11 UNL     1      81.278  90.898 149.250  1.00  0.00     0.163 A 
HETATM    7  N3  UNL     1      82.618  90.557 149.175  1.00  0.00    -0.306 N 
ENDROOT
BRANCH   1   8
HETATM    8  S1  UNL     1      84.890  91.140 147.619  1.00  0.00    -0.088 SA
BRANCH   8   9
HETATM    9  C9  UNL     1      85.949  91.829 148.953  1.00  0.00     0.121 C 
BRANCH   9  10
HETATM   10  C8  UNL     1      86.089  93.278 148.701  1.00  0.00    -0.042 A 
HETATM   11  C3  UNL     1      87.133  93.795 147.964  1.00  0.00    -0.041 A 
HETATM   12  C4  UNL     1      87.254  95.169 147.698  1.00  0.00     0.008 A 
HETATM   13  C5  UNL     1      86.288  96.012 148.200  1.00  0.00     0.001 A 
HETATM   14  C6  UNL     1      85.232  95.544 148.940  1.00  0.00     0.001 A 
HETATM   15  C7  UNL     1      85.147  94.191 149.179  1.00  0.00     0.008 A 
BRANCH  11  16
HETATM   16  C2  UNL     1      88.175  92.871 147.460  1.00  0.00     0.152 C 
BRANCH  16  17
HETATM   17  C1  UNL     1      89.466  93.155 148.129  1.00  0.00     0.176 C 
HETATM   18  O1  UNL     1      90.478  93.531 147.494  1.00  0.00    -0.648 OA
HETATM   19  O2  UNL     1      89.592  93.011 149.510  1.00  0.00    -0.648 OA
ENDBRANCH  16  17
ENDBRANCH  11  16
ENDBRANCH   9  10
ENDBRANCH   8   9
ENDBRANCH   1   8
BRANCH   7  20
HETATM   20  C20 UNL     1      83.207  89.614 150.102  1.00  0.00     0.134 C 
BRANCH  20  21
HETATM   21  C21 UNL     1      83.479  88.261 149.645  1.00  0.00     0.025 C 
BRANCH  21  22
HETATM   22  C22 UNL     1      83.278  87.040 150.404  1.00  0.00    -0.013 C 
HETATM   23  C23 UNL     1      81.962  86.793 151.066  1.00  0.00     0.005 C 
HETATM   24  C24 UNL     1      81.803  85.262 151.140  1.00  0.00     0.000 C 
HETATM   25  C25 UNL     1      83.072  84.517 150.972  1.00  0.00     0.000 C 
HETATM   26  C26 UNL     1      84.307  85.140 151.518  1.00  0.00     0.000 C 
HETATM   27  C27 UNL     1      84.343  86.659 151.411  1.00  0.00     0.005 C 
ENDBRANCH  21  22
ENDBRANCH  20  21
ENDBRANCH   7  20
BRANCH   6  28
HETATM   28  S2  UNL     1      80.151  90.282 150.486  1.00  0.00    -0.090 SA
BRANCH  28  29
HETATM   29  C12 UNL     1      79.598  91.685 151.497  1.00  0.00     0.109 C 
BRANCH  29  30
HETATM   30  C13 UNL     1      80.638  91.988 152.515  1.00  0.00     0.186 C 
BRANCH  30  31
HETATM   31  O3  UNL     1      80.194  92.350 153.749  1.00  0.00    -0.350 OA
BRANCH  31  32
HETATM   32  C14 UNL     1      80.502  93.342 154.614  1.00  0.00     0.068 A 
HETATM   33  C15 UNL     1      79.886  94.550 154.635  1.00  0.00     0.037 A 
HETATM   34  C16 UNL     1      80.265  95.521 155.554  1.00  0.00     0.003 A 
HETATM   35  C17 UNL     1      81.262  95.322 156.479  1.00  0.00     0.000 A 
HETATM   36  C18 UNL     1      81.889  94.097 156.462  1.00  0.00     0.003 A 
HETATM   37  C19 UNL     1      81.523  93.139 155.560  1.00  0.00     0.037 A 
ENDBRANCH  31  32
ENDBRANCH  30  31
ENDBRANCH  29  30
ENDBRANCH  28  29
ENDBRANCH   6  28
TORSDOF 13
ENDMDL
MODEL 3
REMARK VINA RESULT: -9.305750292      3.859      9.387
REMARK  13 active torsions:
REMARK  status: ('A' for Active; 'I' for Inactive)
REMARK    1  A    between atoms: C1_2  and  C2_4 
REMARK    2  A    between atoms: C2_4  and  C3_5 
REMARK    3  A    between atoms: C8_10  and  C9_11 
REMARK    4  A    between atoms: C9_11  and  S1_12 
REMARK    5  A    between atoms: S1_12  and  C10_13 
REMARK    6  A    between atoms: C11_18  and  S2_19 
REMARK    7  A    between atoms: S2_19  and  C12_20 
REMARK    8  A    between atoms: C12_20  and  C13_21 
REMARK    9  A    between atoms: C13_21  and  O3_22 
REMARK   10  A    between atoms: O3_22  and  C14_23 
REMARK   11  A    between atoms: N3_29  and  C20_30 
REMARK   12  A    between atoms: C20_30  and  C21_31 
REMARK   13  A    between atoms: C21_31  and  C22_32 
ROOT
HETATM    1  C10 UNL     1      81.014  90.702 149.312  1.00  0.00     0.163 A 
HETATM    2  N1  UNL     1      80.568  91.570 148.359  1.00  0.00    -0.278 N 
ATOM      3  H1  UNL     1      79.598  91.841 148.198  1.00  0.00     0.189 HD
HETATM    4  N2  UNL     1      81.610  91.992 147.686  1.00  0.00    -0.278 N 
ATOM      5  H2  UNL     1      81.563  92.654 146.911  1.00  0.00     0.189 HD
HETATM    6  C11 UNL     1      82.740  91.450 148.141  1.00  0.00     0.163 A 
HETATM    7  N3  UNL     1      82.343  90.627 149.182  1.00  0.00    -0.306 N 
ENDROOT
BRANCH   1   8
HETATM    8  S1  UNL     1      79.983  89.804 150.477  1.00  0.00    -0.088 SA
BRANCH   8   9
HETATM    9  C9  UNL     1      79.028  88.518 149.578  1.00  0.00     0.121 C 
BRANCH   9  10
HETATM   10  C8  UNL     1      79.098  87.278 150.377  1.00  0.00    -0.042 A 
HETATM   11  C3  UNL     1      79.148  86.031 149.790  1.00  0.00    -0.041 A 
HETATM   12  C4  UNL     1      79.244  84.851 150.547  1.00  0.00     0.008 A 
HETATM   13  C5  UNL     1      79.286  84.964 151.918  1.00  0.00     0.001 A 
HETATM   14  C6  UNL     1      79.237  86.182 152.547  1.00  0.00     0.001 A 
HETATM   15  C7  UNL     1      79.145  87.316 151.773  1.00  0.00     0.008 A 
BRANCH  11  16
HETATM   16  C2  UNL     1      79.072  85.935 148.315  1.00  0.00     0.152 C 
BRANCH  16  17
HETATM   17  C1  UNL     1      77.873  85.157 147.923  1.00  0.00     0.176 C 
HETATM   18  O1  UNL     1      77.956  84.069 147.310  1.00  0.00    -0.648 OA
HETATM   19  O2  UNL     1      76.597  85.625 148.232  1.00  0.00    -0.648 OA
ENDBRANCH  16  17
ENDBRANCH  11  16
ENDBRANCH   9  10
ENDBRANCH   8   9
ENDBRANCH   1   8
BRANCH   7  20
HETATM   20  C20 UNL     1      83.309  89.886 149.964  1.00  0.00     0.134 C 
BRANCH  20  21
HETATM   21  C21 UNL     1      83.775  88.602 149.465  1.00  0.00     0.025 C 
BRANCH  21  22
HETATM   22  C22 UNL     1      83.325  87.294 149.904  1.00  0.00    -0.013 C 
HETATM   23  C23 UNL     1      82.542  86.432 148.968  1.00  0.00     0.005 C 
HETATM   24  C24 UNL     1      82.831  84.977 149.386  1.00  0.00     0.000 C 
HETATM   25  C25 UNL     1      83.383  84.843 150.754  1.00  0.00     0.000 C 
HETATM   26  C26 UNL     1      82.906  85.807 151.782  1.00  0.00     0.000 C 
HETATM   27  C27 UNL     1      82.632  87.208 151.248  1.00  0.00     0.005 C 
ENDBRANCH  21  22
ENDBRANCH  20  21
ENDBRANCH   7  20
BRANCH   6  28
HETATM   28  S2  UNL     1      84.430  91.659 147.613  1.00  0.00    -0.090 SA
BRANCH  28  29
HETATM   29  C12 UNL     1      84.911  93.382 147.925  1.00  0.00     0.109 C 
BRANCH  29  30
HETATM   30  C13 UNL     1      86.061  93.730 147.049  1.00  0.00     0.186 C 
BRANCH  30  31
HETATM   31  O3  UNL     1      87.107  94.365 147.642  1.00  0.00    -0.350 OA
BRANCH  31  32
HETATM   32  C14 UNL     1      88.442  94.160 147.681  1.00  0.00     0.068 A 
HETATM   33  C15 UNL     1      89.022  92.935 147.693  1.00  0.00     0.037 A 
HETATM   34  C16 UNL     1      90.405  92.807 147.738  1.00  0.00     0.003 A 
HETATM   35  C17 UNL     1      91.252  93.889 147.771  1.00  0.00     0.000 A 
HETATM   36  C18 UNL     1      90.668  95.135 147.758  1.00  0.00     0.003 A 
HETATM   37  C19 UNL     1      89.310  95.267 147.715  1.00  0.00     0.037 A 
ENDBRANCH  31  32
ENDBRANCH  30  31
ENDBRANCH  29  30
ENDBRANCH  28  29
ENDBRANCH   6  28
TORSDOF 13
ENDMDL
MODEL 4
REMARK VINA RESULT: -9.258817458      3.236      4.921
REMARK  13 active torsions:
REMARK  status: ('A' for Active; 'I' for Inactive)
REMARK    1  A    between atoms: C1_2  and  C2_4 
REMARK    2  A    between atoms: C2_4  and  C3_5 
REMARK    3  A    between atoms: C8_10  and  C9_11 
REMARK    4  A    between atoms: C9_11  and  S1_12 
REMARK    5  A    between atoms: S1_12  and  C10_13 
REMARK    6  A    between atoms: C11_18  and  S2_19 
REMARK    7  A    between atoms: S2_19  and  C12_20 
REMARK    8  A    between atoms: C12_20  and  C13_21 
REMARK    9  A    between atoms: C13_21  and  O3_22 
REMARK   10  A    between atoms: O3_22  and  C14_23 
REMARK   11  A    between atoms: N3_29  and  C20_30 
REMARK   12  A    between atoms: C20_30  and  C21_31 
REMARK   13  A    between atoms: C21_31  and  C22_32 
ROOT
HETATM    1  C10 UNL     1      84.442  91.918 149.145  1.00  0.00     0.163 A 
HETATM    2  N1  UNL     1      83.693  93.000 148.787  1.00  0.00    -0.278 N 
ATOM      3  H1  UNL     1      84.033  93.837 148.315  1.00  0.00     0.189 HD
HETATM    4  N2  UNL     1      82.458  92.769 149.157  1.00  0.00    -0.278 N 
ATOM      5  H2  UNL     1      81.684  93.417 149.010  1.00  0.00     0.189 HD
HETATM    6  C11 UNL     1      82.337  91.581 149.750  1.00  0.00     0.163 A 
HETATM    7  N3  UNL     1      83.616  91.047 149.734  1.00  0.00    -0.306 N 
ENDROOT
BRANCH   1   8
HETATM    8  S1  UNL     1      86.214  91.744 148.906  1.00  0.00    -0.088 SA
BRANCH   8   9
HETATM    9  C9  UNL     1      86.671  92.399 147.252  1.00  0.00     0.121 C 
BRANCH   9  10
HETATM   10  C8  UNL     1      87.899  93.203 147.420  1.00  0.00    -0.042 A 
HETATM   11  C3  UNL     1      87.883  94.581 147.378  1.00  0.00    -0.041 A 
HETATM   12  C4  UNL     1      89.044  95.349 147.566  1.00  0.00     0.008 A 
HETATM   13  C5  UNL     1      90.228  94.685 147.798  1.00  0.00     0.001 A 
HETATM   14  C6  UNL     1      90.293  93.316 147.847  1.00  0.00     0.001 A 
HETATM   15  C7  UNL     1      89.135  92.597 147.659  1.00  0.00     0.008 A 
BRANCH  11  16
HETATM   16  C2  UNL     1      86.603  95.270 147.098  1.00  0.00     0.152 C 
BRANCH  16  17
HETATM   17  C1  UNL     1      86.085  95.893 148.340  1.00  0.00     0.176 C 
HETATM   18  O1  UNL     1      86.182  97.122 148.558  1.00  0.00    -0.648 OA
HETATM   19  O2  UNL     1      85.466  95.114 149.315  1.00  0.00    -0.648 OA
ENDBRANCH  16  17
ENDBRANCH  11  16
ENDBRANCH   9  10
ENDBRANCH   8   9
ENDBRANCH   1   8
BRANCH   7  20
HETATM   20  C20 UNL     1      83.885  89.727 150.262  1.00  0.00     0.134 C 
BRANCH  20  21
HETATM   21  C21 UNL     1      83.602  88.569 149.428  1.00  0.00     0.025 C 
BRANCH  21  22
HETATM   22  C22 UNL     1      83.211  87.251 149.892  1.00  0.00    -0.013 C 
HETATM   23  C23 UNL     1      82.558  86.300 148.943  1.00  0.00     0.005 C 
HETATM   24  C24 UNL     1      82.914  84.886 149.443  1.00  0.00     0.000 C 
HETATM   25  C25 UNL     1      83.373  84.846 150.851  1.00  0.00     0.000 C 
HETATM   26  C26 UNL     1      82.758  85.813 151.799  1.00  0.00     0.000 C 
HETATM   27  C27 UNL     1      82.429  87.168 151.187  1.00  0.00     0.005 C 
ENDBRANCH  21  22
ENDBRANCH  20  21
ENDBRANCH   7  20
BRANCH   6  28
HETATM   28  S2  UNL     1      80.914  90.761 150.442  1.00  0.00    -0.090 SA
BRANCH  28  29
HETATM   29  C12 UNL     1      79.680  90.561 149.125  1.00  0.00     0.109 C 
BRANCH  29  30
HETATM   30  C13 UNL     1      78.663  89.568 149.561  1.00  0.00     0.186 C 
BRANCH  30  31
HETATM   31  O3  UNL     1      78.576  88.425 148.828  1.00  0.00    -0.350 OA
BRANCH  31  32
HETATM   32  C14 UNL     1      78.806  87.118 149.080  1.00  0.00     0.068 A 
HETATM   33  C15 UNL     1      78.897  86.163 148.121  1.00  0.00     0.037 A 
HETATM   34  C16 UNL     1      79.132  84.837 148.462  1.00  0.00     0.003 A 
HETATM   35  C17 UNL     1      79.284  84.419 149.763  1.00  0.00     0.000 A 
HETATM   36  C18 UNL     1      79.194  85.384 150.739  1.00  0.00     0.003 A 
HETATM   37  C19 UNL     1      78.962  86.689 150.411  1.00  0.00     0.037 A 
ENDBRANCH  31  32
ENDBRANCH  30  31
ENDBRANCH  29  30
ENDBRANCH  28  29
ENDBRANCH   6  28
TORSDOF 13
ENDMDL
MODEL 5
REMARK VINA RESULT: -9.230553461      3.888      5.491
REMARK  13 active torsions:
REMARK  status: ('A' for Active; 'I' for Inactive)
REMARK    1  A    between atoms: C1_2  and  C2_4 
REMARK    2  A    between atoms: C2_4  and  C3_5 
REMARK    3  A    between atoms: C8_10  and  C9_11 
REMARK    4  A    between atoms: C9_11  and  S1_12 
REMARK    5  A    between atoms: S1_12  and  C10_13 
REMARK    6  A    between atoms: C11_18  and  S2_19 
REMARK    7  A    between atoms: S2_19  and  C12_20 
REMARK    8  A    between atoms: C12_20  and  C13_21 
REMARK    9  A    between atoms: C13_21  and  O3_22 
REMARK   10  A    between atoms: O3_22  and  C14_23 
REMARK   11  A    between atoms: N3_29  and  C20_30 
REMARK   12  A    between atoms: C20_30  and  C21_31 
REMARK   13  A    between atoms: C21_31  and  C22_32 
ROOT
HETATM    1  C10 UNL     1      83.626  91.357 148.034  1.00  0.00     0.163 A 
HETATM    2  N1  UNL     1      82.895  92.291 147.361  1.00  0.00    -0.278 N 
ATOM      3  H1  UNL     1      83.239  92.909 146.627  1.00  0.00     0.189 HD
HETATM    4  N2  UNL     1      81.672  92.251 147.827  1.00  0.00    -0.278 N 
ATOM      5  H2  UNL     1      80.913  92.848 147.499  1.00  0.00     0.189 HD
HETATM    6  C11 UNL     1      81.542  91.333 148.785  1.00  0.00     0.163 A 
HETATM    7  N3  UNL     1      82.801  90.768 148.906  1.00  0.00    -0.306 N 
ENDROOT
BRANCH   1   8
HETATM    8  S1  UNL     1      85.379  91.034 147.808  1.00  0.00    -0.088 SA
BRANCH   8   9
HETATM    9  C9  UNL     1      86.328  91.875 149.137  1.00  0.00     0.121 C 
BRANCH   9  10
HETATM   10  C8  UNL     1      86.426  93.303 148.773  1.00  0.00    -0.042 A 
HETATM   11  C3  UNL     1      87.445  93.789 147.981  1.00  0.00    -0.041 A 
HETATM   12  C4  UNL     1      87.525  95.141 147.609  1.00  0.00     0.008 A 
HETATM   13  C5  UNL     1      86.544  95.995 148.061  1.00  0.00     0.001 A 
HETATM   14  C6  UNL     1      85.511  95.559 148.851  1.00  0.00     0.001 A 
HETATM   15  C7  UNL     1      85.466  94.226 149.195  1.00  0.00     0.008 A 
BRANCH  11  16
HETATM   16  C2  UNL     1      88.504  92.856 147.533  1.00  0.00     0.152 C 
BRANCH  16  17
HETATM   17  C1  UNL     1      89.782  93.184 148.208  1.00  0.00     0.176 C 
HETATM   18  O1  UNL     1      89.908  93.141 149.453  1.00  0.00    -0.648 OA
HETATM   19  O2  UNL     1      90.899  93.554 147.461  1.00  0.00    -0.648 OA
ENDBRANCH  16  17
ENDBRANCH  11  16
ENDBRANCH   9  10
ENDBRANCH   8   9
ENDBRANCH   1   8
BRANCH   7  20
HETATM   20  C20 UNL     1      83.053  89.686 149.834  1.00  0.00     0.134 C 
BRANCH  20  21
HETATM   21  C21 UNL     1      83.474  88.397 149.307  1.00  0.00     0.025 C 
BRANCH  21  22
HETATM   22  C22 UNL     1      83.135  87.094 149.850  1.00  0.00    -0.013 C 
HETATM   23  C23 UNL     1      82.513  86.066 148.963  1.00  0.00     0.005 C 
HETATM   24  C24 UNL     1      82.924  84.698 149.543  1.00  0.00     0.000 C 
HETATM   25  C25 UNL     1      83.391  84.757 150.947  1.00  0.00     0.000 C 
HETATM   26  C26 UNL     1      82.745  85.755 151.841  1.00  0.00     0.000 C 
HETATM   27  C27 UNL     1      82.363  87.059 151.153  1.00  0.00     0.005 C 
ENDBRANCH  21  22
ENDBRANCH  20  21
ENDBRANCH   7  20
BRANCH   6  28
HETATM   28  S2  UNL     1      80.127  90.852 149.757  1.00  0.00    -0.090 SA
BRANCH  28  29
HETATM   29  C12 UNL     1      78.743  90.538 148.624  1.00  0.00     0.109 C 
BRANCH  29  30
HETATM   30  C13 UNL     1      77.978  89.358 149.110  1.00  0.00     0.186 C 
BRANCH  30  31
HETATM   31  O3  UNL     1      78.276  88.162 148.534  1.00  0.00    -0.350 OA
BRANCH  31  32
HETATM   32  C14 UNL     1      78.606  86.940 149.005  1.00  0.00     0.068 A 
HETATM   33  C15 UNL     1      78.772  86.651 150.320  1.00  0.00     0.037 A 
HETATM   34  C16 UNL     1      79.117  85.367 150.725  1.00  0.00     0.003 A 
HETATM   35  C17 UNL     1      79.305  84.333 149.839  1.00  0.00     0.000 A 
HETATM   36  C18 UNL     1      79.136  84.621 148.504  1.00  0.00     0.003 A 
HETATM   37  C19 UNL     1      78.798  85.880 148.099  1.00  0.00     0.037 A 
ENDBRANCH  31  32
ENDBRANCH  30  31
ENDBRANCH  29  30
ENDBRANCH  28  29
ENDBRANCH   6  28
TORSDOF 13
ENDMDL
