MODEL 1
REMARK VINA RESULT: -7.592803736      0.000      0.000
REMARK  15 active torsions:
REMARK  status: ('A' for Active; 'I' for Inactive)
REMARK    1  A    between atoms: C4_6  and  C5_7 
REMARK    2  A    between atoms: C9_13  and  C10_14 
REMARK    3  A    between atoms: C10_14  and  O2_15 
REMARK    4  A    between atoms: C10_14  and  C11_17 
REMARK    5  A    between atoms: C11_17  and  O3_18 
REMARK    6  A    between atoms: C11_17  and  C12_20 
REMARK    7  A    between atoms: C12_20  and  C13_21 
REMARK    8  A    between atoms: C14_22  and  C15_23 
REMARK    9  A    between atoms: C15_23  and  C16_24 
REMARK   10  A    between atoms: C16_24  and  C17_25 
REMARK   11  A    between atoms: C17_25  and  C18_26 
REMARK   12  A    between atoms: C18_26  and  C19_27 
REMARK   13  A    between atoms: C19_27  and  C20_28 
REMARK   14  A    between atoms: N3_34  and  C23_35 
REMARK   15  A    between atoms: C23_35  and  C24_36 
ROOT
HETATM    1  O1  UNL     1      30.911  14.515  22.952  1.00  0.00    -0.270 OA
HETATM    2  C1  UNL     1      30.338  14.423  21.818  1.00  0.00     0.253 C 
HETATM    3  C2  UNL     1      29.254  13.469  21.671  1.00  0.00     0.247 C 
HETATM    4  S1  UNL     1      28.094  13.835  23.067  1.00  0.00    -0.097 SA
HETATM    5  C3  UNL     1      26.619  13.505  22.127  1.00  0.00     0.008 C 
HETATM    6  C4  UNL     1      25.406  13.697  22.523  1.00  0.00     0.045 C 
HETATM    7  C9  UNL     1      27.143  12.981  20.849  1.00  0.00     0.160 C 
HETATM    8  N2  UNL     1      28.346  13.695  20.562  1.00  0.00    -0.316 N 
HETATM    9  C21 UNL     1      28.845  14.521  19.514  1.00  0.00     0.239 C 
HETATM   10  O4  UNL     1      28.095  14.917  18.617  1.00  0.00    -0.271 OA
HETATM   11  C22 UNL     1      30.274  14.939  19.447  1.00  0.00     0.228 C 
HETATM   12  N3  UNL     1      30.778  15.248  20.762  1.00  0.00    -0.340 N 
ENDROOT
BRANCH   7  13
HETATM   13  C10 UNL     1      26.083  12.893  19.848  1.00  0.00     0.175 C 
BRANCH  13  14
HETATM   14  O2  UNL     1      25.576  14.053  19.328  1.00  0.00    -0.391 OA
ATOM     15  H2  UNL     1      24.700  14.319  19.580  1.00  0.00     0.210 HD
ENDBRANCH  13  14
BRANCH  13  16
HETATM   16  C11 UNL     1      26.315  11.816  18.777  1.00  0.00     0.160 C 
BRANCH  16  17
HETATM   17  O3  UNL     1      26.982  10.731  19.345  1.00  0.00    -0.392 OA
ATOM     18  H3  UNL     1      26.391  10.263  19.923  1.00  0.00     0.210 HD
ENDBRANCH  16  17
BRANCH  16  19
HETATM   19  C12 UNL     1      24.977  11.280  18.286  1.00  0.00     0.128 C 
BRANCH  19  20
HETATM   20  C13 UNL     1      24.162  10.836  19.386  1.00  0.00    -0.104 C 
HETATM   21  C14 UNL     1      23.497  10.447  20.312  1.00  0.00    -0.106 C 
BRANCH  21  22
HETATM   22  C15 UNL     1      22.709   9.973  21.456  1.00  0.00     0.094 C 
BRANCH  22  23
HETATM   23  C16 UNL     1      22.842  10.866  22.648  1.00  0.00     0.012 C 
BRANCH  23  24
HETATM   24  C17 UNL     1      22.590  10.096  23.950  1.00  0.00     0.001 C 
BRANCH  24  25
HETATM   25  C18 UNL     1      21.127   9.946  24.214  1.00  0.00     0.001 C 
BRANCH  25  26
HETATM   26  C19 UNL     1      20.499  11.242  24.611  1.00  0.00     0.011 C 
BRANCH  26  27
HETATM   27  C20 UNL     1      21.132  11.792  25.847  1.00  0.00     0.085 C 
HETATM   28 BR1  UNL     1      20.225  11.077  27.403  1.00  0.00    -0.097 Br
ENDBRANCH  26  27
ENDBRANCH  25  26
ENDBRANCH  24  25
ENDBRANCH  23  24
ENDBRANCH  22  23
ENDBRANCH  21  22
ENDBRANCH  19  20
ENDBRANCH  16  19
ENDBRANCH  13  16
ENDBRANCH   7  13
BRANCH   6  29
HETATM   29  C5  UNL     1      25.065  14.237  23.858  1.00  0.00     0.033 A 
HETATM   30  C6  UNL     1      25.491  15.447  24.380  1.00  0.00     0.031 A 
HETATM   31  C7  UNL     1      24.942  15.551  25.621  1.00  0.00     0.019 A 
HETATM   32  C8  UNL     1      24.200  14.410  25.818  1.00  0.00     0.088 A 
HETATM   33  N1  UNL     1      24.276  13.608  24.740  1.00  0.00    -0.366 N 
ATOM     34  H1  UNL     1      23.823  12.702  24.619  1.00  0.00     0.165 HD
ENDBRANCH   6  29
BRANCH  12  35
HETATM   35  C23 UNL     1      31.690  16.334  21.058  1.00  0.00     0.137 C 
BRANCH  35  36
HETATM   36  C24 UNL     1      30.921  17.647  20.919  1.00  0.00     0.105 C 
HETATM   37 BR2  UNL     1      30.184  18.191  22.606  1.00  0.00    -0.095 Br
ENDBRANCH  35  36
ENDBRANCH  12  35
TORSDOF 15
ENDMDL
MODEL 2
REMARK VINA RESULT: -7.563400860      0.967      1.018
REMARK  15 active torsions:
REMARK  status: ('A' for Active; 'I' for Inactive)
REMARK    1  A    between atoms: C4_6  and  C5_7 
REMARK    2  A    between atoms: C9_13  and  C10_14 
REMARK    3  A    between atoms: C10_14  and  O2_15 
REMARK    4  A    between atoms: C10_14  and  C11_17 
REMARK    5  A    between atoms: C11_17  and  O3_18 
REMARK    6  A    between atoms: C11_17  and  C12_20 
REMARK    7  A    between atoms: C12_20  and  C13_21 
REMARK    8  A    between atoms: C14_22  and  C15_23 
REMARK    9  A    between atoms: C15_23  and  C16_24 
REMARK   10  A    between atoms: C16_24  and  C17_25 
REMARK   11  A    between atoms: C17_25  and  C18_26 
REMARK   12  A    between atoms: C18_26  and  C19_27 
REMARK   13  A    between atoms: C19_27  and  C20_28 
REMARK   14  A    between atoms: N3_34  and  C23_35 
REMARK   15  A    between atoms: C23_35  and  C24_36 
ROOT
HETATM    1  O1  UNL     1      31.007  14.502  22.969  1.00  0.00    -0.270 OA
HETATM    2  C1  UNL     1      30.409  14.407  21.848  1.00  0.00     0.253 C 
HETATM    3  C2  UNL     1      29.312  13.464  21.733  1.00  0.00     0.247 C 
HETATM    4  S1  UNL     1      28.186  13.855  23.150  1.00  0.00    -0.097 SA
HETATM    5  C3  UNL     1      26.688  13.534  22.244  1.00  0.00     0.008 C 
HETATM    6  C4  UNL     1      25.486  13.743  22.664  1.00  0.00     0.045 C 
HETATM    7  C9  UNL     1      27.179  12.994  20.960  1.00  0.00     0.160 C 
HETATM    8  N2  UNL     1      28.383  13.691  20.641  1.00  0.00    -0.316 N 
HETATM    9  C21 UNL     1      28.869  14.502  19.576  1.00  0.00     0.239 C 
HETATM   10  O4  UNL     1      28.104  14.900  18.692  1.00  0.00    -0.271 OA
HETATM   11  C22 UNL     1      30.300  14.904  19.475  1.00  0.00     0.228 C 
HETATM   12  N3  UNL     1      30.836  15.219  20.776  1.00  0.00    -0.340 N 
ENDROOT
BRANCH   7  13
HETATM   13  C10 UNL     1      26.096  12.909  19.983  1.00  0.00     0.175 C 
BRANCH  13  14
HETATM   14  O2  UNL     1      25.555  14.071  19.504  1.00  0.00    -0.391 OA
ATOM     15  H2  UNL     1      25.575  14.843  20.057  1.00  0.00     0.210 HD
ENDBRANCH  13  14
BRANCH  13  16
HETATM   16  C11 UNL     1      26.323  11.863  18.880  1.00  0.00     0.160 C 
BRANCH  16  17
HETATM   17  O3  UNL     1      26.970  10.752  19.418  1.00  0.00    -0.392 OA
ATOM     18  H3  UNL     1      26.348  10.041  19.520  1.00  0.00     0.210 HD
ENDBRANCH  16  17
BRANCH  16  19
HETATM   19  C12 UNL     1      24.982  11.361  18.362  1.00  0.00     0.128 C 
BRANCH  19  20
HETATM   20  C13 UNL     1      24.166  10.861  19.436  1.00  0.00    -0.104 C 
HETATM   21  C14 UNL     1      23.489  10.462  20.349  1.00  0.00    -0.106 C 
BRANCH  21  22
HETATM   22  C15 UNL     1      22.652  10.002  21.464  1.00  0.00     0.094 C 
BRANCH  22  23
HETATM   23  C16 UNL     1      22.866  10.805  22.706  1.00  0.00     0.012 C 
BRANCH  23  24
HETATM   24  C17 UNL     1      22.491  10.002  23.958  1.00  0.00     0.001 C 
BRANCH  24  25
HETATM   25  C18 UNL     1      21.048  10.179  24.300  1.00  0.00     0.001 C 
BRANCH  25  26
HETATM   26  C19 UNL     1      20.746  11.578  24.730  1.00  0.00     0.011 C 
BRANCH  26  27
HETATM   27  C20 UNL     1      21.355  11.877  26.061  1.00  0.00     0.085 C 
HETATM   28 BR1  UNL     1      20.242  11.127  27.457  1.00  0.00    -0.097 Br
ENDBRANCH  26  27
ENDBRANCH  25  26
ENDBRANCH  24  25
ENDBRANCH  23  24
ENDBRANCH  22  23
ENDBRANCH  21  22
ENDBRANCH  19  20
ENDBRANCH  16  19
ENDBRANCH  13  16
ENDBRANCH   7  13
BRANCH   6  29
HETATM   29  C5  UNL     1      25.180  14.298  24.002  1.00  0.00     0.033 A 
HETATM   30  C6  UNL     1      25.643  15.501  24.510  1.00  0.00     0.031 A 
HETATM   31  C7  UNL     1      25.117  15.625  25.758  1.00  0.00     0.019 A 
HETATM   32  C8  UNL     1      24.351  14.502  25.974  1.00  0.00     0.088 A 
HETATM   33  N1  UNL     1      24.390  13.693  24.900  1.00  0.00    -0.366 N 
ATOM     34  H1  UNL     1      23.914  12.797  24.791  1.00  0.00     0.165 HD
ENDBRANCH   6  29
BRANCH  12  35
HETATM   35  C23 UNL     1      31.766  16.297  21.043  1.00  0.00     0.137 C 
BRANCH  35  36
HETATM   36  C24 UNL     1      32.743  16.377  19.872  1.00  0.00     0.105 C 
HETATM   37 BR2  UNL     1      34.535  16.002  20.449  1.00  0.00    -0.095 Br
ENDBRANCH  35  36
ENDBRANCH  12  35
TORSDOF 15
ENDMDL
MODEL 3
REMARK VINA RESULT: -7.334931641      1.406      1.593
REMARK  15 active torsions:
REMARK  status: ('A' for Active; 'I' for Inactive)
REMARK    1  A    between atoms: C4_6  and  C5_7 
REMARK    2  A    between atoms: C9_13  and  C10_14 
REMARK    3  A    between atoms: C10_14  and  O2_15 
REMARK    4  A    between atoms: C10_14  and  C11_17 
REMARK    5  A    between atoms: C11_17  and  O3_18 
REMARK    6  A    between atoms: C11_17  and  C12_20 
REMARK    7  A    between atoms: C12_20  and  C13_21 
REMARK    8  A    between atoms: C14_22  and  C15_23 
REMARK    9  A    between atoms: C15_23  and  C16_24 
REMARK   10  A    between atoms: C16_24  and  C17_25 
REMARK   11  A    between atoms: C17_25  and  C18_26 
REMARK   12  A    between atoms: C18_26  and  C19_27 
REMARK   13  A    between atoms: C19_27  and  C20_28 
REMARK   14  A    between atoms: N3_34  and  C23_35 
REMARK   15  A    between atoms: C23_35  and  C24_36 
ROOT
HETATM    1  O1  UNL     1      30.739  14.467  22.932  1.00  0.00    -0.270 OA
HETATM    2  C1  UNL     1      30.048  14.203  21.895  1.00  0.00     0.253 C 
HETATM    3  C2  UNL     1      28.954  13.259  22.022  1.00  0.00     0.247 C 
HETATM    4  S1  UNL     1      27.950  13.870  23.453  1.00  0.00    -0.097 SA
HETATM    5  C3  UNL     1      26.382  13.420  22.740  1.00  0.00     0.008 C 
HETATM    6  C4  UNL     1      25.219  13.697  23.225  1.00  0.00     0.045 C 
HETATM    7  C9  UNL     1      26.766  12.685  21.518  1.00  0.00     0.160 C 
HETATM    8  N2  UNL     1      27.933  13.319  20.992  1.00  0.00    -0.316 N 
HETATM    9  C21 UNL     1      28.318  13.953  19.777  1.00  0.00     0.239 C 
HETATM   10  O4  UNL     1      27.477  14.212  18.911  1.00  0.00    -0.271 OA
HETATM   11  C22 UNL     1      29.732  14.327  19.492  1.00  0.00     0.228 C 
HETATM   12  N3  UNL     1      30.374  14.837  20.678  1.00  0.00    -0.340 N 
ENDROOT
BRANCH   7  13
HETATM   13  C10 UNL     1      25.604  12.455  20.662  1.00  0.00     0.175 C 
BRANCH  13  14
HETATM   14  O2  UNL     1      25.104  13.506  19.943  1.00  0.00    -0.391 OA
ATOM     15  H2  UNL     1      24.241  13.421  19.554  1.00  0.00     0.210 HD
ENDBRANCH  13  14
BRANCH  13  16
HETATM   16  C11 UNL     1      25.671  11.156  19.844  1.00  0.00     0.160 C 
BRANCH  16  17
HETATM   17  O3  UNL     1      26.315  10.169  20.588  1.00  0.00    -0.392 OA
ATOM     18  H3  UNL     1      27.148   9.958  20.183  1.00  0.00     0.210 HD
ENDBRANCH  16  17
BRANCH  16  19
HETATM   19  C12 UNL     1      24.264  10.638  19.582  1.00  0.00     0.128 C 
BRANCH  19  20
HETATM   20  C13 UNL     1      23.533  10.482  20.812  1.00  0.00    -0.104 C 
HETATM   21  C14 UNL     1      22.901  10.354  21.829  1.00  0.00    -0.106 C 
BRANCH  21  22
HETATM   22  C15 UNL     1      22.113  10.180  23.056  1.00  0.00     0.094 C 
BRANCH  22  23
HETATM   23  C16 UNL     1      22.567  11.083  24.158  1.00  0.00     0.012 C 
BRANCH  23  24
HETATM   24  C17 UNL     1      21.654  12.308  24.284  1.00  0.00     0.001 C 
BRANCH  24  25
HETATM   25  C18 UNL     1      20.240  11.902  24.546  1.00  0.00     0.001 C 
BRANCH  25  26
HETATM   26  C19 UNL     1      20.068  11.344  25.921  1.00  0.00     0.011 C 
BRANCH  26  27
HETATM   27  C20 UNL     1      18.624  11.234  26.283  1.00  0.00     0.085 C 
HETATM   28 BR1  UNL     1      17.541  11.707  24.748  1.00  0.00    -0.097 Br
ENDBRANCH  26  27
ENDBRANCH  25  26
ENDBRANCH  24  25
ENDBRANCH  23  24
ENDBRANCH  22  23
ENDBRANCH  21  22
ENDBRANCH  19  20
ENDBRANCH  16  19
ENDBRANCH  13  16
ENDBRANCH   7  13
BRANCH   6  29
HETATM   29  C5  UNL     1      25.024  14.454  24.482  1.00  0.00     0.033 A 
HETATM   30  C6  UNL     1      25.448  15.749  24.726  1.00  0.00     0.031 A 
HETATM   31  C7  UNL     1      25.058  16.054  25.994  1.00  0.00     0.019 A 
HETATM   32  C8  UNL     1      24.409  14.943  26.482  1.00  0.00     0.088 A 
HETATM   33  N1  UNL     1      24.389  13.966  25.557  1.00  0.00    -0.366 N 
ATOM     34  H1  UNL     1      23.973  13.040  25.655  1.00  0.00     0.165 HD
ENDBRANCH   6  29
BRANCH  12  35
HETATM   35  C23 UNL     1      31.315  15.938  20.694  1.00  0.00     0.137 C 
BRANCH  35  36
HETATM   36  C24 UNL     1      30.778  17.030  19.770  1.00  0.00     0.105 C 
HETATM   37 BR2  UNL     1      31.948  17.295  18.272  1.00  0.00    -0.095 Br
ENDBRANCH  35  36
ENDBRANCH  12  35
TORSDOF 15
ENDMDL
MODEL 4
REMARK VINA RESULT: -7.292410996      3.155      7.504
REMARK  15 active torsions:
REMARK  status: ('A' for Active; 'I' for Inactive)
REMARK    1  A    between atoms: C4_6  and  C5_7 
REMARK    2  A    between atoms: C9_13  and  C10_14 
REMARK    3  A    between atoms: C10_14  and  O2_15 
REMARK    4  A    between atoms: C10_14  and  C11_17 
REMARK    5  A    between atoms: C11_17  and  O3_18 
REMARK    6  A    between atoms: C11_17  and  C12_20 
REMARK    7  A    between atoms: C12_20  and  C13_21 
REMARK    8  A    between atoms: C14_22  and  C15_23 
REMARK    9  A    between atoms: C15_23  and  C16_24 
REMARK   10  A    between atoms: C16_24  and  C17_25 
REMARK   11  A    between atoms: C17_25  and  C18_26 
REMARK   12  A    between atoms: C18_26  and  C19_27 
REMARK   13  A    between atoms: C19_27  and  C20_28 
REMARK   14  A    between atoms: N3_34  and  C23_35 
REMARK   15  A    between atoms: C23_35  and  C24_36 
ROOT
HETATM    1  O1  UNL     1      21.422  13.018  25.640  1.00  0.00    -0.270 OA
HETATM    2  C1  UNL     1      21.690  12.178  24.720  1.00  0.00     0.253 C 
HETATM    3  C2  UNL     1      22.292  12.671  23.496  1.00  0.00     0.247 C 
HETATM    4  S1  UNL     1      23.751  13.672  24.041  1.00  0.00    -0.097 SA
HETATM    5  C3  UNL     1      24.787  13.183  22.679  1.00  0.00     0.008 C 
HETATM    6  C4  UNL     1      26.037  13.469  22.533  1.00  0.00     0.045 C 
HETATM    7  C9  UNL     1      23.870  12.407  21.819  1.00  0.00     0.160 C 
HETATM    8  N2  UNL     1      22.986  11.690  22.683  1.00  0.00    -0.316 N 
HETATM    9  C21 UNL     1      22.637  10.331  22.922  1.00  0.00     0.239 C 
HETATM   10  O4  UNL     1      23.292   9.416  22.414  1.00  0.00    -0.271 OA
HETATM   11  C22 UNL     1      21.482   9.950  23.783  1.00  0.00     0.228 C 
HETATM   12  N3  UNL     1      21.392  10.816  24.931  1.00  0.00    -0.340 N 
ENDROOT
BRANCH   7  13
HETATM   13  C10 UNL     1      24.608  11.704  20.772  1.00  0.00     0.175 C 
BRANCH  13  14
HETATM   14  O2  UNL     1      25.333  10.596  21.115  1.00  0.00    -0.391 OA
ATOM     15  H2  UNL     1      25.188   9.791  20.633  1.00  0.00     0.210 HD
ENDBRANCH  13  14
BRANCH  13  16
HETATM   16  C11 UNL     1      23.821  11.516  19.465  1.00  0.00     0.160 C 
BRANCH  16  17
HETATM   17  O3  UNL     1      22.933  12.578  19.299  1.00  0.00    -0.392 OA
ATOM     18  H3  UNL     1      22.117  12.255  18.934  1.00  0.00     0.210 HD
ENDBRANCH  16  17
BRANCH  16  19
HETATM   19  C12 UNL     1      24.773  11.571  18.278  1.00  0.00     0.128 C 
BRANCH  19  20
HETATM   20  C13 UNL     1      25.831  12.519  18.507  1.00  0.00    -0.104 C 
HETATM   21  C14 UNL     1      26.721  13.313  18.674  1.00  0.00    -0.106 C 
BRANCH  21  22
HETATM   22  C15 UNL     1      27.796  14.296  18.856  1.00  0.00     0.094 C 
BRANCH  22  23
HETATM   23  C16 UNL     1      28.951  13.741  19.626  1.00  0.00     0.012 C 
BRANCH  23  24
HETATM   24  C17 UNL     1      28.504  12.608  20.559  1.00  0.00     0.001 C 
BRANCH  24  25
HETATM   25  C18 UNL     1      29.451  11.454  20.496  1.00  0.00     0.001 C 
BRANCH  25  26
HETATM   26  C19 UNL     1      28.769  10.200  20.054  1.00  0.00     0.011 C 
BRANCH  26  27
HETATM   27  C20 UNL     1      28.444   9.323  21.218  1.00  0.00     0.085 C 
HETATM   28 BR1  UNL     1      29.654   9.723  22.678  1.00  0.00    -0.097 Br
ENDBRANCH  26  27
ENDBRANCH  25  26
ENDBRANCH  24  25
ENDBRANCH  23  24
ENDBRANCH  22  23
ENDBRANCH  21  22
ENDBRANCH  19  20
ENDBRANCH  16  19
ENDBRANCH  13  16
ENDBRANCH   7  13
BRANCH   6  29
HETATM   29  C5  UNL     1      26.804  14.271  23.512  1.00  0.00     0.033 A 
HETATM   30  C6  UNL     1      27.936  13.858  24.194  1.00  0.00     0.031 A 
HETATM   31  C7  UNL     1      28.321  14.901  24.979  1.00  0.00     0.019 A 
HETATM   32  C8  UNL     1      27.418  15.915  24.753  1.00  0.00     0.088 A 
HETATM   33  N1  UNL     1      26.493  15.529  23.856  1.00  0.00    -0.366 N 
ATOM     34  H1  UNL     1      25.710  16.083  23.507  1.00  0.00     0.165 HD
ENDBRANCH   6  29
BRANCH  12  35
HETATM   35  C23 UNL     1      21.024  10.380  26.263  1.00  0.00     0.137 C 
BRANCH  35  36
HETATM   36  C24 UNL     1      19.595  10.846  26.533  1.00  0.00     0.105 C 
HETATM   37 BR2  UNL     1      19.478  11.757  28.219  1.00  0.00    -0.095 Br
ENDBRANCH  35  36
ENDBRANCH  12  35
TORSDOF 15
ENDMDL
MODEL 5
REMARK VINA RESULT: -7.267072989      2.268      3.327
REMARK  15 active torsions:
REMARK  status: ('A' for Active; 'I' for Inactive)
REMARK    1  A    between atoms: C4_6  and  C5_7 
REMARK    2  A    between atoms: C9_13  and  C10_14 
REMARK    3  A    between atoms: C10_14  and  O2_15 
REMARK    4  A    between atoms: C10_14  and  C11_17 
REMARK    5  A    between atoms: C11_17  and  O3_18 
REMARK    6  A    between atoms: C11_17  and  C12_20 
REMARK    7  A    between atoms: C12_20  and  C13_21 
REMARK    8  A    between atoms: C14_22  and  C15_23 
REMARK    9  A    between atoms: C15_23  and  C16_24 
REMARK   10  A    between atoms: C16_24  and  C17_25 
REMARK   11  A    between atoms: C17_25  and  C18_26 
REMARK   12  A    between atoms: C18_26  and  C19_27 
REMARK   13  A    between atoms: C19_27  and  C20_28 
REMARK   14  A    between atoms: N3_34  and  C23_35 
REMARK   15  A    between atoms: C23_35  and  C24_36 
ROOT
HETATM    1  O1  UNL     1      31.024  16.524  25.690  1.00  0.00    -0.270 OA
HETATM    2  C1  UNL     1      30.969  16.192  24.461  1.00  0.00     0.253 C 
HETATM    3  C2  UNL     1      30.304  14.950  24.114  1.00  0.00     0.247 C 
HETATM    4  S1  UNL     1      28.648  15.039  24.939  1.00  0.00    -0.097 SA
HETATM    5  C3  UNL     1      27.778  14.223  23.619  1.00  0.00     0.008 C 
HETATM    6  C4  UNL     1      26.500  14.068  23.533  1.00  0.00     0.045 C 
HETATM    7  C9  UNL     1      28.863  13.801  22.710  1.00  0.00     0.160 C 
HETATM    8  N2  UNL     1      29.860  14.822  22.739  1.00  0.00    -0.316 N 
HETATM    9  C21 UNL     1      30.491  15.691  21.803  1.00  0.00     0.239 C 
HETATM   10  O4  UNL     1      30.064  15.786  20.649  1.00  0.00    -0.271 OA
HETATM   11  C22 UNL     1      31.681  16.513  22.163  1.00  0.00     0.228 C 
HETATM   12  N3  UNL     1      31.551  17.042  23.498  1.00  0.00    -0.340 N 
ENDROOT
BRANCH   7  13
HETATM   13  C10 UNL     1      28.322  13.335  21.435  1.00  0.00     0.175 C 
BRANCH  13  14
HETATM   14  O2  UNL     1      27.830  14.261  20.556  1.00  0.00    -0.391 OA
ATOM     15  H2  UNL     1      26.890  14.312  20.430  1.00  0.00     0.210 HD
ENDBRANCH  13  14
BRANCH  13  16
HETATM   16  C11 UNL     1      29.174  12.258  20.745  1.00  0.00     0.160 C 
BRANCH  16  17
HETATM   17  O3  UNL     1      30.379  12.108  21.430  1.00  0.00    -0.392 OA
ATOM     18  H3  UNL     1      30.334  11.341  21.988  1.00  0.00     0.210 HD
ENDBRANCH  16  17
BRANCH  16  19
HETATM   19  C12 UNL     1      28.470  10.911  20.829  1.00  0.00     0.128 C 
BRANCH  19  20
HETATM   20  C13 UNL     1      27.315  10.876  19.972  1.00  0.00    -0.104 C 
HETATM   21  C14 UNL     1      26.342  10.871  19.262  1.00  0.00    -0.106 C 
BRANCH  21  22
HETATM   22  C15 UNL     1      25.164  10.889  18.385  1.00  0.00     0.094 C 
BRANCH  22  23
HETATM   23  C16 UNL     1      24.369  12.146  18.526  1.00  0.00     0.012 C 
BRANCH  23  24
HETATM   24  C17 UNL     1      23.182  11.949  19.477  1.00  0.00     0.001 C 
BRANCH  24  25
HETATM   25  C18 UNL     1      22.914  10.497  19.712  1.00  0.00     0.001 C 
BRANCH  25  26
HETATM   26  C19 UNL     1      22.849  10.174  21.169  1.00  0.00     0.011 C 
BRANCH  26  27
HETATM   27  C20 UNL     1      23.264  11.343  22.002  1.00  0.00     0.085 C 
HETATM   28 BR1  UNL     1      22.251  11.344  23.653  1.00  0.00    -0.097 Br
ENDBRANCH  26  27
ENDBRANCH  25  26
ENDBRANCH  24  25
ENDBRANCH  23  24
ENDBRANCH  22  23
ENDBRANCH  21  22
ENDBRANCH  19  20
ENDBRANCH  16  19
ENDBRANCH  13  16
ENDBRANCH   7  13
BRANCH   6  29
HETATM   29  C5  UNL     1      25.552  14.565  24.556  1.00  0.00     0.033 A 
HETATM   30  C6  UNL     1      25.423  15.878  24.976  1.00  0.00     0.031 A 
HETATM   31  C7  UNL     1      24.437  15.891  25.914  1.00  0.00     0.019 A 
HETATM   32  C8  UNL     1      23.996  14.594  26.037  1.00  0.00     0.088 A 
HETATM   33  N1  UNL     1      24.677  13.785  25.206  1.00  0.00    -0.366 N 
ATOM     34  H1  UNL     1      24.553  12.778  25.093  1.00  0.00     0.165 HD
ENDBRANCH   6  29
BRANCH  12  35
HETATM   35  C23 UNL     1      31.973  18.368  23.901  1.00  0.00     0.137 C 
BRANCH  35  36
HETATM   36  C24 UNL     1      33.465  18.311  24.221  1.00  0.00     0.105 C 
HETATM   37 BR2  UNL     1      34.452  19.522  23.105  1.00  0.00    -0.095 Br
ENDBRANCH  35  36
ENDBRANCH  12  35
TORSDOF 15
ENDMDL
