MODEL 1
REMARK VINA RESULT: -8.794841892      0.000      0.000
REMARK  14 active torsions:
REMARK  status: ('A' for Active; 'I' for Inactive)
REMARK    1  A    between atoms: C2_2  and  N1_3 
REMARK    2  A    between atoms: N1_3  and  C3_4 
REMARK    3  A    between atoms: N1_3  and  C5_6 
REMARK    4  A    between atoms: C5_6  and  C6_7 
REMARK    5  A    between atoms: C6_7  and  N2_8 
REMARK    6  A    between atoms: N2_8  and  C7_9 
REMARK       I    between atoms: N2_8  and  C25_38 
REMARK    7  A    between atoms: C7_9  and  C8_10 
REMARK    8  A    between atoms: C8_10  and  C9_11 
REMARK    9  A    between atoms: C9_11  and  N3_12 
REMARK   10  A    between atoms: N3_12  and  C10_14 
REMARK   11  A    between atoms: N4_16  and  C11_18 
REMARK   12  A    between atoms: C14_25  and  N7_26 
REMARK   13  A    between atoms: N7_26  and  C15_28 
REMARK   14  A    between atoms: C25_38  and  C26_40 
ROOT
HETATM    1  C26 UNL     1      20.298  12.133  28.788  1.00  0.00     0.256 C 
HETATM    2 BR1  UNL     1      19.876  12.627  30.628  1.00  0.00    -0.065 Br
HETATM    3  C27 UNL     1      21.326  13.134  28.358  1.00  0.00     0.085 C 
HETATM    4  N8  UNL     1      22.116  13.896  28.008  1.00  0.00    -0.196 NA
ENDROOT
BRANCH   1   5
HETATM    5  C25 UNL     1      19.126  12.246  27.922  1.00  0.00     0.248 C 
HETATM    6  N2  UNL     1      19.063  11.886  26.554  1.00  0.00    -0.349 N 
HETATM    7  O1  UNL     1      18.059  12.711  28.481  1.00  0.00    -0.271 OA
BRANCH   6   8
HETATM    8  C6  UNL     1      17.770  11.943  25.853  1.00  0.00     0.156 C 
BRANCH   8   9
HETATM    9  C5  UNL     1      17.214  10.631  25.466  1.00  0.00     0.292 C 
BRANCH   9  10
HETATM   10  N1  UNL     1      16.971  10.465  24.053  1.00  0.00     0.089 N 
BRANCH  10  11
HETATM   11  C2  UNL     1      16.102   9.300  23.832  1.00  0.00     0.268 C 
HETATM   12  C1  UNL     1      15.583   8.875  25.181  1.00  0.00     0.037 C 
ENDBRANCH  10  11
BRANCH  10  13
HETATM   13  C3  UNL     1      16.309  11.646  23.496  1.00  0.00     0.268 C 
HETATM   14  C4  UNL     1      15.299  11.352  22.447  1.00  0.00     0.037 C 
ENDBRANCH  10  13
ENDBRANCH   9  10
ENDBRANCH   8   9
ENDBRANCH   6   8
BRANCH   6  15
HETATM   15  C7  UNL     1      20.231  11.581  25.800  1.00  0.00     0.127 C 
BRANCH  15  16
HETATM   16  C8  UNL     1      20.879  10.264  26.126  1.00  0.00     0.039 C 
BRANCH  16  17
HETATM   17  C9  UNL     1      21.756   9.790  25.038  1.00  0.00     0.123 C 
BRANCH  17  18
HETATM   18  N3  UNL     1      21.302  10.255  23.717  1.00  0.00    -0.367 N 
ATOM     19  H3  UNL     1      20.328  10.186  23.421  1.00  0.00     0.161 HD
BRANCH  18  20
HETATM   20  C10 UNL     1      22.328  10.816  22.867  1.00  0.00     0.173 C 
HETATM   21  S1  UNL     1      23.099   9.791  21.832  1.00  0.00    -0.041 SA
HETATM   22  N4  UNL     1      22.647  12.139  22.883  1.00  0.00    -0.317 N 
ATOM     23  H4  UNL     1      22.089  12.666  22.210  1.00  0.00     0.170 HD
BRANCH  22  24
HETATM   24  C11 UNL     1      23.448  12.887  23.506  1.00  0.00     0.149 A 
HETATM   25  N5  UNL     1      23.258  13.040  24.864  1.00  0.00    -0.284 N 
HETATM   26  N6  UNL     1      24.020  13.787  25.611  1.00  0.00    -0.310 N 
ATOM     27  H5  UNL     1      22.483  12.544  25.305  1.00  0.00     0.188 HD
HETATM   28  C12 UNL     1      25.053  14.462  25.090  1.00  0.00     0.109 A 
ATOM     29  H6  UNL     1      23.828  13.858  26.609  1.00  0.00     0.186 HD
HETATM   30  C13 UNL     1      25.324  14.376  23.745  1.00  0.00     0.051 A 
HETATM   31  C14 UNL     1      24.521  13.588  22.952  1.00  0.00     0.075 A 
BRANCH  31  32
HETATM   32  N7  UNL     1      24.718  13.460  21.679  1.00  0.00    -0.381 N 
ATOM     33  H7  UNL     1      24.097  13.928  21.019  1.00  0.00     0.160 HD
BRANCH  32  34
HETATM   34  C15 UNL     1      25.802  12.667  21.194  1.00  0.00     0.090 C 
HETATM   35  C16 UNL     1      26.727  13.523  20.384  1.00  0.00     0.009 C 
HETATM   36  C17 UNL     1      27.900  12.653  19.980  1.00  0.00     0.011 C 
HETATM   37  C21 UNL     1      25.998  14.030  19.169  1.00  0.00     0.011 C 
HETATM   38  C18 UNL     1      27.355  11.496  19.183  1.00  0.00    -0.013 C 
HETATM   39  C19 UNL     1      26.630  12.021  17.972  1.00  0.00     0.009 C 
HETATM   40  C24 UNL     1      26.406  10.639  19.986  1.00  0.00     0.011 C 
HETATM   41  C20 UNL     1      25.454  12.889  18.380  1.00  0.00    -0.013 C 
HETATM   42  C22 UNL     1      24.523  12.037  19.192  1.00  0.00     0.011 C 
HETATM   43  C23 UNL     1      25.223  11.504  20.389  1.00  0.00     0.009 C 
ENDBRANCH  32  34
ENDBRANCH  31  32
ENDBRANCH  22  24
ENDBRANCH  18  20
ENDBRANCH  17  18
ENDBRANCH  16  17
ENDBRANCH  15  16
ENDBRANCH   6  15
ENDBRANCH   1   5
TORSDOF 14
ENDMDL
MODEL 2
REMARK VINA RESULT: -8.709839826      2.267      2.980
REMARK  14 active torsions:
REMARK  status: ('A' for Active; 'I' for Inactive)
REMARK    1  A    between atoms: C2_2  and  N1_3 
REMARK    2  A    between atoms: N1_3  and  C3_4 
REMARK    3  A    between atoms: N1_3  and  C5_6 
REMARK    4  A    between atoms: C5_6  and  C6_7 
REMARK    5  A    between atoms: C6_7  and  N2_8 
REMARK    6  A    between atoms: N2_8  and  C7_9 
REMARK       I    between atoms: N2_8  and  C25_38 
REMARK    7  A    between atoms: C7_9  and  C8_10 
REMARK    8  A    between atoms: C8_10  and  C9_11 
REMARK    9  A    between atoms: C9_11  and  N3_12 
REMARK   10  A    between atoms: N3_12  and  C10_14 
REMARK   11  A    between atoms: N4_16  and  C11_18 
REMARK   12  A    between atoms: C14_25  and  N7_26 
REMARK   13  A    between atoms: N7_26  and  C15_28 
REMARK   14  A    between atoms: C25_38  and  C26_40 
ROOT
HETATM    1  C26 UNL     1      15.660  14.129  26.859  1.00  0.00     0.256 C 
HETATM    2 BR1  UNL     1      13.846  14.745  27.233  1.00  0.00    -0.065 Br
HETATM    3  C27 UNL     1      16.489  15.376  26.869  1.00  0.00     0.085 C 
HETATM    4  N8  UNL     1      17.143  16.325  26.870  1.00  0.00    -0.196 NA
ENDROOT
BRANCH   1   5
HETATM    5  C25 UNL     1      15.751  13.502  25.542  1.00  0.00     0.248 C 
HETATM    6  N2  UNL     1      16.702  12.532  25.145  1.00  0.00    -0.349 N 
HETATM    7  O1  UNL     1      14.864  13.877  24.681  1.00  0.00    -0.271 OA
BRANCH   6   8
HETATM    8  C6  UNL     1      16.581  11.904  23.818  1.00  0.00     0.156 C 
BRANCH   8   9
HETATM    9  C5  UNL     1      15.667  10.747  23.759  1.00  0.00     0.292 C 
BRANCH   9  10
HETATM   10  N1  UNL     1      16.315   9.466  23.601  1.00  0.00     0.089 N 
BRANCH  10  11
HETATM   11  C2  UNL     1      15.746   8.501  24.551  1.00  0.00     0.268 C 
HETATM   12  C1  UNL     1      15.143   9.296  25.680  1.00  0.00     0.037 C 
ENDBRANCH  10  11
BRANCH  10  13
HETATM   13  C3  UNL     1      16.121   8.949  22.246  1.00  0.00     0.268 C 
HETATM   14  C4  UNL     1      14.996   7.988  22.105  1.00  0.00     0.037 C 
ENDBRANCH  10  13
ENDBRANCH   9  10
ENDBRANCH   8   9
ENDBRANCH   6   8
BRANCH   6  15
HETATM   15  C7  UNL     1      17.843  12.225  25.939  1.00  0.00     0.127 C 
BRANCH  15  16
HETATM   16  C8  UNL     1      19.049  11.752  25.174  1.00  0.00     0.039 C 
BRANCH  16  17
HETATM   17  C9  UNL     1      20.134  11.305  26.068  1.00  0.00     0.123 C 
BRANCH  17  18
HETATM   18  N3  UNL     1      21.364  12.094  25.886  1.00  0.00    -0.367 N 
ATOM     19  H3  UNL     1      21.623  12.851  26.519  1.00  0.00     0.161 HD
BRANCH  18  20
HETATM   20  C10 UNL     1      22.178  11.724  24.751  1.00  0.00     0.173 C 
HETATM   21  S1  UNL     1      22.346  10.116  24.429  1.00  0.00    -0.041 SA
HETATM   22  N4  UNL     1      22.773  12.647  23.947  1.00  0.00    -0.317 N 
ATOM     23  H4  UNL     1      22.168  12.911  23.169  1.00  0.00     0.170 HD
BRANCH  22  24
HETATM   24  C11 UNL     1      23.873  13.264  23.907  1.00  0.00     0.149 A 
HETATM   25  N5  UNL     1      24.371  13.763  25.093  1.00  0.00    -0.284 N 
HETATM   26  N6  UNL     1      25.495  14.416  25.175  1.00  0.00    -0.310 N 
ATOM     27  H5  UNL     1      23.834  13.613  25.947  1.00  0.00     0.188 HD
HETATM   28  C12 UNL     1      26.244  14.645  24.089  1.00  0.00     0.109 A 
ATOM     29  H6  UNL     1      25.809  14.760  26.082  1.00  0.00     0.186 HD
HETATM   30  C13 UNL     1      25.833  14.188  22.859  1.00  0.00     0.051 A 
HETATM   31  C14 UNL     1      24.645  13.497  22.768  1.00  0.00     0.075 A 
BRANCH  31  32
HETATM   32  N7  UNL     1      24.197  13.037  21.644  1.00  0.00    -0.381 N 
ATOM     33  H7  UNL     1      23.194  13.040  21.457  1.00  0.00     0.160 HD
BRANCH  32  34
HETATM   34  C15 UNL     1      25.101  12.527  20.664  1.00  0.00     0.090 C 
HETATM   35  C16 UNL     1      24.520  12.724  19.296  1.00  0.00     0.009 C 
HETATM   36  C17 UNL     1      25.560  12.253  18.299  1.00  0.00     0.011 C 
HETATM   37  C21 UNL     1      23.258  11.913  19.170  1.00  0.00     0.011 C 
HETATM   38  C18 UNL     1      25.845  10.802  18.590  1.00  0.00    -0.013 C 
HETATM   39  C19 UNL     1      24.572  10.006  18.460  1.00  0.00     0.009 C 
HETATM   40  C24 UNL     1      26.412  10.592  19.973  1.00  0.00     0.011 C 
HETATM   41  C20 UNL     1      23.535  10.479  19.462  1.00  0.00    -0.013 C 
HETATM   42  C22 UNL     1      24.110  10.283  20.834  1.00  0.00     0.011 C 
HETATM   43  C23 UNL     1      25.371  11.056  20.979  1.00  0.00     0.009 C 
ENDBRANCH  32  34
ENDBRANCH  31  32
ENDBRANCH  22  24
ENDBRANCH  18  20
ENDBRANCH  17  18
ENDBRANCH  16  17
ENDBRANCH  15  16
ENDBRANCH   6  15
ENDBRANCH   1   5
TORSDOF 14
ENDMDL
MODEL 3
REMARK VINA RESULT: -8.689887879      2.075      2.957
REMARK  14 active torsions:
REMARK  status: ('A' for Active; 'I' for Inactive)
REMARK    1  A    between atoms: C2_2  and  N1_3 
REMARK    2  A    between atoms: N1_3  and  C3_4 
REMARK    3  A    between atoms: N1_3  and  C5_6 
REMARK    4  A    between atoms: C5_6  and  C6_7 
REMARK    5  A    between atoms: C6_7  and  N2_8 
REMARK    6  A    between atoms: N2_8  and  C7_9 
REMARK       I    between atoms: N2_8  and  C25_38 
REMARK    7  A    between atoms: C7_9  and  C8_10 
REMARK    8  A    between atoms: C8_10  and  C9_11 
REMARK    9  A    between atoms: C9_11  and  N3_12 
REMARK   10  A    between atoms: N3_12  and  C10_14 
REMARK   11  A    between atoms: N4_16  and  C11_18 
REMARK   12  A    between atoms: C14_25  and  N7_26 
REMARK   13  A    between atoms: N7_26  and  C15_28 
REMARK   14  A    between atoms: C25_38  and  C26_40 
ROOT
HETATM    1  C26 UNL     1      20.251  12.114  28.569  1.00  0.00     0.256 C 
HETATM    2 BR1  UNL     1      19.116  11.908  30.144  1.00  0.00    -0.065 Br
HETATM    3  C27 UNL     1      20.877  13.464  28.731  1.00  0.00     0.085 C 
HETATM    4  N8  UNL     1      21.367  14.502  28.837  1.00  0.00    -0.196 NA
ENDROOT
BRANCH   1   5
HETATM    5  C25 UNL     1      19.466  12.092  27.337  1.00  0.00     0.248 C 
HETATM    6  N2  UNL     1      19.967  11.874  26.032  1.00  0.00    -0.349 N 
HETATM    7  O1  UNL     1      18.196  12.284  27.480  1.00  0.00    -0.271 OA
BRANCH   6   8
HETATM    8  C6  UNL     1      19.025  11.758  24.907  1.00  0.00     0.156 C 
BRANCH   8   9
HETATM    9  C5  UNL     1      18.622  10.377  24.573  1.00  0.00     0.292 C 
BRANCH   9  10
HETATM   10  N1  UNL     1      17.236  10.220  24.199  1.00  0.00     0.089 N 
BRANCH  10  11
HETATM   11  C2  UNL     1      16.485   9.624  25.313  1.00  0.00     0.268 C 
HETATM   12  C1  UNL     1      15.741   8.438  24.758  1.00  0.00     0.037 C 
ENDBRANCH  10  11
BRANCH  10  13
HETATM   13  C3  UNL     1      16.635  11.515  23.878  1.00  0.00     0.268 C 
HETATM   14  C4  UNL     1      15.730  11.502  22.698  1.00  0.00     0.037 C 
ENDBRANCH  10  13
ENDBRANCH   9  10
ENDBRANCH   8   9
ENDBRANCH   6   8
BRANCH   6  15
HETATM   15  C7  UNL     1      21.363  11.878  25.751  1.00  0.00     0.127 C 
BRANCH  15  16
HETATM   16  C8  UNL     1      21.742  12.398  24.391  1.00  0.00     0.039 C 
BRANCH  16  17
HETATM   17  C9  UNL     1      23.203  12.406  24.186  1.00  0.00     0.123 C 
BRANCH  17  18
HETATM   18  N3  UNL     1      23.718  13.760  23.921  1.00  0.00    -0.367 N 
ATOM     19  H3  UNL     1      23.272  14.392  23.258  1.00  0.00     0.161 HD
BRANCH  18  20
HETATM   20  C10 UNL     1      24.900  14.132  24.666  1.00  0.00     0.173 C 
HETATM   21  S1  UNL     1      24.742  15.322  25.796  1.00  0.00    -0.041 SA
HETATM   22  N4  UNL     1      26.103  13.523  24.481  1.00  0.00    -0.317 N 
ATOM     23  H4  UNL     1      26.214  12.719  25.099  1.00  0.00     0.170 HD
BRANCH  22  24
HETATM   24  C11 UNL     1      27.116  13.686  23.748  1.00  0.00     0.149 A 
HETATM   25  N5  UNL     1      28.166  14.422  24.260  1.00  0.00    -0.284 N 
HETATM   26  N6  UNL     1      29.262  14.657  23.597  1.00  0.00    -0.310 N 
ATOM     27  H5  UNL     1      28.079  14.800  25.203  1.00  0.00     0.188 HD
HETATM   28  C12 UNL     1      29.434  14.187  22.354  1.00  0.00     0.109 A 
ATOM     29  H6  UNL     1      30.001  15.207  24.031  1.00  0.00     0.186 HD
HETATM   30  C13 UNL     1      28.445  13.443  21.756  1.00  0.00     0.051 A 
HETATM   31  C14 UNL     1      27.284  13.193  22.453  1.00  0.00     0.075 A 
BRANCH  31  32
HETATM   32  N7  UNL     1      26.313  12.500  21.952  1.00  0.00    -0.381 N 
ATOM     33  H7  UNL     1      25.619  12.077  22.569  1.00  0.00     0.160 HD
BRANCH  32  34
HETATM   34  C15 UNL     1      26.207  12.325  20.539  1.00  0.00     0.090 C 
HETATM   35  C16 UNL     1      24.846  12.753  20.081  1.00  0.00     0.009 C 
HETATM   36  C17 UNL     1      24.827  12.635  18.570  1.00  0.00     0.011 C 
HETATM   37  C21 UNL     1      23.809  11.853  20.697  1.00  0.00     0.011 C 
HETATM   38  C18 UNL     1      25.117  11.198  18.222  1.00  0.00    -0.013 C 
HETATM   39  C19 UNL     1      24.070  10.312  18.845  1.00  0.00     0.009 C 
HETATM   40  C24 UNL     1      26.478  10.752  18.697  1.00  0.00     0.011 C 
HETATM   41  C20 UNL     1      24.094  10.430  20.358  1.00  0.00    -0.013 C 
HETATM   42  C22 UNL     1      25.455  10.002  20.823  1.00  0.00     0.011 C 
HETATM   43  C23 UNL     1      26.502  10.861  20.213  1.00  0.00     0.009 C 
ENDBRANCH  32  34
ENDBRANCH  31  32
ENDBRANCH  22  24
ENDBRANCH  18  20
ENDBRANCH  17  18
ENDBRANCH  16  17
ENDBRANCH  15  16
ENDBRANCH   6  15
ENDBRANCH   1   5
TORSDOF 14
ENDMDL
MODEL 4
REMARK VINA RESULT: -8.682840818      5.397      9.943
REMARK  14 active torsions:
REMARK  status: ('A' for Active; 'I' for Inactive)
REMARK    1  A    between atoms: C2_2  and  N1_3 
REMARK    2  A    between atoms: N1_3  and  C3_4 
REMARK    3  A    between atoms: N1_3  and  C5_6 
REMARK    4  A    between atoms: C5_6  and  C6_7 
REMARK    5  A    between atoms: C6_7  and  N2_8 
REMARK    6  A    between atoms: N2_8  and  C7_9 
REMARK       I    between atoms: N2_8  and  C25_38 
REMARK    7  A    between atoms: C7_9  and  C8_10 
REMARK    8  A    between atoms: C8_10  and  C9_11 
REMARK    9  A    between atoms: C9_11  and  N3_12 
REMARK   10  A    between atoms: N3_12  and  C10_14 
REMARK   11  A    between atoms: N4_16  and  C11_18 
REMARK   12  A    between atoms: C14_25  and  N7_26 
REMARK   13  A    between atoms: N7_26  and  C15_28 
REMARK   14  A    between atoms: C25_38  and  C26_40 
ROOT
HETATM    1  C26 UNL     1      29.625  14.499  21.462  1.00  0.00     0.256 C 
HETATM    2 BR1  UNL     1      29.649  12.547  21.419  1.00  0.00    -0.065 Br
HETATM    3  C27 UNL     1      30.203  14.910  20.143  1.00  0.00     0.085 C 
HETATM    4  N8  UNL     1      30.647  15.246  19.134  1.00  0.00    -0.196 NA
ENDROOT
BRANCH   1   5
HETATM    5  C25 UNL     1      30.466  15.020  22.538  1.00  0.00     0.248 C 
HETATM    6  N2  UNL     1      30.018  15.457  23.808  1.00  0.00    -0.349 N 
HETATM    7  O1  UNL     1      31.732  15.069  22.286  1.00  0.00    -0.271 OA
BRANCH   6   8
HETATM    8  C6  UNL     1      31.007  15.838  24.830  1.00  0.00     0.156 C 
BRANCH   8   9
HETATM    9  C5  UNL     1      30.997  17.266  25.203  1.00  0.00     0.292 C 
BRANCH   9  10
HETATM   10  N1  UNL     1      32.217  17.982  24.912  1.00  0.00     0.089 N 
BRANCH  10  11
HETATM   11  C2  UNL     1      32.249  19.239  25.672  1.00  0.00     0.268 C 
HETATM   12  C1  UNL     1      30.847  19.493  26.163  1.00  0.00     0.037 C 
ENDBRANCH  10  11
BRANCH  10  13
HETATM   13  C3  UNL     1      33.387  17.187  25.285  1.00  0.00     0.268 C 
HETATM   14  C4  UNL     1      34.420  17.930  26.054  1.00  0.00     0.037 C 
ENDBRANCH  10  13
ENDBRANCH   9  10
ENDBRANCH   8   9
ENDBRANCH   6   8
BRANCH   6  15
HETATM   15  C7  UNL     1      28.637  15.652  24.094  1.00  0.00     0.127 C 
BRANCH  15  16
HETATM   16  C8  UNL     1      27.988  14.557  24.895  1.00  0.00     0.039 C 
BRANCH  16  17
HETATM   17  C9  UNL     1      27.055  13.752  24.083  1.00  0.00     0.123 C 
BRANCH  17  18
HETATM   18  N3  UNL     1      25.966  14.566  23.517  1.00  0.00    -0.367 N 
ATOM     19  H3  UNL     1      26.100  15.160  22.700  1.00  0.00     0.161 HD
BRANCH  18  20
HETATM   20  C10 UNL     1      24.696  14.467  24.200  1.00  0.00     0.173 C 
HETATM   21  S1  UNL     1      24.509  15.340  25.586  1.00  0.00    -0.041 SA
HETATM   22  N4  UNL     1      23.669  13.711  23.726  1.00  0.00    -0.317 N 
ATOM     23  H4  UNL     1      23.063  14.249  23.107  1.00  0.00     0.170 HD
BRANCH  22  24
HETATM   24  C11 UNL     1      23.266  12.521  23.848  1.00  0.00     0.149 A 
HETATM   25  N5  UNL     1      22.901  12.094  25.108  1.00  0.00    -0.284 N 
HETATM   26  N6  UNL     1      22.472  10.890  25.356  1.00  0.00    -0.310 N 
ATOM     27  H5  UNL     1      22.971  12.753  25.884  1.00  0.00     0.188 HD
HETATM   28  C12 UNL     1      22.358   9.980  24.379  1.00  0.00     0.109 A 
ATOM     29  H6  UNL     1      22.217  10.635  26.309  1.00  0.00     0.186 HD
HETATM   30  C13 UNL     1      22.698  10.309  23.088  1.00  0.00     0.051 A 
HETATM   31  C14 UNL     1      23.153  11.582  22.822  1.00  0.00     0.075 A 
BRANCH  31  32
HETATM   32  N7  UNL     1      23.490  11.960  21.631  1.00  0.00    -0.381 N 
ATOM     33  H7  UNL     1      23.128  12.837  21.255  1.00  0.00     0.160 HD
BRANCH  32  34
HETATM   34  C15 UNL     1      24.366  11.156  20.841  1.00  0.00     0.090 C 
HETATM   35  C16 UNL     1      25.755  11.716  20.906  1.00  0.00     0.009 C 
HETATM   36  C17 UNL     1      26.652  10.771  20.131  1.00  0.00     0.011 C 
HETATM   37  C21 UNL     1      25.767  13.088  20.286  1.00  0.00     0.011 C 
HETATM   38  C18 UNL     1      26.132  10.705  18.718  1.00  0.00    -0.013 C 
HETATM   39  C19 UNL     1      26.151  12.086  18.114  1.00  0.00     0.009 C 
HETATM   40  C24 UNL     1      24.725  10.161  18.645  1.00  0.00     0.011 C 
HETATM   41  C20 UNL     1      25.249  13.027  18.890  1.00  0.00    -0.013 C 
HETATM   42  C22 UNL     1      23.856  12.472  18.829  1.00  0.00     0.011 C 
HETATM   43  C23 UNL     1      23.819  11.108  19.415  1.00  0.00     0.009 C 
ENDBRANCH  32  34
ENDBRANCH  31  32
ENDBRANCH  22  24
ENDBRANCH  18  20
ENDBRANCH  17  18
ENDBRANCH  16  17
ENDBRANCH  15  16
ENDBRANCH   6  15
ENDBRANCH   1   5
TORSDOF 14
ENDMDL
MODEL 5
REMARK VINA RESULT: -8.661232519      5.273      9.435
REMARK  14 active torsions:
REMARK  status: ('A' for Active; 'I' for Inactive)
REMARK    1  A    between atoms: C2_2  and  N1_3 
REMARK    2  A    between atoms: N1_3  and  C3_4 
REMARK    3  A    between atoms: N1_3  and  C5_6 
REMARK    4  A    between atoms: C5_6  and  C6_7 
REMARK    5  A    between atoms: C6_7  and  N2_8 
REMARK    6  A    between atoms: N2_8  and  C7_9 
REMARK       I    between atoms: N2_8  and  C25_38 
REMARK    7  A    between atoms: C7_9  and  C8_10 
REMARK    8  A    between atoms: C8_10  and  C9_11 
REMARK    9  A    between atoms: C9_11  and  N3_12 
REMARK   10  A    between atoms: N3_12  and  C10_14 
REMARK   11  A    between atoms: N4_16  and  C11_18 
REMARK   12  A    between atoms: C14_25  and  N7_26 
REMARK   13  A    between atoms: N7_26  and  C15_28 
REMARK   14  A    between atoms: C25_38  and  C26_40 
ROOT
HETATM    1  C26 UNL     1      27.850  18.710  26.290  1.00  0.00     0.256 C 
HETATM    2 BR1  UNL     1      28.466  20.254  25.267  1.00  0.00    -0.065 Br
HETATM    3  C27 UNL     1      27.560  19.255  27.654  1.00  0.00     0.085 C 
HETATM    4  N8  UNL     1      27.333  19.655  28.711  1.00  0.00    -0.196 NA
ENDROOT
BRANCH   1   5
HETATM    5  C25 UNL     1      28.889  17.687  26.392  1.00  0.00     0.248 C 
HETATM    6  N2  UNL     1      29.174  16.689  25.429  1.00  0.00    -0.349 N 
HETATM    7  O1  UNL     1      29.607  17.723  27.466  1.00  0.00    -0.271 OA
BRANCH   6   8
HETATM    8  C6  UNL     1      30.338  15.810  25.625  1.00  0.00     0.156 C 
BRANCH   8   9
HETATM    9  C5  UNL     1      31.522  16.156  24.815  1.00  0.00     0.292 C 
BRANCH   9  10
HETATM   10  N1  UNL     1      32.288  17.278  25.306  1.00  0.00     0.089 N 
BRANCH  10  11
HETATM   11  C2  UNL     1      33.717  16.934  25.322  1.00  0.00     0.268 C 
HETATM   12  C1  UNL     1      34.421  18.011  26.106  1.00  0.00     0.037 C 
ENDBRANCH  10  11
BRANCH  10  13
HETATM   13  C3  UNL     1      32.105  18.448  24.447  1.00  0.00     0.268 C 
HETATM   14  C4  UNL     1      31.629  18.140  23.073  1.00  0.00     0.037 C 
ENDBRANCH  10  13
ENDBRANCH   9  10
ENDBRANCH   8   9
ENDBRANCH   6   8
BRANCH   6  15
HETATM   15  C7  UNL     1      28.303  16.430  24.333  1.00  0.00     0.127 C 
BRANCH  15  16
HETATM   16  C8  UNL     1      28.380  15.038  23.769  1.00  0.00     0.039 C 
BRANCH  16  17
HETATM   17  C9  UNL     1      27.054  14.521  23.380  1.00  0.00     0.123 C 
BRANCH  17  18
HETATM   18  N3  UNL     1      26.396  13.798  24.482  1.00  0.00    -0.367 N 
ATOM     19  H3  UNL     1      26.899  13.144  25.080  1.00  0.00     0.161 HD
BRANCH  18  20
HETATM   20  C10 UNL     1      24.989  14.080  24.658  1.00  0.00     0.173 C 
HETATM   21  S1  UNL     1      24.577  15.211  25.784  1.00  0.00    -0.041 SA
HETATM   22  N4  UNL     1      24.024  13.469  23.919  1.00  0.00    -0.317 N 
ATOM     23  H4  UNL     1      23.814  13.995  23.070  1.00  0.00     0.170 HD
BRANCH  22  24
HETATM   24  C11 UNL     1      23.319  12.426  24.002  1.00  0.00     0.149 A 
HETATM   25  N5  UNL     1      22.909  12.029  25.259  1.00  0.00    -0.284 N 
HETATM   26  N6  UNL     1      22.180  10.970  25.469  1.00  0.00    -0.310 N 
ATOM     27  H5  UNL     1      23.190  12.591  26.062  1.00  0.00     0.188 HD
HETATM   28  C12 UNL     1      21.779  10.192  24.455  1.00  0.00     0.109 A 
ATOM     29  H6  UNL     1      21.909  10.730  26.422  1.00  0.00     0.186 HD
HETATM   30  C13 UNL     1      22.137  10.504  23.164  1.00  0.00     0.051 A 
HETATM   31  C14 UNL     1      22.908  11.622  22.938  1.00  0.00     0.075 A 
BRANCH  31  32
HETATM   32  N7  UNL     1      23.281  11.976  21.750  1.00  0.00    -0.381 N 
ATOM     33  H7  UNL     1      22.959  12.861  21.358  1.00  0.00     0.160 HD
BRANCH  32  34
HETATM   34  C15 UNL     1      24.141  11.132  20.984  1.00  0.00     0.090 C 
HETATM   35  C16 UNL     1      25.511  11.735  20.924  1.00  0.00     0.009 C 
HETATM   36  C17 UNL     1      26.398  10.753  20.184  1.00  0.00     0.011 C 
HETATM   37  C21 UNL     1      25.444  13.048  20.189  1.00  0.00     0.011 C 
HETATM   38  C18 UNL     1      25.806  10.549  18.813  1.00  0.00    -0.013 C 
HETATM   39  C19 UNL     1      25.747  11.871  18.093  1.00  0.00     0.009 C 
HETATM   40  C24 UNL     1      24.418   9.960  18.865  1.00  0.00     0.011 C 
HETATM   41  C20 UNL     1      24.856  12.851  18.834  1.00  0.00    -0.013 C 
HETATM   42  C22 UNL     1      23.481  12.252  18.898  1.00  0.00     0.011 C 
HETATM   43  C23 UNL     1      23.521  10.943  19.600  1.00  0.00     0.009 C 
ENDBRANCH  32  34
ENDBRANCH  31  32
ENDBRANCH  22  24
ENDBRANCH  18  20
ENDBRANCH  17  18
ENDBRANCH  16  17
ENDBRANCH  15  16
ENDBRANCH   6  15
ENDBRANCH   1   5
TORSDOF 14
ENDMDL
