MODEL 1
REMARK VINA RESULT: -5.277788891      0.000      0.000
REMARK  6 active torsions:
REMARK  status: ('A' for Active; 'I' for Inactive)
REMARK    1  A    between atoms: N1_2  and  C2_5 
REMARK    2  A    between atoms: C2_5  and  C3_6 
REMARK    3  A    between atoms: C3_6  and  N2_7 
REMARK    4  A    between atoms: N2_7  and  C5_9 
REMARK    5  A    between atoms: C5_9  and  C6_10 
REMARK    6  A    between atoms: C7_13  and  N4_14 
ROOT
HETATM    1  C6  UNL     1      16.527  -1.668  61.608  1.00  0.00     0.140 A 
HETATM    2  N3  UNL     1      16.974  -2.506  62.548  1.00  0.00    -0.176 N 
ATOM      3  H3  UNL     1      17.253  -3.474  62.387  1.00  0.00     0.185 HD
HETATM    4  C7  UNL     1      17.001  -1.878  63.739  1.00  0.00     0.691 A 
HETATM    5  N5  UNL     1      16.559  -0.622  63.529  1.00  0.00    -0.131 N 
ATOM      6  H5  UNL     1      16.458   0.110  64.233  1.00  0.00     0.205 HD
HETATM    7  N6  UNL     1      16.279  -0.514  62.240  1.00  0.00    -0.273 N 
ATOM      8  H6  UNL     1      15.923   0.330  61.791  1.00  0.00     0.189 HD
ENDROOT
BRANCH   1   9
HETATM    9  C5  UNL     1      16.345  -1.967  60.156  1.00  0.00     0.350 C 
BRANCH   9  10
HETATM   10  N2  UNL     1      17.299  -2.901  59.664  1.00  0.00     0.092 N 
HETATM   11  C4  UNL     1      18.469  -2.293  59.085  1.00  0.00     0.310 C 
BRANCH  10  12
HETATM   12  C3  UNL     1      16.678  -3.877  58.839  1.00  0.00     0.299 C 
BRANCH  12  13
HETATM   13  C2  UNL     1      15.294  -4.302  59.270  1.00  0.00     0.262 C 
BRANCH  13  14
HETATM   14  N1  UNL     1      14.750  -5.085  58.146  1.00  0.00    -0.077 N 
HETATM   15  C1  UNL     1      15.656  -5.052  57.021  1.00  0.00     0.267 C 
ATOM     16  H12 UNL     1      13.812  -4.776  57.887  1.00  0.00     0.276 HD
ATOM     17  H11 UNL     1      14.524  -6.040  58.422  1.00  0.00     0.276 HD
ENDBRANCH  13  14
ENDBRANCH  12  13
ENDBRANCH  10  12
ENDBRANCH   9  10
ENDBRANCH   1   9
BRANCH   4  18
HETATM   18  N4  UNL     1      17.369  -2.348  64.883  1.00  0.00    -0.233 N 
ATOM     19  H42 UNL     1      18.261  -2.808  65.064  1.00  0.00     0.174 HD
ATOM     20  H41 UNL     1      16.855  -2.342  65.765  1.00  0.00     0.174 HD
ENDBRANCH   4  18
TORSDOF 6
ENDMDL
MODEL 2
REMARK VINA RESULT: -5.211271805      1.323      5.542
REMARK  6 active torsions:
REMARK  status: ('A' for Active; 'I' for Inactive)
REMARK    1  A    between atoms: N1_2  and  C2_5 
REMARK    2  A    between atoms: C2_5  and  C3_6 
REMARK    3  A    between atoms: C3_6  and  N2_7 
REMARK    4  A    between atoms: N2_7  and  C5_9 
REMARK    5  A    between atoms: C5_9  and  C6_10 
REMARK    6  A    between atoms: C7_13  and  N4_14 
ROOT
HETATM    1  C6  UNL     1      16.341  -3.851  59.124  1.00  0.00     0.140 A 
HETATM    2  N3  UNL     1      16.529  -4.243  57.861  1.00  0.00    -0.176 N 
ATOM      3  H3  UNL     1      17.338  -4.005  57.286  1.00  0.00     0.185 HD
HETATM    4  C7  UNL     1      15.488  -4.998  57.461  1.00  0.00     0.691 A 
HETATM    5  N5  UNL     1      14.637  -5.074  58.504  1.00  0.00    -0.131 N 
ATOM      6  H5  UNL     1      13.749  -5.575  58.524  1.00  0.00     0.205 HD
HETATM    7  N6  UNL     1      15.168  -4.377  59.496  1.00  0.00    -0.273 N 
ATOM      8  H6  UNL     1      14.742  -4.258  60.415  1.00  0.00     0.189 HD
ENDROOT
BRANCH   1   9
HETATM    9  C5  UNL     1      17.256  -3.000  59.942  1.00  0.00     0.350 C 
BRANCH   9  10
HETATM   10  N2  UNL     1      16.603  -1.864  60.496  1.00  0.00     0.092 N 
HETATM   11  C4  UNL     1      17.215  -0.608  60.148  1.00  0.00     0.310 C 
BRANCH  10  12
HETATM   12  C3  UNL     1      16.371  -2.037  61.887  1.00  0.00     0.299 C 
BRANCH  12  13
HETATM   13  C2  UNL     1      17.228  -3.083  62.560  1.00  0.00     0.262 C 
BRANCH  13  14
HETATM   14  N1  UNL     1      17.239  -2.728  63.991  1.00  0.00    -0.077 N 
HETATM   15  C1  UNL     1      16.993  -1.315  64.164  1.00  0.00     0.267 C 
ATOM     16  H12 UNL     1      18.103  -3.022  64.448  1.00  0.00     0.276 HD
ATOM     17  H11 UNL     1      16.584  -3.295  64.528  1.00  0.00     0.276 HD
ENDBRANCH  13  14
ENDBRANCH  12  13
ENDBRANCH  10  12
ENDBRANCH   9  10
ENDBRANCH   1   9
BRANCH   4  18
HETATM   18  N4  UNL     1      15.301  -5.560  56.314  1.00  0.00    -0.233 N 
ATOM     19  H42 UNL     1      15.398  -6.558  56.132  1.00  0.00     0.174 HD
ATOM     20  H41 UNL     1      15.035  -5.122  55.432  1.00  0.00     0.174 HD
ENDBRANCH   4  18
TORSDOF 6
ENDMDL
MODEL 3
REMARK VINA RESULT: -5.190286962      1.669      4.948
REMARK  6 active torsions:
REMARK  status: ('A' for Active; 'I' for Inactive)
REMARK    1  A    between atoms: N1_2  and  C2_5 
REMARK    2  A    between atoms: C2_5  and  C3_6 
REMARK    3  A    between atoms: C3_6  and  N2_7 
REMARK    4  A    between atoms: N2_7  and  C5_9 
REMARK    5  A    between atoms: C5_9  and  C6_10 
REMARK    6  A    between atoms: C7_13  and  N4_14 
ROOT
HETATM    1  C6  UNL     1      16.242  -3.390  59.681  1.00  0.00     0.140 A 
HETATM    2  N3  UNL     1      15.124  -3.411  60.412  1.00  0.00    -0.176 N 
ATOM      3  H3  UNL     1      14.936  -2.812  61.216  1.00  0.00     0.185 HD
HETATM    4  C7  UNL     1      14.283  -4.344  59.926  1.00  0.00     0.691 A 
HETATM    5  N5  UNL     1      14.898  -4.912  58.869  1.00  0.00    -0.131 N 
ATOM      6  H5  UNL     1      14.524  -5.657  58.280  1.00  0.00     0.205 HD
HETATM    7  N6  UNL     1      16.076  -4.324  58.737  1.00  0.00    -0.273 N 
ATOM      8  H6  UNL     1      16.762  -4.552  58.017  1.00  0.00     0.189 HD
ENDROOT
BRANCH   1   9
HETATM    9  C5  UNL     1      17.427  -2.504  59.885  1.00  0.00     0.350 C 
BRANCH   9  10
HETATM   10  N2  UNL     1      17.209  -1.516  60.886  1.00  0.00     0.092 N 
HETATM   11  C4  UNL     1      16.958  -0.197  60.364  1.00  0.00     0.310 C 
BRANCH  10  12
HETATM   12  C3  UNL     1      18.220  -1.568  61.882  1.00  0.00     0.299 C 
BRANCH  12  13
HETATM   13  C2  UNL     1      18.307  -2.867  62.649  1.00  0.00     0.262 C 
BRANCH  13  14
HETATM   14  N1  UNL     1      17.135  -2.879  63.544  1.00  0.00    -0.077 N 
HETATM   15  C1  UNL     1      17.186  -1.762  64.459  1.00  0.00     0.267 C 
ATOM     16  H12 UNL     1      17.043  -3.769  64.035  1.00  0.00     0.276 HD
ATOM     17  H11 UNL     1      16.260  -2.903  63.022  1.00  0.00     0.276 HD
ENDBRANCH  13  14
ENDBRANCH  12  13
ENDBRANCH  10  12
ENDBRANCH   9  10
ENDBRANCH   1   9
BRANCH   4  18
HETATM   18  N4  UNL     1      13.109  -4.665  60.356  1.00  0.00    -0.233 N 
ATOM     19  H42 UNL     1      12.300  -4.044  60.358  1.00  0.00     0.174 HD
ATOM     20  H41 UNL     1      12.801  -5.554  60.750  1.00  0.00     0.174 HD
ENDBRANCH   4  18
TORSDOF 6
ENDMDL
MODEL 4
REMARK VINA RESULT: -5.156317909      1.617      5.961
REMARK  6 active torsions:
REMARK  status: ('A' for Active; 'I' for Inactive)
REMARK    1  A    between atoms: N1_2  and  C2_5 
REMARK    2  A    between atoms: C2_5  and  C3_6 
REMARK    3  A    between atoms: C3_6  and  N2_7 
REMARK    4  A    between atoms: N2_7  and  C5_9 
REMARK    5  A    between atoms: C5_9  and  C6_10 
REMARK    6  A    between atoms: C7_13  and  N4_14 
ROOT
HETATM    1  C6  UNL     1      15.981  -4.370  58.206  1.00  0.00     0.140 A 
HETATM    2  N3  UNL     1      16.375  -4.110  56.956  1.00  0.00    -0.176 N 
ATOM      3  H3  UNL     1      17.228  -3.612  56.700  1.00  0.00     0.185 HD
HETATM    4  C7  UNL     1      15.476  -4.606  56.085  1.00  0.00     0.691 A 
HETATM    5  N5  UNL     1      14.502  -5.185  56.815  1.00  0.00    -0.131 N 
ATOM      6  H5  UNL     1      13.671  -5.653  56.453  1.00  0.00     0.205 HD
HETATM    7  N6  UNL     1      14.824  -5.033  58.090  1.00  0.00    -0.273 N 
ATOM      8  H6  UNL     1      14.268  -5.373  58.874  1.00  0.00     0.189 HD
ENDROOT
BRANCH   1   9
HETATM    9  C5  UNL     1      16.691  -3.992  59.464  1.00  0.00     0.350 C 
BRANCH   9  10
HETATM   10  N2  UNL     1      16.833  -2.584  59.613  1.00  0.00     0.092 N 
HETATM   11  C4  UNL     1      18.201  -2.137  59.680  1.00  0.00     0.310 C 
BRANCH  10  12
HETATM   12  C3  UNL     1      16.007  -2.095  60.660  1.00  0.00     0.299 C 
BRANCH  12  13
HETATM   13  C2  UNL     1      15.743  -0.608  60.634  1.00  0.00     0.262 C 
BRANCH  13  14
HETATM   14  N1  UNL     1      15.689  -0.189  62.047  1.00  0.00    -0.077 N 
HETATM   15  C1  UNL     1      16.681  -0.897  62.823  1.00  0.00     0.267 C 
ATOM     16  H12 UNL     1      14.753  -0.296  62.439  1.00  0.00     0.276 HD
ATOM     17  H11 UNL     1      15.781   0.822  62.147  1.00  0.00     0.276 HD
ENDBRANCH  13  14
ENDBRANCH  12  13
ENDBRANCH  10  12
ENDBRANCH   9  10
ENDBRANCH   1   9
BRANCH   4  18
HETATM   18  N4  UNL     1      15.500  -4.558  54.795  1.00  0.00    -0.233 N 
ATOM     19  H42 UNL     1      15.381  -5.364  54.180  1.00  0.00     0.174 HD
ATOM     20  H41 UNL     1      15.637  -3.745  54.195  1.00  0.00     0.174 HD
ENDBRANCH   4  18
TORSDOF 6
ENDMDL
MODEL 5
REMARK VINA RESULT: -5.129614712      0.698      1.206
REMARK  6 active torsions:
REMARK  status: ('A' for Active; 'I' for Inactive)
REMARK    1  A    between atoms: N1_2  and  C2_5 
REMARK    2  A    between atoms: C2_5  and  C3_6 
REMARK    3  A    between atoms: C3_6  and  N2_7 
REMARK    4  A    between atoms: N2_7  and  C5_9 
REMARK    5  A    between atoms: C5_9  and  C6_10 
REMARK    6  A    between atoms: C7_13  and  N4_14 
ROOT
HETATM    1  C6  UNL     1      16.846  -2.214  61.731  1.00  0.00     0.140 A 
HETATM    2  N3  UNL     1      17.016  -1.164  62.539  1.00  0.00    -0.176 N 
ATOM      3  H3  UNL     1      16.990  -0.187  62.246  1.00  0.00     0.185 HD
HETATM    4  C7  UNL     1      17.228  -1.590  63.799  1.00  0.00     0.691 A 
HETATM    5  N5  UNL     1      17.188  -2.937  63.768  1.00  0.00    -0.131 N 
ATOM      6  H5  UNL     1      17.313  -3.564  64.562  1.00  0.00     0.205 HD
HETATM    7  N6  UNL     1      16.957  -3.294  62.514  1.00  0.00    -0.273 N 
ATOM      8  H6  UNL     1      16.875  -4.258  62.191  1.00  0.00     0.189 HD
ENDROOT
BRANCH   1   9
HETATM    9  C5  UNL     1      16.588  -2.179  60.261  1.00  0.00     0.350 C 
BRANCH   9  10
HETATM   10  N2  UNL     1      17.470  -3.022  59.528  1.00  0.00     0.092 N 
HETATM   11  C4  UNL     1      18.561  -2.322  58.899  1.00  0.00     0.310 C 
BRANCH  10  12
HETATM   12  C3  UNL     1      16.748  -3.882  58.658  1.00  0.00     0.299 C 
BRANCH  12  13
HETATM   13  C2  UNL     1      15.360  -4.256  59.124  1.00  0.00     0.262 C 
BRANCH  13  14
HETATM   14  N1  UNL     1      14.810  -5.131  58.072  1.00  0.00    -0.077 N 
HETATM   15  C1  UNL     1      15.710  -5.193  56.943  1.00  0.00     0.267 C 
ATOM     16  H12 UNL     1      13.871  -4.846  57.794  1.00  0.00     0.276 HD
ATOM     17  H11 UNL     1      14.587  -6.060  58.430  1.00  0.00     0.276 HD
ENDBRANCH  13  14
ENDBRANCH  12  13
ENDBRANCH  10  12
ENDBRANCH   9  10
ENDBRANCH   1   9
BRANCH   4  18
HETATM   18  N4  UNL     1      17.434  -0.883  64.859  1.00  0.00    -0.233 N 
ATOM     19  H42 UNL     1      18.332  -0.478  65.123  1.00  0.00     0.174 HD
ATOM     20  H41 UNL     1      16.766  -0.619  65.583  1.00  0.00     0.174 HD
ENDBRANCH   4  18
TORSDOF 6
ENDMDL
