MODEL 1
REMARK VINA RESULT: -7.219142072      0.000      0.000
REMARK  14 active torsions:
REMARK  status: ('A' for Active; 'I' for Inactive)
REMARK    1  A    between atoms: C2_2  and  O2_4 
REMARK    2  A    between atoms: O2_4  and  C3_5 
REMARK    3  A    between atoms: C3_5  and  C4_6 
REMARK    4  A    between atoms: C5_9  and  N2_10 
REMARK    5  A    between atoms: N2_10  and  N3_12 
REMARK    6  A    between atoms: C6_15  and  C7_16 
REMARK    7  A    between atoms: C7_16  and  N5_18 
REMARK    8  A    between atoms: N5_18  and  N6_20 
REMARK    9  A    between atoms: N6_20  and  C8_22 
REMARK   10  A    between atoms: N7_23  and  N8_25 
REMARK   11  A    between atoms: C11_32  and  O4_33 
REMARK   12  A    between atoms: C12_35  and  N11_36 
REMARK   13  A    between atoms: C14_38  and  N12_39 
REMARK   14  A    between atoms: C16_44  and  N13_45 
ROOT
HETATM    1  C4  UNL     1     165.054  51.127  10.157  1.00  0.00     0.086 C 
HETATM    2  N1  UNL     1     163.847  51.552  10.706  1.00  0.00    -0.337 N 
ATOM      3  H1  UNL     1     163.380  52.326  10.232  1.00  0.00     0.167 HD
HETATM    4  C5  UNL     1     163.220  51.047  11.810  1.00  0.00     0.138 C 
HETATM    5  C6  UNL     1     163.708  50.305  12.855  1.00  0.00     0.105 C 
HETATM    6  C10 UNL     1     164.840  49.485  12.761  1.00  0.00     0.224 C 
HETATM    7  O3  UNL     1     164.831  48.473  13.496  1.00  0.00    -0.284 OA
HETATM    8  C11 UNL     1     165.926  49.706  11.944  1.00  0.00     0.146 C 
HETATM    9  C12 UNL     1     166.084  50.641  10.899  1.00  0.00     0.097 C 
ENDROOT
BRANCH   5  10
HETATM   10  C7  UNL     1     163.104  50.355  14.026  1.00  0.00     0.149 C 
HETATM   11  N4  UNL     1     161.923  49.600  14.224  1.00  0.00    -0.080 NA
BRANCH  10  12
HETATM   12  N5  UNL     1     163.619  51.160  15.092  1.00  0.00    -0.286 N 
ATOM     13  H5  UNL     1     163.744  52.164  14.963  1.00  0.00     0.188 HD
BRANCH  12  14
HETATM   14  N6  UNL     1     163.944  50.568  16.298  1.00  0.00    -0.294 N 
ATOM     15  H6  UNL     1     163.376  50.775  17.119  1.00  0.00     0.187 HD
BRANCH  14  16
HETATM   16  C8  UNL     1     165.049  49.678  16.430  1.00  0.00     0.214 C 
HETATM   17  N7  UNL     1     164.864  48.402  16.496  1.00  0.00    -0.293 N 
ATOM     18  H7  UNL     1     165.665  47.777  16.591  1.00  0.00     0.187 HD
BRANCH  17  19
HETATM   19  N8  UNL     1     163.583  47.878  16.439  1.00  0.00    -0.275 N 
HETATM   20  C9  UNL     1     163.285  46.717  16.945  1.00  0.00     0.215 C 
HETATM   21  N9  UNL     1     161.963  46.218  16.864  1.00  0.00    -0.065 NA
HETATM   22  N10 UNL     1     164.279  45.931  17.586  1.00  0.00    -0.065 NA
ATOM     23  H8  UNL     1     162.849  48.422  15.985  1.00  0.00     0.189 HD
ENDBRANCH  17  19
ENDBRANCH  14  16
ENDBRANCH  12  14
ENDBRANCH  10  12
ENDBRANCH   5  10
BRANCH   4  24
HETATM   24  N2  UNL     1     161.949  51.305  11.887  1.00  0.00    -0.291 N 
ATOM     25  H2  UNL     1     161.288  50.661  11.453  1.00  0.00     0.188 HD
BRANCH  24  26
HETATM   26  N3  UNL     1     161.460  52.435  12.544  1.00  0.00    -0.344 N 
ATOM     27  H32 UNL     1     161.796  53.348  12.240  1.00  0.00     0.176 HD
ATOM     28  H31 UNL     1     160.787  52.369  13.308  1.00  0.00     0.176 HD
ENDBRANCH  24  26
ENDBRANCH   4  24
BRANCH   8  29
HETATM   29  O4  UNL     1     167.022  48.900  12.174  1.00  0.00    -0.355 OA
ATOM     30  H4  UNL     1     167.796  49.101  11.662  1.00  0.00     0.218 HD
ENDBRANCH   8  29
BRANCH   1  31
HETATM   31  C3  UNL     1     165.136  51.311   8.904  1.00  0.00     0.177 C 
BRANCH  31  32
HETATM   32  O2  UNL     1     164.987  52.360   8.044  1.00  0.00    -0.289 OA
BRANCH  32  33
HETATM   33  C2  UNL     1     165.948  52.679   7.075  1.00  0.00     0.259 C 
HETATM   34  C1  UNL     1     166.132  54.034   6.510  1.00  0.00     0.126 C 
HETATM   35  O1  UNL     1     166.678  51.744   6.683  1.00  0.00    -0.265 OA
ENDBRANCH  32  33
ENDBRANCH  31  32
ENDBRANCH   1  31
BRANCH   9  36
HETATM   36  N11 UNL     1     167.416  51.036  10.704  1.00  0.00    -0.373 N 
HETATM   37  C13 UNL     1     168.070  50.898   9.442  1.00  0.00     0.155 C 
HETATM   38  C14 UNL     1     169.094  52.022   9.321  1.00  0.00     0.203 C 
HETATM   39  C15 UNL     1     170.127  51.723  10.388  1.00  0.00     0.068 C 
HETATM   40  C16 UNL     1     169.508  51.918  11.724  1.00  0.00     0.203 C 
HETATM   41  C17 UNL     1     168.081  51.595  11.869  1.00  0.00     0.155 C 
BRANCH  38  42
HETATM   42  N12 UNL     1     169.668  52.075   7.999  1.00  0.00    -0.073 N 
ATOM     43 3H12 UNL     1     169.067  52.587   7.352  1.00  0.00     0.274 HD
ATOM     44 2H12 UNL     1     170.485  52.684   7.971  1.00  0.00     0.274 HD
ATOM     45 1H12 UNL     1     169.885  51.143   7.647  1.00  0.00     0.274 HD
ENDBRANCH  38  42
BRANCH  40  46
HETATM   46  N13 UNL     1     169.801  53.303  12.133  1.00  0.00    -0.073 N 
ATOM     47 3H13 UNL     1     170.190  53.871  11.379  1.00  0.00     0.274 HD
ATOM     48 2H13 UNL     1     168.963  53.860  12.295  1.00  0.00     0.274 HD
ATOM     49 1H13 UNL     1     170.411  53.247  12.948  1.00  0.00     0.274 HD
ENDBRANCH  40  46
ENDBRANCH   9  36
TORSDOF 14
ENDMDL
MODEL 2
REMARK VINA RESULT: -7.184436327      1.963      3.252
REMARK  14 active torsions:
REMARK  status: ('A' for Active; 'I' for Inactive)
REMARK    1  A    between atoms: C2_2  and  O2_4 
REMARK    2  A    between atoms: O2_4  and  C3_5 
REMARK    3  A    between atoms: C3_5  and  C4_6 
REMARK    4  A    between atoms: C5_9  and  N2_10 
REMARK    5  A    between atoms: N2_10  and  N3_12 
REMARK    6  A    between atoms: C6_15  and  C7_16 
REMARK    7  A    between atoms: C7_16  and  N5_18 
REMARK    8  A    between atoms: N5_18  and  N6_20 
REMARK    9  A    between atoms: N6_20  and  C8_22 
REMARK   10  A    between atoms: N7_23  and  N8_25 
REMARK   11  A    between atoms: C11_32  and  O4_33 
REMARK   12  A    between atoms: C12_35  and  N11_36 
REMARK   13  A    between atoms: C14_38  and  N12_39 
REMARK   14  A    between atoms: C16_44  and  N13_45 
ROOT
HETATM    1  C4  UNL     1     166.916  50.952   9.266  1.00  0.00     0.086 C 
HETATM    2  N1  UNL     1     165.618  50.877   9.766  1.00  0.00    -0.337 N 
ATOM      3  H1  UNL     1     164.870  51.156   9.131  1.00  0.00     0.167 HD
HETATM    4  C5  UNL     1     165.237  50.472  11.014  1.00  0.00     0.138 C 
HETATM    5  C6  UNL     1     165.948  50.394  12.185  1.00  0.00     0.105 C 
HETATM    6  C10 UNL     1     167.338  50.236  12.238  1.00  0.00     0.224 C 
HETATM    7  O3  UNL     1     167.769  49.606  13.228  1.00  0.00    -0.284 OA
HETATM    8  C11 UNL     1     168.237  50.710  11.308  1.00  0.00     0.146 C 
HETATM    9  C12 UNL     1     167.996  51.261  10.032  1.00  0.00     0.097 C 
ENDROOT
BRANCH   5  10
HETATM   10  C7  UNL     1     165.313  50.478  13.338  1.00  0.00     0.149 C 
HETATM   11  N4  UNL     1     164.773  51.725  13.737  1.00  0.00    -0.080 NA
BRANCH  10  12
HETATM   12  N5  UNL     1     165.165  49.336  14.188  1.00  0.00    -0.286 N 
ATOM     13  H5  UNL     1     165.949  49.016  14.757  1.00  0.00     0.188 HD
BRANCH  12  14
HETATM   14  N6  UNL     1     163.955  48.671  14.233  1.00  0.00    -0.294 N 
ATOM     15  H6  UNL     1     163.729  48.007  13.492  1.00  0.00     0.187 HD
BRANCH  14  16
HETATM   16  C8  UNL     1     163.014  48.882  15.281  1.00  0.00     0.214 C 
HETATM   17  N7  UNL     1     161.880  49.453  15.045  1.00  0.00    -0.293 N 
ATOM     18  H7  UNL     1     161.216  49.597  15.806  1.00  0.00     0.187 HD
BRANCH  17  19
HETATM   19  N8  UNL     1     161.563  49.871  13.764  1.00  0.00    -0.275 N 
HETATM   20  C9  UNL     1     161.318  51.118  13.481  1.00  0.00     0.215 C 
HETATM   21  N9  UNL     1     160.997  51.503  12.158  1.00  0.00    -0.065 NA
HETATM   22  N10 UNL     1     161.370  52.112  14.494  1.00  0.00    -0.065 NA
ATOM     23  H8  UNL     1     161.520  49.178  13.016  1.00  0.00     0.189 HD
ENDBRANCH  17  19
ENDBRANCH  14  16
ENDBRANCH  12  14
ENDBRANCH  10  12
ENDBRANCH   5  10
BRANCH   4  24
HETATM   24  N2  UNL     1     163.999  50.093  11.116  1.00  0.00    -0.291 N 
ATOM     25  H2  UNL     1     163.716  49.543  11.927  1.00  0.00     0.188 HD
BRANCH  24  26
HETATM   26  N3  UNL     1     163.044  50.412  10.150  1.00  0.00    -0.344 N 
ATOM     27  H32 UNL     1     163.162  50.026   9.214  1.00  0.00     0.176 HD
ATOM     28  H31 UNL     1     162.245  51.013  10.355  1.00  0.00     0.176 HD
ENDBRANCH  24  26
ENDBRANCH   4  24
BRANCH   8  29
HETATM   29  O4  UNL     1     169.566  50.640  11.670  1.00  0.00    -0.355 OA
ATOM     30  H4  UNL     1     170.058  49.918  11.296  1.00  0.00     0.218 HD
ENDBRANCH   8  29
BRANCH   1  31
HETATM   31  C3  UNL     1     166.988  50.785   8.011  1.00  0.00     0.177 C 
BRANCH  31  32
HETATM   32  O2  UNL     1     166.700  51.516   6.895  1.00  0.00    -0.289 OA
BRANCH  32  33
HETATM   33  C2  UNL     1     166.240  52.838   6.961  1.00  0.00     0.259 C 
HETATM   34  C1  UNL     1     167.083  54.021   6.680  1.00  0.00     0.126 C 
HETATM   35  O1  UNL     1     165.042  52.998   7.280  1.00  0.00    -0.265 OA
ENDBRANCH  32  33
ENDBRANCH  31  32
ENDBRANCH   1  31
BRANCH   9  36
HETATM   36  N11 UNL     1     168.979  52.176   9.627  1.00  0.00    -0.373 N 
HETATM   37  C13 UNL     1     170.058  51.800   8.770  1.00  0.00     0.155 C 
HETATM   38  C14 UNL     1     170.443  53.020   7.941  1.00  0.00     0.203 C 
HETATM   39  C15 UNL     1     171.000  54.010   8.941  1.00  0.00     0.068 C 
HETATM   40  C16 UNL     1     169.897  54.482   9.817  1.00  0.00     0.203 C 
HETATM   41  C17 UNL     1     168.825  53.528  10.136  1.00  0.00     0.155 C 
BRANCH  38  42
HETATM   42  N12 UNL     1     171.396  52.681   6.912  1.00  0.00    -0.073 N 
ATOM     43 3H12 UNL     1     171.607  51.683   6.912  1.00  0.00     0.274 HD
ATOM     44 2H12 UNL     1     170.983  52.755   5.982  1.00  0.00     0.274 HD
ATOM     45 1H12 UNL     1     172.244  53.242   6.988  1.00  0.00     0.274 HD
ENDBRANCH  38  42
BRANCH  40  46
HETATM   46  N13 UNL     1     169.371  55.718   9.213  1.00  0.00    -0.073 N 
ATOM     47 3H13 UNL     1     169.941  56.539   9.415  1.00  0.00     0.274 HD
ATOM     48 2H13 UNL     1     169.468  55.742   8.198  1.00  0.00     0.274 HD
ATOM     49 1H13 UNL     1     168.405  55.813   9.526  1.00  0.00     0.274 HD
ENDBRANCH  40  46
ENDBRANCH   9  36
TORSDOF 14
ENDMDL
MODEL 3
REMARK VINA RESULT: -7.162522545      2.788      9.178
REMARK  14 active torsions:
REMARK  status: ('A' for Active; 'I' for Inactive)
REMARK    1  A    between atoms: C2_2  and  O2_4 
REMARK    2  A    between atoms: O2_4  and  C3_5 
REMARK    3  A    between atoms: C3_5  and  C4_6 
REMARK    4  A    between atoms: C5_9  and  N2_10 
REMARK    5  A    between atoms: N2_10  and  N3_12 
REMARK    6  A    between atoms: C6_15  and  C7_16 
REMARK    7  A    between atoms: C7_16  and  N5_18 
REMARK    8  A    between atoms: N5_18  and  N6_20 
REMARK    9  A    between atoms: N6_20  and  C8_22 
REMARK   10  A    between atoms: N7_23  and  N8_25 
REMARK   11  A    between atoms: C11_32  and  O4_33 
REMARK   12  A    between atoms: C12_35  and  N11_36 
REMARK   13  A    between atoms: C14_38  and  N12_39 
REMARK   14  A    between atoms: C16_44  and  N13_45 
ROOT
HETATM    1  C4  UNL     1     166.771  50.432  10.924  1.00  0.00     0.086 C 
HETATM    2  N1  UNL     1     167.705  51.287  10.343  1.00  0.00    -0.337 N 
ATOM      3  H1  UNL     1     168.466  51.603  10.945  1.00  0.00     0.167 HD
HETATM    4  C5  UNL     1     167.713  51.748   9.058  1.00  0.00     0.138 C 
HETATM    5  C6  UNL     1     166.705  51.834   8.131  1.00  0.00     0.105 C 
HETATM    6  C10 UNL     1     165.575  51.005   8.138  1.00  0.00     0.224 C 
HETATM    7  O3  UNL     1     165.085  50.760   7.014  1.00  0.00    -0.284 OA
HETATM    8  C11 UNL     1     164.985  50.460   9.256  1.00  0.00     0.146 C 
HETATM    9  C12 UNL     1     165.455  50.421  10.586  1.00  0.00     0.097 C 
ENDROOT
BRANCH   5  10
HETATM   10  C7  UNL     1     166.773  52.741   7.178  1.00  0.00     0.149 C 
HETATM   11  N4  UNL     1     167.989  52.906   6.470  1.00  0.00    -0.080 NA
BRANCH  10  12
HETATM   12  N5  UNL     1     165.646  53.560   6.851  1.00  0.00    -0.286 N 
ATOM     13  H5  UNL     1     164.773  53.463   7.371  1.00  0.00     0.188 HD
BRANCH  12  14
HETATM   14  N6  UNL     1     165.746  54.484   5.829  1.00  0.00    -0.294 N 
ATOM     15  H6  UNL     1     165.523  54.193   4.877  1.00  0.00     0.187 HD
BRANCH  14  16
HETATM   16  C8  UNL     1     166.152  55.830   6.061  1.00  0.00     0.214 C 
HETATM   17  N7  UNL     1     167.301  56.254   5.649  1.00  0.00    -0.293 N 
ATOM     18  H7  UNL     1     167.577  57.220   5.822  1.00  0.00     0.187 HD
BRANCH  17  19
HETATM   19  N8  UNL     1     168.157  55.401   4.973  1.00  0.00    -0.275 N 
HETATM   20  C9  UNL     1     169.135  55.841   4.235  1.00  0.00     0.215 C 
HETATM   21  N9  UNL     1     169.987  54.935   3.561  1.00  0.00    -0.065 NA
HETATM   22  N10 UNL     1     169.364  57.236   4.095  1.00  0.00    -0.065 NA
ATOM     23  H8  UNL     1     168.017  54.394   5.057  1.00  0.00     0.189 HD
ENDBRANCH  17  19
ENDBRANCH  14  16
ENDBRANCH  12  14
ENDBRANCH  10  12
ENDBRANCH   5  10
BRANCH   4  24
HETATM   24  N2  UNL     1     168.864  52.175   8.633  1.00  0.00    -0.291 N 
ATOM     25  H2  UNL     1     168.936  53.127   8.275  1.00  0.00     0.188 HD
BRANCH  24  26
HETATM   26  N3  UNL     1     170.006  51.372   8.652  1.00  0.00    -0.344 N 
ATOM     27  H32 UNL     1     170.629  51.445   9.456  1.00  0.00     0.176 HD
ATOM     28  H31 UNL     1     170.227  50.725   7.895  1.00  0.00     0.176 HD
ENDBRANCH  24  26
ENDBRANCH   4  24
BRANCH   8  29
HETATM   29  O4  UNL     1     163.757  49.865   9.055  1.00  0.00    -0.355 OA
ATOM     30  H4  UNL     1     163.031  50.459   8.903  1.00  0.00     0.218 HD
ENDBRANCH   8  29
BRANCH   1  31
HETATM   31  C3  UNL     1     167.247  49.717  11.858  1.00  0.00     0.177 C 
BRANCH  31  32
HETATM   32  O2  UNL     1     167.990  49.922  12.984  1.00  0.00    -0.289 OA
BRANCH  32  33
HETATM   33  C2  UNL     1     167.862  49.119  14.125  1.00  0.00     0.259 C 
HETATM   34  C1  UNL     1     168.989  48.770  15.019  1.00  0.00     0.126 C 
HETATM   35  O1  UNL     1     166.718  48.685  14.378  1.00  0.00    -0.265 OA
ENDBRANCH  32  33
ENDBRANCH  31  32
ENDBRANCH   1  31
BRANCH   9  36
HETATM   36  N11 UNL     1     164.425  50.383  11.538  1.00  0.00    -0.373 N 
HETATM   37  C13 UNL     1     164.136  49.206  12.295  1.00  0.00     0.155 C 
HETATM   38  C14 UNL     1     163.596  49.645  13.651  1.00  0.00     0.203 C 
HETATM   39  C15 UNL     1     162.269  50.308  13.346  1.00  0.00     0.068 C 
HETATM   40  C16 UNL     1     162.523  51.575  12.613  1.00  0.00     0.203 C 
HETATM   41  C17 UNL     1     163.676  51.617  11.701  1.00  0.00     0.155 C 
BRANCH  38  42
HETATM   42  N12 UNL     1     163.458  48.527  14.553  1.00  0.00    -0.073 N 
ATOM     43 3H12 UNL     1     164.340  48.311  15.018  1.00  0.00     0.274 HD
ATOM     44 2H12 UNL     1     162.904  48.774  15.372  1.00  0.00     0.274 HD
ATOM     45 1H12 UNL     1     163.076  47.709  14.078  1.00  0.00     0.274 HD
ENDBRANCH  38  42
BRANCH  40  46
HETATM   46  N13 UNL     1     162.581  52.647  13.621  1.00  0.00    -0.073 N 
ATOM     47 3H13 UNL     1     161.853  53.351  13.502  1.00  0.00     0.274 HD
ATOM     48 2H13 UNL     1     162.309  52.337  14.554  1.00  0.00     0.274 HD
ATOM     49 1H13 UNL     1     163.524  53.035  13.586  1.00  0.00     0.274 HD
ENDBRANCH  40  46
ENDBRANCH   9  36
TORSDOF 14
ENDMDL
MODEL 4
REMARK VINA RESULT: -7.121551491      1.211      1.865
REMARK  14 active torsions:
REMARK  status: ('A' for Active; 'I' for Inactive)
REMARK    1  A    between atoms: C2_2  and  O2_4 
REMARK    2  A    between atoms: O2_4  and  C3_5 
REMARK    3  A    between atoms: C3_5  and  C4_6 
REMARK    4  A    between atoms: C5_9  and  N2_10 
REMARK    5  A    between atoms: N2_10  and  N3_12 
REMARK    6  A    between atoms: C6_15  and  C7_16 
REMARK    7  A    between atoms: C7_16  and  N5_18 
REMARK    8  A    between atoms: N5_18  and  N6_20 
REMARK    9  A    between atoms: N6_20  and  C8_22 
REMARK   10  A    between atoms: N7_23  and  N8_25 
REMARK   11  A    between atoms: C11_32  and  O4_33 
REMARK   12  A    between atoms: C12_35  and  N11_36 
REMARK   13  A    between atoms: C14_38  and  N12_39 
REMARK   14  A    between atoms: C16_44  and  N13_45 
ROOT
HETATM    1  C4  UNL     1     165.027  51.132  10.137  1.00  0.00     0.086 C 
HETATM    2  N1  UNL     1     163.818  51.540  10.693  1.00  0.00    -0.337 N 
ATOM      3  H1  UNL     1     163.357  52.334  10.246  1.00  0.00     0.167 HD
HETATM    4  C5  UNL     1     163.179  50.994  11.771  1.00  0.00     0.138 C 
HETATM    5  C6  UNL     1     163.657  50.209  12.790  1.00  0.00     0.105 C 
HETATM    6  C10 UNL     1     164.786  49.389  12.672  1.00  0.00     0.224 C 
HETATM    7  O3  UNL     1     164.768  48.349  13.365  1.00  0.00    -0.284 OA
HETATM    8  C11 UNL     1     165.880  49.638  11.872  1.00  0.00     0.146 C 
HETATM    9  C12 UNL     1     166.049  50.613  10.867  1.00  0.00     0.097 C 
ENDROOT
BRANCH   5  10
HETATM   10  C7  UNL     1     163.043  50.215  13.957  1.00  0.00     0.149 C 
HETATM   11  N4  UNL     1     161.857  49.458  14.115  1.00  0.00    -0.080 NA
BRANCH  10  12
HETATM   12  N5  UNL     1     163.553  50.973  15.059  1.00  0.00    -0.286 N 
ATOM     13  H5  UNL     1     163.078  51.824  15.360  1.00  0.00     0.188 HD
BRANCH  12  14
HETATM   14  N6  UNL     1     164.693  50.546  15.711  1.00  0.00    -0.294 N 
ATOM     15  H6  UNL     1     165.537  51.116  15.656  1.00  0.00     0.187 HD
BRANCH  14  16
HETATM   16  C8  UNL     1     164.728  49.334  16.459  1.00  0.00     0.214 C 
HETATM   17  N7  UNL     1     165.680  48.478  16.287  1.00  0.00    -0.293 N 
ATOM     18  H7  UNL     1     165.691  47.615  16.830  1.00  0.00     0.187 HD
BRANCH  17  19
HETATM   19  N8  UNL     1     166.684  48.728  15.367  1.00  0.00    -0.275 N 
HETATM   20  C9  UNL     1     167.911  48.337  15.556  1.00  0.00     0.215 C 
HETATM   21  N9  UNL     1     168.908  48.614  14.591  1.00  0.00    -0.065 NA
HETATM   22  N10 UNL     1     168.270  47.626  16.731  1.00  0.00    -0.065 NA
ATOM     23  H8  UNL     1     166.455  49.237  14.513  1.00  0.00     0.189 HD
ENDBRANCH  17  19
ENDBRANCH  14  16
ENDBRANCH  12  14
ENDBRANCH  10  12
ENDBRANCH   5  10
BRANCH   4  24
HETATM   24  N2  UNL     1     161.909  51.253  11.848  1.00  0.00    -0.291 N 
ATOM     25  H2  UNL     1     161.248  50.626  11.389  1.00  0.00     0.188 HD
BRANCH  24  26
HETATM   26  N3  UNL     1     161.419  52.363  12.539  1.00  0.00    -0.344 N 
ATOM     27  H32 UNL     1     161.817  53.276  12.321  1.00  0.00     0.176 HD
ATOM     28  H31 UNL     1     160.687  52.282  13.244  1.00  0.00     0.176 HD
ENDBRANCH  24  26
ENDBRANCH   4  24
BRANCH   8  29
HETATM   29  O4  UNL     1     166.971  48.819  12.079  1.00  0.00    -0.355 OA
ATOM     30  H4  UNL     1     167.804  49.156  11.771  1.00  0.00     0.218 HD
ENDBRANCH   8  29
BRANCH   1  31
HETATM   31  C3  UNL     1     165.120  51.365   8.893  1.00  0.00     0.177 C 
BRANCH  31  32
HETATM   32  O2  UNL     1     165.050  52.460   8.082  1.00  0.00    -0.289 OA
BRANCH  32  33
HETATM   33  C2  UNL     1     165.999  52.717   7.084  1.00  0.00     0.259 C 
HETATM   34  C1  UNL     1     166.256  54.059   6.514  1.00  0.00     0.126 C 
HETATM   35  O1  UNL     1     166.654  51.737   6.669  1.00  0.00    -0.265 OA
ENDBRANCH  32  33
ENDBRANCH  31  32
ENDBRANCH   1  31
BRANCH   9  36
HETATM   36  N11 UNL     1     167.384  51.010  10.699  1.00  0.00    -0.373 N 
HETATM   37  C13 UNL     1     168.068  50.862   9.453  1.00  0.00     0.155 C 
HETATM   38  C14 UNL     1     169.090  51.988   9.344  1.00  0.00     0.203 C 
HETATM   39  C15 UNL     1     170.100  51.703  10.437  1.00  0.00     0.068 C 
HETATM   40  C16 UNL     1     169.450  51.908  11.757  1.00  0.00     0.203 C 
HETATM   41  C17 UNL     1     168.021  51.582  11.873  1.00  0.00     0.155 C 
BRANCH  38  42
HETATM   42  N12 UNL     1     169.694  52.030   8.035  1.00  0.00    -0.073 N 
ATOM     43 3H12 UNL     1     170.340  51.253   7.896  1.00  0.00     0.274 HD
ATOM     44 2H12 UNL     1     169.018  51.805   7.305  1.00  0.00     0.274 HD
ATOM     45 1H12 UNL     1     170.146  52.927   7.860  1.00  0.00     0.274 HD
ENDBRANCH  38  42
BRANCH  40  46
HETATM   46  N13 UNL     1     169.730  53.298  12.159  1.00  0.00    -0.073 N 
ATOM     47 3H13 UNL     1     170.163  53.851  11.419  1.00  0.00     0.274 HD
ATOM     48 2H13 UNL     1     168.888  53.863  12.265  1.00  0.00     0.274 HD
ATOM     49 1H13 UNL     1     170.294  53.252  13.008  1.00  0.00     0.274 HD
ENDBRANCH  40  46
ENDBRANCH   9  36
TORSDOF 14
ENDMDL
MODEL 5
REMARK VINA RESULT: -7.066090790      2.377      8.572
REMARK  14 active torsions:
REMARK  status: ('A' for Active; 'I' for Inactive)
REMARK    1  A    between atoms: C2_2  and  O2_4 
REMARK    2  A    between atoms: O2_4  and  C3_5 
REMARK    3  A    between atoms: C3_5  and  C4_6 
REMARK    4  A    between atoms: C5_9  and  N2_10 
REMARK    5  A    between atoms: N2_10  and  N3_12 
REMARK    6  A    between atoms: C6_15  and  C7_16 
REMARK    7  A    between atoms: C7_16  and  N5_18 
REMARK    8  A    between atoms: N5_18  and  N6_20 
REMARK    9  A    between atoms: N6_20  and  C8_22 
REMARK   10  A    between atoms: N7_23  and  N8_25 
REMARK   11  A    between atoms: C11_32  and  O4_33 
REMARK   12  A    between atoms: C12_35  and  N11_36 
REMARK   13  A    between atoms: C14_38  and  N12_39 
REMARK   14  A    between atoms: C16_44  and  N13_45 
ROOT
HETATM    1  C4  UNL     1     166.090  50.745  11.706  1.00  0.00     0.086 C 
HETATM    2  N1  UNL     1     167.021  51.464  10.960  1.00  0.00    -0.337 N 
ATOM      3  H1  UNL     1     167.765  51.924  11.485  1.00  0.00     0.167 HD
HETATM    4  C5  UNL     1     167.047  51.622   9.603  1.00  0.00     0.138 C 
HETATM    5  C6  UNL     1     166.055  51.475   8.667  1.00  0.00     0.105 C 
HETATM    6  C10 UNL     1     164.938  50.649   8.844  1.00  0.00     0.224 C 
HETATM    7  O3  UNL     1     164.473  50.145   7.799  1.00  0.00    -0.284 OA
HETATM    8  C11 UNL     1     164.335  50.360  10.049  1.00  0.00     0.146 C 
HETATM    9  C12 UNL     1     164.780  50.633  11.359  1.00  0.00     0.097 C 
ENDROOT
BRANCH   5  10
HETATM   10  C7  UNL     1     166.128  52.144   7.533  1.00  0.00     0.149 C 
HETATM   11  N4  UNL     1     166.992  51.678   6.513  1.00  0.00    -0.080 NA
BRANCH  10  12
HETATM   12  N5  UNL     1     165.353  53.330   7.320  1.00  0.00    -0.286 N 
ATOM     13  H5  UNL     1     164.711  53.659   8.041  1.00  0.00     0.188 HD
BRANCH  12  14
HETATM   14  N6  UNL     1     165.483  54.025   6.134  1.00  0.00    -0.294 N 
ATOM     15  H6  UNL     1     165.288  53.545   5.256  1.00  0.00     0.187 HD
BRANCH  14  16
HETATM   16  C8  UNL     1     165.881  55.393   6.097  1.00  0.00     0.214 C 
HETATM   17  N7  UNL     1     167.121  55.716   5.942  1.00  0.00    -0.293 N 
ATOM     18  H7  UNL     1     167.391  56.700   5.917  1.00  0.00     0.187 HD
BRANCH  17  19
HETATM   19  N8  UNL     1     168.087  54.732   5.808  1.00  0.00    -0.275 N 
HETATM   20  C9  UNL     1     168.907  54.430   6.772  1.00  0.00     0.215 C 
HETATM   21  N9  UNL     1     169.880  53.418   6.594  1.00  0.00    -0.065 NA
HETATM   22  N10 UNL     1     168.840  55.108   8.018  1.00  0.00    -0.065 NA
ATOM     23  H8  UNL     1     168.157  54.228   4.925  1.00  0.00     0.189 HD
ENDBRANCH  17  19
ENDBRANCH  14  16
ENDBRANCH  12  14
ENDBRANCH  10  12
ENDBRANCH   5  10
BRANCH   4  24
HETATM   24  N2  UNL     1     168.199  51.964   9.111  1.00  0.00    -0.291 N 
ATOM     25  H2  UNL     1     168.401  52.953   8.967  1.00  0.00     0.188 HD
BRANCH  24  26
HETATM   26  N3  UNL     1     169.169  51.020   8.771  1.00  0.00    -0.344 N 
ATOM     27  H32 UNL     1     168.855  50.123   8.400  1.00  0.00     0.176 HD
ATOM     28  H31 UNL     1     170.166  51.202   8.884  1.00  0.00     0.176 HD
ENDBRANCH  24  26
ENDBRANCH   4  24
BRANCH   8  29
HETATM   29  O4  UNL     1     163.121  49.711   9.969  1.00  0.00    -0.355 OA
ATOM     30  H4  UNL     1     162.509  49.894  10.673  1.00  0.00     0.218 HD
ENDBRANCH   8  29
BRANCH   1  31
HETATM   31  C3  UNL     1     166.559  50.271  12.785  1.00  0.00     0.177 C 
BRANCH  31  32
HETATM   32  O2  UNL     1     166.745  49.031  13.324  1.00  0.00    -0.289 OA
BRANCH  32  33
HETATM   33  C2  UNL     1     166.974  48.835  14.693  1.00  0.00     0.259 C 
HETATM   34  C1  UNL     1     168.312  48.605  15.281  1.00  0.00     0.126 C 
HETATM   35  O1  UNL     1     165.971  48.860  15.437  1.00  0.00    -0.265 OA
ENDBRANCH  32  33
ENDBRANCH  31  32
ENDBRANCH   1  31
BRANCH   9  36
HETATM   36  N11 UNL     1     163.733  50.791  12.279  1.00  0.00    -0.373 N 
HETATM   37  C13 UNL     1     163.438  49.804  13.269  1.00  0.00     0.155 C 
HETATM   38  C14 UNL     1     162.870  50.521  14.489  1.00  0.00     0.203 C 
HETATM   39  C15 UNL     1     161.545  51.089  14.024  1.00  0.00     0.068 C 
HETATM   40  C16 UNL     1     161.805  52.170  13.038  1.00  0.00     0.203 C 
HETATM   41  C17 UNL     1     162.974  52.024  12.159  1.00  0.00     0.155 C 
BRANCH  38  42
HETATM   42  N12 UNL     1     162.722  49.623  15.608  1.00  0.00    -0.073 N 
ATOM     43 3H12 UNL     1     162.382  48.708  15.311  1.00  0.00     0.274 HD
ATOM     44 2H12 UNL     1     163.627  49.341  15.983  1.00  0.00     0.274 HD
ATOM     45 1H12 UNL     1     162.128  50.025  16.333  1.00  0.00     0.274 HD
ENDBRANCH  38  42
BRANCH  40  46
HETATM   46  N13 UNL     1     161.838  53.436  13.791  1.00  0.00    -0.073 N 
ATOM     47 3H13 UNL     1     161.039  54.039  13.598  1.00  0.00     0.274 HD
ATOM     48 2H13 UNL     1     161.669  53.314  14.789  1.00  0.00     0.274 HD
ATOM     49 1H13 UNL     1     162.734  53.878  13.586  1.00  0.00     0.274 HD
ENDBRANCH  40  46
ENDBRANCH   9  36
TORSDOF 14
ENDMDL
