MODEL 1
REMARK VINA RESULT: -6.598013634      0.000      0.000
REMARK  11 active torsions:
REMARK  status: ('A' for Active; 'I' for Inactive)
REMARK    1  A    between atoms: N1_1  and  C1_4 
REMARK    2  A    between atoms: C2_10  and  N4_11 
REMARK       I    between atoms: N4_11  and  C3_13 
REMARK    3  A    between atoms: C3_13  and  C4_15 
REMARK    4  A    between atoms: C4_15  and  C5_16 
REMARK    5  A    between atoms: C5_16  and  N5_17 
REMARK    6  A    between atoms: C5_16  and  O3_21 
REMARK    7  A    between atoms: C7_27  and  C8_28 
REMARK    8  A    between atoms: C10_32  and  C11_33 
REMARK    9  A    between atoms: C11_33  and  S2_34 
REMARK   10  A    between atoms: S2_34  and  N7_35 
REMARK   11  A    between atoms: C13_42  and  O9_43 
ROOT
HETATM    1  C4  UNL     1     162.387  50.744  13.907  1.00  0.00     0.172 C 
HETATM    2  S1  UNL     1     161.560  51.764  15.160  1.00  0.00    -0.100 SA
HETATM    3  C6  UNL     1     161.474  50.118  15.910  1.00  0.00     0.171 C 
HETATM    4  N6  UNL     1     160.169  49.769  16.364  1.00  0.00    -0.379 N 
ATOM      5  H6  UNL     1     159.346  50.312  16.103  1.00  0.00     0.156 HD
HETATM    6  C7  UNL     1     160.079  48.629  17.195  1.00  0.00     0.204 C 
HETATM    7  C9  UNL     1     161.312  48.155  17.799  1.00  0.00     0.020 C 
HETATM    8  C10 UNL     1     162.506  48.773  17.743  1.00  0.00     0.006 C 
HETATM    9  C12 UNL     1     162.512  50.000  16.965  1.00  0.00     0.197 C 
HETATM   10  O8  UNL     1     163.345  50.874  17.194  1.00  0.00    -0.289 OA
HETATM   11  C13 UNL     1     161.822  49.529  14.568  1.00  0.00     0.197 C 
ENDROOT
BRANCH   1  12
HETATM   12  C3  UNL     1     163.868  50.825  13.935  1.00  0.00     0.249 C 
HETATM   13  N4  UNL     1     164.719  49.759  13.671  1.00  0.00    -0.307 N 
ATOM     14  H4  UNL     1     164.554  49.321  12.764  1.00  0.00     0.170 HD
HETATM   15  O2  UNL     1     164.382  51.941  14.216  1.00  0.00    -0.271 OA
BRANCH  13  16
HETATM   16  C2  UNL     1     165.644  49.230  14.317  1.00  0.00     0.176 A 
HETATM   17  C1  UNL     1     166.949  49.026  13.973  1.00  0.00     0.167 A 
HETATM   18  N2  UNL     1     167.543  48.407  15.035  1.00  0.00    -0.222 N 
HETATM   19  O1  UNL     1     166.653  48.254  15.941  1.00  0.00    -0.153 OA
ATOM     20  H2  UNL     1     168.519  48.118  15.094  1.00  0.00     0.198 HD
HETATM   21  N3  UNL     1     165.503  48.727  15.565  1.00  0.00    -0.222 N 
ATOM     22  H3  UNL     1     164.643  48.722  16.115  1.00  0.00     0.198 HD
BRANCH  17  23
HETATM   23  N1  UNL     1     167.567  49.320  12.908  1.00  0.00    -0.381 N 
ATOM     24  H12 UNL     1     168.333  48.837  12.438  1.00  0.00     0.157 HD
ATOM     25  H11 UNL     1     167.353  50.145  12.347  1.00  0.00     0.157 HD
ENDBRANCH  17  23
ENDBRANCH  13  16
ENDBRANCH   1  12
BRANCH   1  26
HETATM   26  C5  UNL     1     161.853  51.073  12.545  1.00  0.00     0.347 C 
BRANCH  26  27
HETATM   27  N5  UNL     1     162.833  51.800  11.756  1.00  0.00    -0.051 N 
ATOM     28  H53 UNL     1     162.477  52.017  10.825  1.00  0.00     0.277 HD
ATOM     29  H52 UNL     1     162.961  52.751  12.102  1.00  0.00     0.277 HD
ATOM     30  H51 UNL     1     163.718  51.296  11.710  1.00  0.00     0.277 HD
ENDBRANCH  26  27
BRANCH  26  31
HETATM   31  O3  UNL     1     160.695  51.860  12.656  1.00  0.00    -0.368 OA
ATOM     32  H3  UNL     1     159.944  51.311  12.849  1.00  0.00     0.212 HD
ENDBRANCH  26  31
ENDBRANCH   1  26
BRANCH  11  33
HETATM   33  O9  UNL     1     162.643  48.437  14.727  1.00  0.00    -0.389 OA
ATOM     34  H9  UNL     1     162.238  47.591  14.879  1.00  0.00     0.210 HD
ENDBRANCH  11  33
BRANCH   6  35
HETATM   35  C8  UNL     1     159.392  47.474  16.563  1.00  0.00     0.200 C 
HETATM   36  O4  UNL     1     160.012  46.721  15.777  1.00  0.00    -0.646 OA
HETATM   37  O5  UNL     1     158.063  47.189  16.810  1.00  0.00    -0.646 OA
ENDBRANCH   6  35
BRANCH   8  38
HETATM   38  C11 UNL     1     163.648  48.158  18.408  1.00  0.00     0.205 C 
BRANCH  38  39
HETATM   39  S2  UNL     1     163.999  46.488  18.035  1.00  0.00     0.228 S 
HETATM   40  O6  UNL     1     163.411  45.481  18.958  1.00  0.00    -0.206 OA
HETATM   41  O7  UNL     1     163.545  46.223  16.609  1.00  0.00    -0.206 OA
BRANCH  39  42
HETATM   42  N7  UNL     1     165.738  46.210  18.057  1.00  0.00    -0.328 N 
ATOM     43  H72 UNL     1     166.323  46.316  18.886  1.00  0.00     0.168 HD
ATOM     44  H71 UNL     1     166.064  45.930  17.132  1.00  0.00     0.168 HD
ENDBRANCH  39  42
ENDBRANCH  38  39
ENDBRANCH   8  38
TORSDOF 11
ENDMDL
MODEL 2
REMARK VINA RESULT: -6.319498455      2.644      7.431
REMARK  11 active torsions:
REMARK  status: ('A' for Active; 'I' for Inactive)
REMARK    1  A    between atoms: N1_1  and  C1_4 
REMARK    2  A    between atoms: C2_10  and  N4_11 
REMARK       I    between atoms: N4_11  and  C3_13 
REMARK    3  A    between atoms: C3_13  and  C4_15 
REMARK    4  A    between atoms: C4_15  and  C5_16 
REMARK    5  A    between atoms: C5_16  and  N5_17 
REMARK    6  A    between atoms: C5_16  and  O3_21 
REMARK    7  A    between atoms: C7_27  and  C8_28 
REMARK    8  A    between atoms: C10_32  and  C11_33 
REMARK    9  A    between atoms: C11_33  and  S2_34 
REMARK   10  A    between atoms: S2_34  and  N7_35 
REMARK   11  A    between atoms: C13_42  and  O9_43 
ROOT
HETATM    1  C4  UNL     1     161.471  47.052  18.220  1.00  0.00     0.172 C 
HETATM    2  S1  UNL     1     161.465  48.728  18.916  1.00  0.00    -0.100 SA
HETATM    3  C6  UNL     1     162.602  48.914  17.520  1.00  0.00     0.171 C 
HETATM    4  N6  UNL     1     163.830  49.545  17.869  1.00  0.00    -0.379 N 
ATOM      5  H6  UNL     1     164.106  49.684  18.841  1.00  0.00     0.156 HD
HETATM    6  C7  UNL     1     164.646  49.968  16.794  1.00  0.00     0.204 C 
HETATM    7  C9  UNL     1     164.017  50.062  15.488  1.00  0.00     0.020 C 
HETATM    8  C10 UNL     1     162.705  49.908  15.232  1.00  0.00     0.006 C 
HETATM    9  C12 UNL     1     161.899  49.583  16.396  1.00  0.00     0.197 C 
HETATM   10  O8  UNL     1     160.702  49.862  16.417  1.00  0.00    -0.289 OA
HETATM   11  C13 UNL     1     162.695  47.413  17.444  1.00  0.00     0.197 C 
ENDROOT
BRANCH   1  12
HETATM   12  C3  UNL     1     160.287  46.734  17.386  1.00  0.00     0.249 C 
HETATM   13  N4  UNL     1     159.067  47.395  17.467  1.00  0.00    -0.307 N 
ATOM     14  H4  UNL     1     159.141  48.404  17.342  1.00  0.00     0.170 HD
HETATM   15  O2  UNL     1     160.403  45.801  16.545  1.00  0.00    -0.271 OA
BRANCH  13  16
HETATM   16  C2  UNL     1     157.900  47.003  17.661  1.00  0.00     0.176 A 
HETATM   17  C1  UNL     1     157.425  45.742  17.881  1.00  0.00     0.167 A 
HETATM   18  N2  UNL     1     156.073  45.853  18.035  1.00  0.00    -0.222 N 
HETATM   19  O1  UNL     1     155.770  47.091  17.912  1.00  0.00    -0.153 OA
ATOM     20  H2  UNL     1     155.422  45.089  18.214  1.00  0.00     0.198 HD
HETATM   21  N3  UNL     1     156.823  47.820  17.689  1.00  0.00    -0.222 N 
ATOM     22  H3  UNL     1     156.835  48.832  17.558  1.00  0.00     0.198 HD
BRANCH  17  23
HETATM   23  N1  UNL     1     158.040  44.638  17.947  1.00  0.00    -0.381 N 
ATOM     24  H12 UNL     1     157.761  43.709  17.630  1.00  0.00     0.157 HD
ATOM     25  H11 UNL     1     158.968  44.539  18.360  1.00  0.00     0.157 HD
ENDBRANCH  17  23
ENDBRANCH  13  16
ENDBRANCH   1  12
BRANCH   1  26
HETATM   26  C5  UNL     1     161.648  46.043  19.315  1.00  0.00     0.347 C 
BRANCH  26  27
HETATM   27  N5  UNL     1     162.649  45.052  18.963  1.00  0.00    -0.051 N 
ATOM     28  H53 UNL     1     162.298  44.397  18.264  1.00  0.00     0.277 HD
ATOM     29  H52 UNL     1     163.410  45.464  18.423  1.00  0.00     0.277 HD
ATOM     30  H51 UNL     1     162.997  44.567  19.790  1.00  0.00     0.277 HD
ENDBRANCH  26  27
BRANCH  26  31
HETATM   31  O3  UNL     1     160.434  45.383  19.565  1.00  0.00    -0.368 OA
ATOM     32  H3  UNL     1     160.200  45.465  20.483  1.00  0.00     0.212 HD
ENDBRANCH  26  31
ENDBRANCH   1  26
BRANCH  11  33
HETATM   33  O9  UNL     1     162.774  47.008  16.132  1.00  0.00    -0.389 OA
ATOM     34  H9  UNL     1     163.050  47.644  15.483  1.00  0.00     0.210 HD
ENDBRANCH  11  33
BRANCH   6  35
HETATM   35  C8  UNL     1     165.906  49.195  16.654  1.00  0.00     0.200 C 
HETATM   36  O4  UNL     1     165.873  47.957  16.464  1.00  0.00    -0.646 OA
HETATM   37  O5  UNL     1     167.147  49.799  16.726  1.00  0.00    -0.646 OA
ENDBRANCH   6  35
BRANCH   8  38
HETATM   38  C11 UNL     1     162.237  50.038  13.857  1.00  0.00     0.205 C 
BRANCH  38  39
HETATM   39  S2  UNL     1     161.719  51.619  13.325  1.00  0.00     0.228 S 
HETATM   40  O6  UNL     1     162.804  52.562  12.944  1.00  0.00    -0.206 OA
HETATM   41  O7  UNL     1     160.756  51.429  12.165  1.00  0.00    -0.206 OA
BRANCH  39  42
HETATM   42  N7  UNL     1     160.804  52.422  14.598  1.00  0.00    -0.328 N 
ATOM     43  H72 UNL     1     161.065  52.410  15.584  1.00  0.00     0.168 HD
ATOM     44  H71 UNL     1     159.988  52.892  14.205  1.00  0.00     0.168 HD
ENDBRANCH  39  42
ENDBRANCH  38  39
ENDBRANCH   8  38
TORSDOF 11
ENDMDL
MODEL 3
REMARK VINA RESULT: -6.256043258      1.511      1.913
REMARK  11 active torsions:
REMARK  status: ('A' for Active; 'I' for Inactive)
REMARK    1  A    between atoms: N1_1  and  C1_4 
REMARK    2  A    between atoms: C2_10  and  N4_11 
REMARK       I    between atoms: N4_11  and  C3_13 
REMARK    3  A    between atoms: C3_13  and  C4_15 
REMARK    4  A    between atoms: C4_15  and  C5_16 
REMARK    5  A    between atoms: C5_16  and  N5_17 
REMARK    6  A    between atoms: C5_16  and  O3_21 
REMARK    7  A    between atoms: C7_27  and  C8_28 
REMARK    8  A    between atoms: C10_32  and  C11_33 
REMARK    9  A    between atoms: C11_33  and  S2_34 
REMARK   10  A    between atoms: S2_34  and  N7_35 
REMARK   11  A    between atoms: C13_42  and  O9_43 
ROOT
HETATM    1  C4  UNL     1     162.339  50.341  13.906  1.00  0.00     0.172 C 
HETATM    2  S1  UNL     1     162.134  51.733  15.052  1.00  0.00    -0.100 SA
HETATM    3  C6  UNL     1     161.504  50.351  16.036  1.00  0.00     0.171 C 
HETATM    4  N6  UNL     1     160.232  50.608  16.625  1.00  0.00    -0.379 N 
ATOM      5  H6  UNL     1     159.661  51.405  16.346  1.00  0.00     0.156 HD
HETATM    6  C7  UNL     1     159.805  49.696  17.618  1.00  0.00     0.204 C 
HETATM    7  C9  UNL     1     160.819  48.831  18.197  1.00  0.00     0.020 C 
HETATM    8  C10 UNL     1     162.143  48.906  17.970  1.00  0.00     0.006 C 
HETATM    9  C12 UNL     1     162.533  49.937  17.023  1.00  0.00     0.197 C 
HETATM   10  O8  UNL     1     163.662  50.421  17.065  1.00  0.00    -0.289 OA
HETATM   11  C13 UNL     1     161.429  49.534  14.774  1.00  0.00     0.197 C 
ENDROOT
BRANCH   1  12
HETATM   12  C3  UNL     1     163.725  49.821  13.820  1.00  0.00     0.249 C 
HETATM   13  N4  UNL     1     164.823  50.399  14.447  1.00  0.00    -0.307 N 
ATOM     14  H4  UNL     1     164.706  50.507  15.455  1.00  0.00     0.170 HD
HETATM   15  O2  UNL     1     163.913  48.782  13.131  1.00  0.00    -0.271 OA
BRANCH  13  16
HETATM   16  C2  UNL     1     165.920  50.812  14.027  1.00  0.00     0.176 A 
HETATM   17  C1  UNL     1     167.075  51.077  14.707  1.00  0.00     0.167 A 
HETATM   18  N2  UNL     1     167.984  51.506  13.783  1.00  0.00    -0.222 N 
HETATM   19  O1  UNL     1     167.409  51.497  12.640  1.00  0.00    -0.153 OA
ATOM     20  H2  UNL     1     168.948  51.784  13.970  1.00  0.00     0.198 HD
HETATM   21  N3  UNL     1     166.177  51.091  12.729  1.00  0.00    -0.222 N 
ATOM     22  H3  UNL     1     165.519  50.998  11.955  1.00  0.00     0.198 HD
BRANCH  17  23
HETATM   23  N1  UNL     1     167.338  50.974  15.940  1.00  0.00    -0.381 N 
ATOM     24  H12 UNL     1     166.712  50.866  16.739  1.00  0.00     0.157 HD
ATOM     25  H11 UNL     1     168.288  50.986  16.312  1.00  0.00     0.157 HD
ENDBRANCH  17  23
ENDBRANCH  13  16
ENDBRANCH   1  12
BRANCH   1  26
HETATM   26  C5  UNL     1     161.815  50.711  12.551  1.00  0.00     0.347 C 
BRANCH  26  27
HETATM   27  N5  UNL     1     162.865  51.262  11.712  1.00  0.00    -0.051 N 
ATOM     28  H53 UNL     1     163.039  52.244  11.927  1.00  0.00     0.277 HD
ATOM     29  H52 UNL     1     163.779  50.883  11.960  1.00  0.00     0.277 HD
ATOM     30  H51 UNL     1     162.659  51.125  10.723  1.00  0.00     0.277 HD
ENDBRANCH  26  27
BRANCH  26  31
HETATM   31  O3  UNL     1     160.792  51.665  12.671  1.00  0.00    -0.368 OA
ATOM     32  H3  UNL     1     160.886  52.145  13.486  1.00  0.00     0.212 HD
ENDBRANCH  26  31
ENDBRANCH   1  26
BRANCH  11  33
HETATM   33  O9  UNL     1     161.770  48.227  15.033  1.00  0.00    -0.389 OA
ATOM     34  H9  UNL     1     161.348  47.790  15.763  1.00  0.00     0.210 HD
ENDBRANCH  11  33
BRANCH   6  35
HETATM   35  C8  UNL     1     158.651  48.856  17.209  1.00  0.00     0.200 C 
HETATM   36  O4  UNL     1     157.540  48.988  17.773  1.00  0.00    -0.646 OA
HETATM   37  O5  UNL     1     158.753  47.910  16.207  1.00  0.00    -0.646 OA
ENDBRANCH   6  35
BRANCH   8  38
HETATM   38  C11 UNL     1     163.026  47.958  18.637  1.00  0.00     0.205 C 
BRANCH  38  39
HETATM   39  S2  UNL     1     164.014  46.926  17.631  1.00  0.00     0.228 S 
HETATM   40  O6  UNL     1     164.752  45.846  18.338  1.00  0.00    -0.206 OA
HETATM   41  O7  UNL     1     163.122  46.335  16.552  1.00  0.00    -0.206 OA
BRANCH  39  42
HETATM   42  N7  UNL     1     165.235  47.880  16.792  1.00  0.00    -0.328 N 
ATOM     43  H72 UNL     1     165.891  47.496  16.112  1.00  0.00     0.168 HD
ATOM     44  H71 UNL     1     165.185  48.855  17.085  1.00  0.00     0.168 HD
ENDBRANCH  39  42
ENDBRANCH  38  39
ENDBRANCH   8  38
TORSDOF 11
ENDMDL
MODEL 4
REMARK VINA RESULT: -6.211352481      2.465      7.027
REMARK  11 active torsions:
REMARK  status: ('A' for Active; 'I' for Inactive)
REMARK    1  A    between atoms: N1_1  and  C1_4 
REMARK    2  A    between atoms: C2_10  and  N4_11 
REMARK       I    between atoms: N4_11  and  C3_13 
REMARK    3  A    between atoms: C3_13  and  C4_15 
REMARK    4  A    between atoms: C4_15  and  C5_16 
REMARK    5  A    between atoms: C5_16  and  N5_17 
REMARK    6  A    between atoms: C5_16  and  O3_21 
REMARK    7  A    between atoms: C7_27  and  C8_28 
REMARK    8  A    between atoms: C10_32  and  C11_33 
REMARK    9  A    between atoms: C11_33  and  S2_34 
REMARK   10  A    between atoms: S2_34  and  N7_35 
REMARK   11  A    between atoms: C13_42  and  O9_43 
ROOT
HETATM    1  C4  UNL     1     161.602  47.675  17.532  1.00  0.00     0.172 C 
HETATM    2  S1  UNL     1     161.944  49.000  18.724  1.00  0.00    -0.100 SA
HETATM    3  C6  UNL     1     162.984  49.486  17.324  1.00  0.00     0.171 C 
HETATM    4  N6  UNL     1     164.328  49.782  17.694  1.00  0.00    -0.379 N 
ATOM      5  H6  UNL     1     164.698  49.544  18.614  1.00  0.00     0.156 HD
HETATM    6  C7  UNL     1     165.121  50.425  16.714  1.00  0.00     0.204 C 
HETATM    7  C9  UNL     1     164.419  51.041  15.601  1.00  0.00     0.020 C 
HETATM    8  C10 UNL     1     163.085  51.169  15.484  1.00  0.00     0.006 C 
HETATM    9  C12 UNL     1     162.326  50.587  16.577  1.00  0.00     0.197 C 
HETATM   10  O8  UNL     1     161.202  51.007  16.844  1.00  0.00    -0.289 OA
HETATM   11  C13 UNL     1     162.807  48.101  16.760  1.00  0.00     0.197 C 
ENDROOT
BRANCH   1  12
HETATM   12  C3  UNL     1     160.319  47.826  16.803  1.00  0.00     0.249 C 
HETATM   13  N4  UNL     1     159.278  48.655  17.206  1.00  0.00    -0.307 N 
ATOM     14  H4  UNL     1     159.558  49.627  17.335  1.00  0.00     0.170 HD
HETATM   15  O2  UNL     1     160.171  47.157  15.745  1.00  0.00    -0.271 OA
BRANCH  13  16
HETATM   16  C2  UNL     1     158.072  48.450  17.441  1.00  0.00     0.176 A 
HETATM   17  C1  UNL     1     157.367  47.280  17.448  1.00  0.00     0.167 A 
HETATM   18  N2  UNL     1     156.079  47.600  17.767  1.00  0.00    -0.222 N 
HETATM   19  O1  UNL     1     156.025  48.868  17.935  1.00  0.00    -0.153 OA
ATOM     20  H2  UNL     1     155.300  46.948  17.854  1.00  0.00     0.198 HD
HETATM   21  N3  UNL     1     157.186  49.423  17.753  1.00  0.00    -0.222 N 
ATOM     22  H3  UNL     1     157.394  50.419  17.833  1.00  0.00     0.198 HD
BRANCH  17  23
HETATM   23  N1  UNL     1     157.750  46.096  17.218  1.00  0.00    -0.381 N 
ATOM     24  H12 UNL     1     158.121  45.390  17.854  1.00  0.00     0.157 HD
ATOM     25  H11 UNL     1     157.729  45.672  16.290  1.00  0.00     0.157 HD
ENDBRANCH  17  23
ENDBRANCH  13  16
ENDBRANCH   1  12
BRANCH   1  26
HETATM   26  C5  UNL     1     161.682  46.341  18.213  1.00  0.00     0.347 C 
BRANCH  26  27
HETATM   27  N5  UNL     1     162.410  45.379  17.404  1.00  0.00    -0.051 N 
ATOM     28  H53 UNL     1     163.383  45.302  17.701  1.00  0.00     0.277 HD
ATOM     29  H52 UNL     1     162.110  44.424  17.598  1.00  0.00     0.277 HD
ATOM     30  H51 UNL     1     162.338  45.600  16.411  1.00  0.00     0.277 HD
ENDBRANCH  26  27
BRANCH  26  31
HETATM   31  O3  UNL     1     160.391  45.840  18.450  1.00  0.00    -0.368 OA
ATOM     32  H3  UNL     1     160.439  45.044  18.967  1.00  0.00     0.212 HD
ENDBRANCH  26  31
ENDBRANCH   1  26
BRANCH  11  33
HETATM   33  O9  UNL     1     162.712  48.156  15.389  1.00  0.00    -0.389 OA
ATOM     34  H9  UNL     1     162.946  47.381  14.892  1.00  0.00     0.210 HD
ENDBRANCH  11  33
BRANCH   6  35
HETATM   35  C8  UNL     1     166.210  49.576  16.169  1.00  0.00     0.200 C 
HETATM   36  O4  UNL     1     165.958  48.685  15.325  1.00  0.00    -0.646 OA
HETATM   37  O5  UNL     1     167.525  49.731  16.564  1.00  0.00    -0.646 OA
ENDBRANCH   6  35
BRANCH   8  38
HETATM   38  C11 UNL     1     162.542  51.820  14.297  1.00  0.00     0.205 C 
BRANCH  38  39
HETATM   39  S2  UNL     1     161.806  50.802  13.082  1.00  0.00     0.228 S 
HETATM   40  O6  UNL     1     160.908  51.492  12.118  1.00  0.00    -0.206 OA
HETATM   41  O7  UNL     1     162.920  50.081  12.340  1.00  0.00    -0.206 OA
BRANCH  39  42
HETATM   42  N7  UNL     1     160.831  49.550  13.844  1.00  0.00    -0.328 N 
ATOM     43  H72 UNL     1     161.129  49.008  14.655  1.00  0.00     0.168 HD
ATOM     44  H71 UNL     1     159.939  49.452  13.360  1.00  0.00     0.168 HD
ENDBRANCH  39  42
ENDBRANCH  38  39
ENDBRANCH   8  38
TORSDOF 11
ENDMDL
MODEL 5
REMARK VINA RESULT: -6.205586163      1.630      2.034
REMARK  11 active torsions:
REMARK  status: ('A' for Active; 'I' for Inactive)
REMARK    1  A    between atoms: N1_1  and  C1_4 
REMARK    2  A    between atoms: C2_10  and  N4_11 
REMARK       I    between atoms: N4_11  and  C3_13 
REMARK    3  A    between atoms: C3_13  and  C4_15 
REMARK    4  A    between atoms: C4_15  and  C5_16 
REMARK    5  A    between atoms: C5_16  and  N5_17 
REMARK    6  A    between atoms: C5_16  and  O3_21 
REMARK    7  A    between atoms: C7_27  and  C8_28 
REMARK    8  A    between atoms: C10_32  and  C11_33 
REMARK    9  A    between atoms: C11_33  and  S2_34 
REMARK   10  A    between atoms: S2_34  and  N7_35 
REMARK   11  A    between atoms: C13_42  and  O9_43 
ROOT
HETATM    1  C4  UNL     1     162.382  50.464  13.919  1.00  0.00     0.172 C 
HETATM    2  S1  UNL     1     162.236  51.810  15.128  1.00  0.00    -0.100 SA
HETATM    3  C6  UNL     1     161.568  50.407  16.057  1.00  0.00     0.171 C 
HETATM    4  N6  UNL     1     160.312  50.680  16.671  1.00  0.00    -0.379 N 
ATOM      5  H6  UNL     1     159.766  51.508  16.434  1.00  0.00     0.156 HD
HETATM    6  C7  UNL     1     159.863  49.739  17.627  1.00  0.00     0.204 C 
HETATM    7  C9  UNL     1     160.852  48.816  18.155  1.00  0.00     0.020 C 
HETATM    8  C10 UNL     1     162.175  48.856  17.917  1.00  0.00     0.006 C 
HETATM    9  C12 UNL     1     162.592  49.914  17.013  1.00  0.00     0.197 C 
HETATM   10  O8  UNL     1     163.738  50.356  17.064  1.00  0.00    -0.289 OA
HETATM   11  C13 UNL     1     161.453  49.650  14.760  1.00  0.00     0.197 C 
ENDROOT
BRANCH   1  12
HETATM   12  C3  UNL     1     163.748  49.901  13.794  1.00  0.00     0.249 C 
HETATM   13  N4  UNL     1     164.870  50.408  14.441  1.00  0.00    -0.307 N 
ATOM     14  H4  UNL     1     164.764  50.467  15.454  1.00  0.00     0.170 HD
HETATM   15  O2  UNL     1     163.896  48.893  13.051  1.00  0.00    -0.271 OA
BRANCH  13  16
HETATM   16  C2  UNL     1     165.979  50.803  14.034  1.00  0.00     0.176 A 
HETATM   17  C1  UNL     1     167.134  51.037  14.725  1.00  0.00     0.167 A 
HETATM   18  N2  UNL     1     168.058  51.459  13.812  1.00  0.00    -0.222 N 
HETATM   19  O1  UNL     1     167.490  51.475  12.665  1.00  0.00    -0.153 OA
ATOM     20  H2  UNL     1     169.025  51.715  14.009  1.00  0.00     0.198 HD
HETATM   21  N3  UNL     1     166.250  51.093  12.741  1.00  0.00    -0.222 N 
ATOM     22  H3  UNL     1     165.596  51.022  11.961  1.00  0.00     0.198 HD
BRANCH  17  23
HETATM   23  N1  UNL     1     167.385  50.914  15.959  1.00  0.00    -0.381 N 
ATOM     24  H12 UNL     1     167.000  50.267  16.646  1.00  0.00     0.157 HD
ATOM     25  H11 UNL     1     168.062  51.496  16.452  1.00  0.00     0.157 HD
ENDBRANCH  17  23
ENDBRANCH  13  16
ENDBRANCH   1  12
BRANCH   1  26
HETATM   26  C5  UNL     1     161.858  50.912  12.587  1.00  0.00     0.347 C 
BRANCH  26  27
HETATM   27  N5  UNL     1     162.880  51.611  11.828  1.00  0.00    -0.051 N 
ATOM     28  H53 UNL     1     162.855  51.352  10.841  1.00  0.00     0.277 HD
ATOM     29  H52 UNL     1     162.664  52.604  11.735  1.00  0.00     0.277 HD
ATOM     30  H51 UNL     1     163.806  51.466  12.230  1.00  0.00     0.277 HD
ENDBRANCH  26  27
BRANCH  26  31
HETATM   31  O3  UNL     1     160.763  51.773  12.763  1.00  0.00    -0.368 OA
ATOM     32  H3  UNL     1     161.043  52.678  12.693  1.00  0.00     0.212 HD
ENDBRANCH  26  31
ENDBRANCH   1  26
BRANCH  11  33
HETATM   33  O9  UNL     1     161.752  48.322  14.957  1.00  0.00    -0.389 OA
ATOM     34  H9  UNL     1     161.910  47.781  14.192  1.00  0.00     0.210 HD
ENDBRANCH  11  33
BRANCH   6  35
HETATM   35  C8  UNL     1     158.677  48.959  17.194  1.00  0.00     0.200 C 
HETATM   36  O4  UNL     1     157.554  49.176  17.705  1.00  0.00    -0.646 OA
HETATM   37  O5  UNL     1     158.761  47.978  16.225  1.00  0.00    -0.646 OA
ENDBRANCH   6  35
BRANCH   8  38
HETATM   38  C11 UNL     1     163.032  47.848  18.532  1.00  0.00     0.205 C 
BRANCH  38  39
HETATM   39  S2  UNL     1     162.980  46.231  17.872  1.00  0.00     0.228 S 
HETATM   40  O6  UNL     1     162.050  46.029  16.730  1.00  0.00    -0.206 OA
HETATM   41  O7  UNL     1     164.395  45.844  17.474  1.00  0.00    -0.206 OA
BRANCH  39  42
HETATM   42  N7  UNL     1     162.484  45.082  19.111  1.00  0.00    -0.328 N 
ATOM     43  H72 UNL     1     161.830  45.300  19.863  1.00  0.00     0.168 HD
ATOM     44  H71 UNL     1     162.942  44.183  18.964  1.00  0.00     0.168 HD
ENDBRANCH  39  42
ENDBRANCH  38  39
ENDBRANCH   8  38
TORSDOF 11
ENDMDL
