MODEL 1
REMARK VINA RESULT: -6.243576390      0.000      0.000
REMARK  7 active torsions:
REMARK  status: ('A' for Active; 'I' for Inactive)
REMARK    1  A    between atoms: N1_1  and  C1_4 
REMARK    2  A    between atoms: C2_7  and  N3_8 
REMARK    3  A    between atoms: C4_10  and  N4_11 
REMARK    4  A    between atoms: N5_16  and  N6_17 
REMARK    5  A    between atoms: N7_19  and  C6_21 
REMARK    6  A    between atoms: N9_27  and  N10_28 
REMARK    7  A    between atoms: C10_35  and  N13_36 
ROOT
HETATM    1  N3  UNL     1      28.848   3.565   5.397  1.00  0.00    -0.104 N 
HETATM    2  C3  UNL     1      29.228   4.345   4.256  1.00  0.00     0.204 C 
HETATM    3  C4  UNL     1      28.348   3.824   3.157  1.00  0.00     0.225 C 
HETATM    4  C5  UNL     1      27.053   3.562   3.917  1.00  0.00     0.206 C 
HETATM    5  N5  UNL     1      27.615   2.987   5.138  1.00  0.00    -0.201 N 
ENDROOT
BRANCH   1   6
HETATM    6  C2  UNL     1      29.633   3.423   6.590  1.00  0.00     0.703 A 
HETATM    7  N2  UNL     1      29.133   3.613   7.822  1.00  0.00    -0.173 N 
HETATM    8  C1  UNL     1      29.889   3.469   8.937  1.00  0.00     0.151 A 
ATOM      9  H2  UNL     1      28.152   3.873   7.921  1.00  0.00     0.186 HD
HETATM   10  C10 UNL     1      31.205   3.119   8.802  1.00  0.00     0.188 A 
HETATM   11  C9  UNL     1      31.725   2.921   7.522  1.00  0.00     0.168 A 
HETATM   12  N11 UNL     1      30.927   3.079   6.453  1.00  0.00    -0.174 N 
HETATM   13  N12 UNL     1      33.084   2.550   7.338  1.00  0.00    -0.079 NA
ATOM     14  H11 UNL     1      31.309   2.934   5.519  1.00  0.00     0.185 HD
BRANCH   8  15
HETATM   15  N1  UNL     1      29.381   3.659  10.109  1.00  0.00    -0.383 N 
ATOM     16  H12 UNL     1      28.857   2.915  10.569  1.00  0.00     0.157 HD
ATOM     17  H11 UNL     1      29.496   4.551  10.589  1.00  0.00     0.157 HD
ENDBRANCH   8  15
BRANCH  10  18
HETATM   18  N13 UNL     1      32.074   2.953   9.910  1.00  0.00    -0.108 N 
HETATM   19  O2  UNL     1      32.559   3.975  10.428  1.00  0.00    -0.532 OA
HETATM   20  O3  UNL     1      32.396   1.730  10.433  1.00  0.00    -0.532 OA
ENDBRANCH  10  18
ENDBRANCH   1   6
BRANCH   5  21
HETATM   21  N6  UNL     1      26.977   1.990   5.912  1.00  0.00    -0.224 N 
HETATM   22  N7  UNL     1      25.905   2.271   6.532  1.00  0.00    -0.267 N 
ATOM     23  H7  UNL     1      25.530   3.216   6.456  1.00  0.00     0.190 HD
ATOM     24  H6  UNL     1      27.376   1.053   5.972  1.00  0.00     0.210 HD
BRANCH  22  25
HETATM   25  C6  UNL     1      25.211   1.330   7.322  1.00  0.00     0.163 A 
HETATM   26  C7  UNL     1      25.655   0.687   8.481  1.00  0.00     0.144 A 
HETATM   27  N8  UNL     1      24.683  -0.137   8.924  1.00  0.00    -0.314 N 
HETATM   28  C8  UNL     1      23.647  -0.030   8.082  1.00  0.00     0.346 A 
ATOM     29  H8  UNL     1      24.729  -0.733   9.750  1.00  0.00     0.170 HD
HETATM   30  O1  UNL     1      22.554  -0.672   8.200  1.00  0.00    -0.245 OA
HETATM   31  N9  UNL     1      23.965   0.855   7.117  1.00  0.00    -0.193 N 
BRANCH  31  32
HETATM   32  N10 UNL     1      23.159   1.239   6.068  1.00  0.00    -0.333 N 
ATOM     33 2H10 UNL     1      23.200   0.878   5.115  1.00  0.00     0.177 HD
ATOM     34 1H10 UNL     1      22.421   1.939   6.144  1.00  0.00     0.177 HD
ENDBRANCH  31  32
ENDBRANCH  22  25
ENDBRANCH   5  21
BRANCH   3  35
HETATM   35  N4  UNL     1      28.148   4.793   2.098  1.00  0.00    -0.072 N 
ATOM     36  H43 UNL     1      28.774   5.590   2.208  1.00  0.00     0.274 HD
ATOM     37  H42 UNL     1      28.491   4.437   1.206  1.00  0.00     0.274 HD
ATOM     38  H41 UNL     1      27.177   5.096   2.022  1.00  0.00     0.274 HD
ENDBRANCH   3  35
TORSDOF 7
ENDMDL
MODEL 2
REMARK VINA RESULT: -6.139832020      4.079      8.229
REMARK  7 active torsions:
REMARK  status: ('A' for Active; 'I' for Inactive)
REMARK    1  A    between atoms: N1_1  and  C1_4 
REMARK    2  A    between atoms: C2_7  and  N3_8 
REMARK    3  A    between atoms: C4_10  and  N4_11 
REMARK    4  A    between atoms: N5_16  and  N6_17 
REMARK    5  A    between atoms: N7_19  and  C6_21 
REMARK    6  A    between atoms: N9_27  and  N10_28 
REMARK    7  A    between atoms: C10_35  and  N13_36 
ROOT
HETATM    1  N3  UNL     1      34.274   4.378   8.829  1.00  0.00    -0.104 N 
HETATM    2  C3  UNL     1      34.722   5.739   8.896  1.00  0.00     0.204 C 
HETATM    3  C4  UNL     1      36.070   5.641   9.547  1.00  0.00     0.225 C 
HETATM    4  C5  UNL     1      36.598   4.348   8.935  1.00  0.00     0.206 C 
HETATM    5  N5  UNL     1      35.374   3.550   8.991  1.00  0.00    -0.201 N 
ENDROOT
BRANCH   1   6
HETATM    6  C2  UNL     1      32.912   3.973   8.629  1.00  0.00     0.703 A 
HETATM    7  N2  UNL     1      32.121   3.547   9.628  1.00  0.00    -0.173 N 
HETATM    8  C1  UNL     1      30.836   3.174   9.420  1.00  0.00     0.151 A 
ATOM      9  H2  UNL     1      32.501   3.504  10.574  1.00  0.00     0.186 HD
HETATM   10  C10 UNL     1      30.327   3.233   8.151  1.00  0.00     0.188 A 
HETATM   11  C9  UNL     1      31.149   3.676   7.113  1.00  0.00     0.168 A 
HETATM   12  N11 UNL     1      32.416   4.033   7.380  1.00  0.00    -0.174 N 
HETATM   13  N12 UNL     1      30.659   3.759   5.782  1.00  0.00    -0.079 NA
ATOM     14  H11 UNL     1      33.014   4.356   6.620  1.00  0.00     0.185 HD
BRANCH   8  15
HETATM   15  N1  UNL     1      30.099   2.767  10.400  1.00  0.00    -0.383 N 
ATOM     16  H12 UNL     1      30.057   3.300  11.268  1.00  0.00     0.157 HD
ATOM     17  H11 UNL     1      29.551   1.911  10.320  1.00  0.00     0.157 HD
ENDBRANCH   8  15
BRANCH  10  18
HETATM   18  N13 UNL     1      28.997   2.855   7.837  1.00  0.00    -0.108 N 
HETATM   19  O2  UNL     1      28.755   1.644   7.690  1.00  0.00    -0.532 OA
HETATM   20  O3  UNL     1      27.977   3.756   7.695  1.00  0.00    -0.532 OA
ENDBRANCH  10  18
ENDBRANCH   1   6
BRANCH   5  21
HETATM   21  N6  UNL     1      35.347   2.150   9.187  1.00  0.00    -0.224 N 
HETATM   22  N7  UNL     1      35.033   1.684  10.326  1.00  0.00    -0.267 N 
ATOM     23  H7  UNL     1      34.808   2.338  11.076  1.00  0.00     0.190 HD
ATOM     24  H6  UNL     1      35.579   1.519   8.419  1.00  0.00     0.210 HD
BRANCH  22  25
HETATM   25  C6  UNL     1      34.983   0.301  10.598  1.00  0.00     0.163 A 
HETATM   26  C7  UNL     1      35.124  -0.758   9.696  1.00  0.00     0.144 A 
HETATM   27  N8  UNL     1      35.008  -1.923  10.366  1.00  0.00    -0.314 N 
HETATM   28  C8  UNL     1      34.799  -1.628  11.656  1.00  0.00     0.346 A 
ATOM     29  H8  UNL     1      35.067  -2.858   9.963  1.00  0.00     0.170 HD
HETATM   30  O1  UNL     1      34.644  -2.494  12.577  1.00  0.00    -0.245 OA
HETATM   31  N9  UNL     1      34.786  -0.288  11.795  1.00  0.00    -0.193 N 
BRANCH  31  32
HETATM   32  N10 UNL     1      34.602   0.405  12.972  1.00  0.00    -0.333 N 
ATOM     33 2H10 UNL     1      35.339   0.794  13.562  1.00  0.00     0.177 HD
ATOM     34 1H10 UNL     1      33.688   0.604  13.379  1.00  0.00     0.177 HD
ENDBRANCH  31  32
ENDBRANCH  22  25
ENDBRANCH   5  21
BRANCH   3  35
HETATM   35  N4  UNL     1      36.927   6.763   9.222  1.00  0.00    -0.072 N 
ATOM     36  H43 UNL     1      36.458   7.413   8.592  1.00  0.00     0.274 HD
ATOM     37  H42 UNL     1      37.050   7.376  10.028  1.00  0.00     0.274 HD
ATOM     38  H41 UNL     1      37.829   6.471   8.844  1.00  0.00     0.274 HD
ENDBRANCH   3  35
TORSDOF 7
ENDMDL
MODEL 3
REMARK VINA RESULT: -6.102877797      5.750      8.738
REMARK  7 active torsions:
REMARK  status: ('A' for Active; 'I' for Inactive)
REMARK    1  A    between atoms: N1_1  and  C1_4 
REMARK    2  A    between atoms: C2_7  and  N3_8 
REMARK    3  A    between atoms: C4_10  and  N4_11 
REMARK    4  A    between atoms: N5_16  and  N6_17 
REMARK    5  A    between atoms: N7_19  and  C6_21 
REMARK    6  A    between atoms: N9_27  and  N10_28 
REMARK    7  A    between atoms: C10_35  and  N13_36 
ROOT
HETATM    1  N3  UNL     1      33.672   3.495   9.076  1.00  0.00    -0.104 N 
HETATM    2  C3  UNL     1      32.618   3.884   8.186  1.00  0.00     0.204 C 
HETATM    3  C4  UNL     1      31.517   2.910   8.486  1.00  0.00     0.225 C 
HETATM    4  C5  UNL     1      31.667   2.753   9.996  1.00  0.00     0.206 C 
HETATM    5  N5  UNL     1      33.126   2.706  10.078  1.00  0.00    -0.201 N 
ENDROOT
BRANCH   1   6
HETATM    6  C2  UNL     1      35.049   3.871   8.930  1.00  0.00     0.703 A 
HETATM    7  N2  UNL     1      35.639   4.802   9.697  1.00  0.00    -0.173 N 
HETATM    8  C1  UNL     1      36.942   5.140   9.547  1.00  0.00     0.151 A 
ATOM      9  H2  UNL     1      35.087   5.270  10.417  1.00  0.00     0.186 HD
HETATM   10  C10 UNL     1      37.681   4.511   8.581  1.00  0.00     0.188 A 
HETATM   11  C9  UNL     1      37.068   3.543   7.784  1.00  0.00     0.168 A 
HETATM   12  N11 UNL     1      35.771   3.250   7.979  1.00  0.00    -0.174 N 
HETATM   13  N12 UNL     1      37.800   2.862   6.775  1.00  0.00    -0.079 NA
ATOM     14  H11 UNL     1      35.326   2.543   7.396  1.00  0.00     0.185 HD
BRANCH   8  15
HETATM   15  N1  UNL     1      37.482   6.039  10.299  1.00  0.00    -0.383 N 
ATOM     16  H12 UNL     1      37.641   6.981   9.942  1.00  0.00     0.157 HD
ATOM     17  H11 UNL     1      37.757   5.823  11.257  1.00  0.00     0.157 HD
ENDBRANCH   8  15
BRANCH  10  18
HETATM   18  N13 UNL     1      39.047   4.804   8.347  1.00  0.00    -0.108 N 
HETATM   19  O2  UNL     1      39.319   5.811   7.669  1.00  0.00    -0.532 OA
HETATM   20  O3  UNL     1      40.072   4.037   8.831  1.00  0.00    -0.532 OA
ENDBRANCH  10  18
ENDBRANCH   1   6
BRANCH   5  21
HETATM   21  N6  UNL     1      33.843   1.956  11.038  1.00  0.00    -0.224 N 
HETATM   22  N7  UNL     1      33.775   0.688  11.021  1.00  0.00    -0.267 N 
ATOM     23  H7  UNL     1      33.199   0.240  10.308  1.00  0.00     0.190 HD
ATOM     24  H6  UNL     1      34.411   2.431  11.741  1.00  0.00     0.210 HD
BRANCH  22  25
HETATM   25  C6  UNL     1      34.463  -0.127  11.944  1.00  0.00     0.163 A 
HETATM   26  C7  UNL     1      34.618   0.075  13.319  1.00  0.00     0.144 A 
HETATM   27  N8  UNL     1      35.347  -0.938  13.830  1.00  0.00    -0.314 N 
HETATM   28  C8  UNL     1      35.651  -1.767  12.822  1.00  0.00     0.346 A 
ATOM     29  H8  UNL     1      35.617  -1.053  14.807  1.00  0.00     0.170 HD
HETATM   30  O1  UNL     1      36.333  -2.834  12.948  1.00  0.00    -0.245 OA
HETATM   31  N9  UNL     1      35.116  -1.278  11.686  1.00  0.00    -0.193 N 
BRANCH  31  32
HETATM   32  N10 UNL     1      35.206  -1.847  10.435  1.00  0.00    -0.333 N 
ATOM     33 2H10 UNL     1      34.693  -2.667  10.109  1.00  0.00     0.177 HD
ATOM     34 1H10 UNL     1      35.810  -1.496   9.691  1.00  0.00     0.177 HD
ENDBRANCH  31  32
ENDBRANCH  22  25
ENDBRANCH   5  21
BRANCH   3  35
HETATM   35  N4  UNL     1      30.207   3.426   8.141  1.00  0.00    -0.072 N 
ATOM     36  H43 UNL     1      29.640   3.576   8.975  1.00  0.00     0.274 HD
ATOM     37  H42 UNL     1      30.268   4.389   7.809  1.00  0.00     0.274 HD
ATOM     38  H41 UNL     1      29.719   2.837   7.466  1.00  0.00     0.274 HD
ENDBRANCH   3  35
TORSDOF 7
ENDMDL
MODEL 4
REMARK VINA RESULT: -6.065511402      3.160      6.981
REMARK  7 active torsions:
REMARK  status: ('A' for Active; 'I' for Inactive)
REMARK    1  A    between atoms: N1_1  and  C1_4 
REMARK    2  A    between atoms: C2_7  and  N3_8 
REMARK    3  A    between atoms: C4_10  and  N4_11 
REMARK    4  A    between atoms: N5_16  and  N6_17 
REMARK    5  A    between atoms: N7_19  and  C6_21 
REMARK    6  A    between atoms: N9_27  and  N10_28 
REMARK    7  A    between atoms: C10_35  and  N13_36 
ROOT
HETATM    1  N3  UNL     1      25.870   1.243   6.161  1.00  0.00    -0.104 N 
HETATM    2  C3  UNL     1      24.522   0.762   6.259  1.00  0.00     0.204 C 
HETATM    3  C4  UNL     1      24.543  -0.115   7.476  1.00  0.00     0.225 C 
HETATM    4  C5  UNL     1      25.492   0.661   8.382  1.00  0.00     0.206 C 
HETATM    5  N5  UNL     1      26.489   1.055   7.388  1.00  0.00    -0.201 N 
ENDROOT
BRANCH   1   6
HETATM    6  C2  UNL     1      26.452   1.815   4.981  1.00  0.00     0.703 A 
HETATM    7  N2  UNL     1      26.278   1.297   3.754  1.00  0.00    -0.173 N 
HETATM    8  C1  UNL     1      26.832   1.855   2.651  1.00  0.00     0.151 A 
ATOM      9  H2  UNL     1      25.710   0.456   3.650  1.00  0.00     0.186 HD
HETATM   10  C10 UNL     1      27.593   2.984   2.792  1.00  0.00     0.188 A 
HETATM   11  C9  UNL     1      27.773   3.523   4.067  1.00  0.00     0.168 A 
HETATM   12  N11 UNL     1      27.199   2.925   5.124  1.00  0.00    -0.174 N 
HETATM   13  N12 UNL     1      28.550   4.697   4.257  1.00  0.00    -0.079 NA
ATOM     14  H11 UNL     1      27.332   3.321   6.054  1.00  0.00     0.185 HD
BRANCH   8  15
HETATM   15  N1  UNL     1      26.648   1.333   1.484  1.00  0.00    -0.383 N 
ATOM     16  H12 UNL     1      26.993   0.396   1.279  1.00  0.00     0.157 HD
ATOM     17  H11 UNL     1      26.158   1.850   0.753  1.00  0.00     0.157 HD
ENDBRANCH   8  15
BRANCH  10  18
HETATM   18  N13 UNL     1      28.217   3.631   1.697  1.00  0.00    -0.108 N 
HETATM   19  O2  UNL     1      29.308   3.184   1.301  1.00  0.00    -0.532 OA
HETATM   20  O3  UNL     1      27.676   4.714   1.060  1.00  0.00    -0.532 OA
ENDBRANCH  10  18
ENDBRANCH   1   6
BRANCH   5  21
HETATM   21  N6  UNL     1      27.867   1.208   7.663  1.00  0.00    -0.224 N 
HETATM   22  N7  UNL     1      28.309   2.339   8.035  1.00  0.00    -0.267 N 
ATOM     23  H7  UNL     1      27.652   3.115   8.125  1.00  0.00     0.190 HD
ATOM     24  H6  UNL     1      28.501   0.415   7.564  1.00  0.00     0.210 HD
BRANCH  22  25
HETATM   25  C6  UNL     1      29.670   2.568   8.330  1.00  0.00     0.163 A 
HETATM   26  C7  UNL     1      30.784   2.241   7.552  1.00  0.00     0.144 A 
HETATM   27  N8  UNL     1      31.900   2.632   8.200  1.00  0.00    -0.314 N 
HETATM   28  C8  UNL     1      31.521   3.192   9.357  1.00  0.00     0.346 A 
ATOM     29  H8  UNL     1      32.859   2.521   7.870  1.00  0.00     0.170 HD
HETATM   30  O1  UNL     1      32.323   3.673  10.221  1.00  0.00    -0.245 OA
HETATM   31  N9  UNL     1      30.176   3.154   9.433  1.00  0.00    -0.193 N 
BRANCH  31  32
HETATM   32  N10 UNL     1      29.408   3.636  10.470  1.00  0.00    -0.333 N 
ATOM     33 2H10 UNL     1      28.407   3.832  10.436  1.00  0.00     0.177 HD
ATOM     34 1H10 UNL     1      29.773   3.850  11.398  1.00  0.00     0.177 HD
ENDBRANCH  31  32
ENDBRANCH  22  25
ENDBRANCH   5  21
BRANCH   3  35
HETATM   35  N4  UNL     1      23.234  -0.255   8.083  1.00  0.00    -0.072 N 
ATOM     36  H43 UNL     1      23.249   0.042   9.059  1.00  0.00     0.274 HD
ATOM     37  H42 UNL     1      22.582   0.436   7.712  1.00  0.00     0.274 HD
ATOM     38  H41 UNL     1      22.858  -1.199   7.992  1.00  0.00     0.274 HD
ENDBRANCH   3  35
TORSDOF 7
ENDMDL
MODEL 5
REMARK VINA RESULT: -6.063504953      0.465      1.761
REMARK  7 active torsions:
REMARK  status: ('A' for Active; 'I' for Inactive)
REMARK    1  A    between atoms: N1_1  and  C1_4 
REMARK    2  A    between atoms: C2_7  and  N3_8 
REMARK    3  A    between atoms: C4_10  and  N4_11 
REMARK    4  A    between atoms: N5_16  and  N6_17 
REMARK    5  A    between atoms: N7_19  and  C6_21 
REMARK    6  A    between atoms: N9_27  and  N10_28 
REMARK    7  A    between atoms: C10_35  and  N13_36 
ROOT
HETATM    1  N3  UNL     1      28.656   3.365   5.009  1.00  0.00    -0.104 N 
HETATM    2  C3  UNL     1      29.028   4.096   3.833  1.00  0.00     0.204 C 
HETATM    3  C4  UNL     1      28.122   3.549   2.770  1.00  0.00     0.225 C 
HETATM    4  C5  UNL     1      26.835   3.335   3.560  1.00  0.00     0.206 C 
HETATM    5  N5  UNL     1      27.410   2.797   4.793  1.00  0.00    -0.201 N 
ENDROOT
BRANCH   1   6
HETATM    6  C2  UNL     1      29.459   3.256   6.193  1.00  0.00     0.703 A 
HETATM    7  N2  UNL     1      30.708   2.761   6.188  1.00  0.00    -0.173 N 
HETATM    8  C1  UNL     1      31.452   2.671   7.316  1.00  0.00     0.151 A 
ATOM      9  H2  UNL     1      31.109   2.443   5.305  1.00  0.00     0.186 HD
HETATM   10  C10 UNL     1      30.914   3.098   8.500  1.00  0.00     0.188 A 
HETATM   11  C9  UNL     1      29.616   3.613   8.505  1.00  0.00     0.168 A 
HETATM   12  N11 UNL     1      28.926   3.678   7.354  1.00  0.00    -0.174 N 
HETATM   13  N12 UNL     1      29.022   4.074   9.710  1.00  0.00    -0.079 NA
ATOM     14  H11 UNL     1      27.978   4.054   7.361  1.00  0.00     0.185 HD
BRANCH   8  15
HETATM   15  N1  UNL     1      32.650   2.190   7.280  1.00  0.00    -0.383 N 
ATOM     16  H12 UNL     1      33.396   2.699   6.807  1.00  0.00     0.157 HD
ATOM     17  H11 UNL     1      32.867   1.297   7.723  1.00  0.00     0.157 HD
ENDBRANCH   8  15
BRANCH  10  18
HETATM   18  N13 UNL     1      31.614   3.035   9.730  1.00  0.00    -0.108 N 
HETATM   19  O2  UNL     1      31.361   2.090  10.497  1.00  0.00    -0.532 OA
HETATM   20  O3  UNL     1      32.552   3.959  10.105  1.00  0.00    -0.532 OA
ENDBRANCH  10  18
ENDBRANCH   1   6
BRANCH   5  21
HETATM   21  N6  UNL     1      26.771   1.840   5.614  1.00  0.00    -0.224 N 
HETATM   22  N7  UNL     1      25.922   2.224   6.477  1.00  0.00    -0.267 N 
ATOM     23  H7  UNL     1      25.723   3.222   6.557  1.00  0.00     0.190 HD
ATOM     24  H6  UNL     1      26.990   0.849   5.514  1.00  0.00     0.210 HD
BRANCH  22  25
HETATM   25  C6  UNL     1      25.243   1.330   7.331  1.00  0.00     0.163 A 
HETATM   26  C7  UNL     1      25.748   0.655   8.446  1.00  0.00     0.144 A 
HETATM   27  N8  UNL     1      24.768  -0.104   8.980  1.00  0.00    -0.314 N 
HETATM   28  C8  UNL     1      23.668   0.076   8.236  1.00  0.00     0.346 A 
ATOM     29  H8  UNL     1      24.851  -0.704   9.799  1.00  0.00     0.170 HD
HETATM   30  O1  UNL     1      22.550  -0.492   8.457  1.00  0.00    -0.245 OA
HETATM   31  N9  UNL     1      23.954   0.941   7.244  1.00  0.00    -0.193 N 
BRANCH  31  32
HETATM   32  N10 UNL     1      23.082   1.381   6.273  1.00  0.00    -0.333 N 
ATOM     33 2H10 UNL     1      22.867   2.355   6.054  1.00  0.00     0.177 HD
ATOM     34 1H10 UNL     1      22.551   0.762   5.660  1.00  0.00     0.177 HD
ENDBRANCH  31  32
ENDBRANCH  22  25
ENDBRANCH   5  21
BRANCH   3  35
HETATM   35  N4  UNL     1      27.918   4.480   1.678  1.00  0.00    -0.072 N 
ATOM     36  H43 UNL     1      27.649   5.400   2.027  1.00  0.00     0.274 HD
ATOM     37  H42 UNL     1      28.803   4.725   1.235  1.00  0.00     0.274 HD
ATOM     38  H41 UNL     1      27.246   4.137   0.991  1.00  0.00     0.274 HD
ENDBRANCH   3  35
TORSDOF 7
ENDMDL
