MODEL 1
REMARK VINA RESULT: -6.711290623      0.000      0.000
REMARK  6 active torsions:
REMARK  status: ('A' for Active; 'I' for Inactive)
REMARK       I    between atoms: C2_2  and  N1_4 
REMARK    1  A    between atoms: N1_4  and  C3_6 
REMARK    2  A    between atoms: C4_7  and  O2_8 
REMARK    3  A    between atoms: C5_10  and  C6_11 
REMARK    4  A    between atoms: C6_11  and  O4_13 
REMARK    5  A    between atoms: O4_13  and  C7_14 
REMARK    6  A    between atoms: C12_21  and  O6_22 
ROOT
HETATM    1  C3  UNL     1      12.882   1.031  -2.115  1.00  0.00     0.121 A 
HETATM    2  C4  UNL     1      13.092   0.543  -0.813  1.00  0.00     0.118 A 
HETATM    3  C5  UNL     1      12.100  -0.140  -0.156  1.00  0.00     0.143 A 
HETATM    4  C10 UNL     1      10.900  -0.314  -0.854  1.00  0.00     0.268 A 
HETATM    5  O5  UNL     1       9.985  -0.949  -0.240  1.00  0.00    -0.267 OA
HETATM    6  N2  UNL     1      10.688   0.146  -2.095  1.00  0.00    -0.296 N 
HETATM    7  C11 UNL     1       9.422  -0.063  -2.769  1.00  0.00     0.161 C 
HETATM    8  C12 UNL     1      11.676   0.819  -2.730  1.00  0.00     0.175 A 
ENDROOT
BRANCH   3   9
HETATM    9  C6  UNL     1      12.232  -0.682   1.197  1.00  0.00     0.302 C 
HETATM   10  O3  UNL     1      11.948   0.064   2.201  1.00  0.00    -0.259 OA
BRANCH   9  11
HETATM   11  O4  UNL     1      12.641  -1.942   1.523  1.00  0.00    -0.313 OA
BRANCH  11  12
HETATM   12  C7  UNL     1      13.133  -2.895   0.621  1.00  0.00     0.124 C 
HETATM   13  C8  UNL     1      14.643  -2.786   0.467  1.00  0.00     0.040 C 
HETATM   14  C9  UNL     1      12.708  -4.294   0.935  1.00  0.00     0.040 C 
ENDBRANCH  11  12
ENDBRANCH   9  11
ENDBRANCH   3   9
BRANCH   2  15
HETATM   15  O2  UNL     1      14.311   0.796  -0.278  1.00  0.00    -0.357 OA
ATOM     16  H2  UNL     1      14.664   0.116   0.282  1.00  0.00     0.217 HD
ENDBRANCH   2  15
BRANCH   1  17
HETATM   17  N1  UNL     1      13.886   1.741  -2.818  1.00  0.00    -0.322 N 
HETATM   18  C2  UNL     1      15.023   1.049  -3.304  1.00  0.00     0.218 C 
HETATM   19  C1  UNL     1      16.072   1.798  -4.038  1.00  0.00     0.117 C 
HETATM   20  O1  UNL     1      15.142  -0.179  -3.115  1.00  0.00    -0.274 OA
ATOM     21  H1  UNL     1      13.791   2.745  -2.974  1.00  0.00     0.169 HD
ENDBRANCH   1  17
BRANCH   8  22
HETATM   22  O6  UNL     1      11.421   1.277  -4.004  1.00  0.00    -0.344 OA
ATOM     23  H6  UNL     1      10.844   0.811  -4.597  1.00  0.00     0.219 HD
ENDBRANCH   8  22
TORSDOF 6
ENDMDL
MODEL 2
REMARK VINA RESULT: -6.629685143      1.713      2.208
REMARK  6 active torsions:
REMARK  status: ('A' for Active; 'I' for Inactive)
REMARK       I    between atoms: C2_2  and  N1_4 
REMARK    1  A    between atoms: N1_4  and  C3_6 
REMARK    2  A    between atoms: C4_7  and  O2_8 
REMARK    3  A    between atoms: C5_10  and  C6_11 
REMARK    4  A    between atoms: C6_11  and  O4_13 
REMARK    5  A    between atoms: O4_13  and  C7_14 
REMARK    6  A    between atoms: C12_21  and  O6_22 
ROOT
HETATM    1  C3  UNL     1      12.461   1.042  -1.201  1.00  0.00     0.121 A 
HETATM    2  C4  UNL     1      11.768   0.580  -0.068  1.00  0.00     0.118 A 
HETATM    3  C5  UNL     1      10.529   0.006  -0.194  1.00  0.00     0.143 A 
HETATM    4  C10 UNL     1      10.018  -0.087  -1.494  1.00  0.00     0.268 A 
HETATM    5  O5  UNL     1       8.869  -0.621  -1.604  1.00  0.00    -0.267 OA
HETATM    6  N2  UNL     1      10.669   0.349  -2.580  1.00  0.00    -0.296 N 
HETATM    7  C11 UNL     1      10.089   0.228  -3.903  1.00  0.00     0.161 C 
HETATM    8  C12 UNL     1      11.890   0.914  -2.440  1.00  0.00     0.175 A 
ENDROOT
BRANCH   3   9
HETATM    9  C6  UNL     1       9.739  -0.501   0.929  1.00  0.00     0.302 C 
HETATM   10  O3  UNL     1       8.876   0.267   1.486  1.00  0.00    -0.259 OA
BRANCH   9  11
HETATM   11  O4  UNL     1       9.822  -1.749   1.473  1.00  0.00    -0.313 OA
BRANCH  11  12
HETATM   12  C7  UNL     1      10.865  -2.213   2.286  1.00  0.00     0.124 C 
HETATM   13  C8  UNL     1      12.038  -2.712   1.456  1.00  0.00     0.040 C 
HETATM   14  C9  UNL     1      11.300  -1.226   3.323  1.00  0.00     0.040 C 
ENDBRANCH  11  12
ENDBRANCH   9  11
ENDBRANCH   3   9
BRANCH   2  15
HETATM   15  O2  UNL     1      12.403   0.745   1.118  1.00  0.00    -0.357 OA
ATOM     16  H2  UNL     1      12.910   0.001   1.422  1.00  0.00     0.217 HD
ENDBRANCH   2  15
BRANCH   1  17
HETATM   17  N1  UNL     1      13.742   1.640  -1.102  1.00  0.00    -0.322 N 
HETATM   18  C2  UNL     1      14.900   0.826  -1.144  1.00  0.00     0.218 C 
HETATM   19  C1  UNL     1      16.238   1.458  -1.039  1.00  0.00     0.117 C 
HETATM   20  O1  UNL     1      14.797  -0.411  -1.269  1.00  0.00    -0.274 OA
ATOM     21  H1  UNL     1      13.829   2.651  -1.001  1.00  0.00     0.169 HD
ENDBRANCH   1  17
BRANCH   8  22
HETATM   22  O6  UNL     1      12.529   1.351  -3.581  1.00  0.00    -0.344 OA
ATOM     23  H6  UNL     1      12.472   2.254  -3.871  1.00  0.00     0.219 HD
ENDBRANCH   8  22
TORSDOF 6
ENDMDL
MODEL 3
REMARK VINA RESULT: -6.484477412      2.216      5.071
REMARK  6 active torsions:
REMARK  status: ('A' for Active; 'I' for Inactive)
REMARK       I    between atoms: C2_2  and  N1_4 
REMARK    1  A    between atoms: N1_4  and  C3_6 
REMARK    2  A    between atoms: C4_7  and  O2_8 
REMARK    3  A    between atoms: C5_10  and  C6_11 
REMARK    4  A    between atoms: C6_11  and  O4_13 
REMARK    5  A    between atoms: O4_13  and  C7_14 
REMARK    6  A    between atoms: C12_21  and  O6_22 
ROOT
HETATM    1  C3  UNL     1      12.769  -1.421   0.378  1.00  0.00     0.121 A 
HETATM    2  C4  UNL     1      12.916  -0.593  -0.748  1.00  0.00     0.118 A 
HETATM    3  C5  UNL     1      11.906   0.254  -1.128  1.00  0.00     0.143 A 
HETATM    4  C10 UNL     1      10.752   0.236  -0.337  1.00  0.00     0.268 A 
HETATM    5  O5  UNL     1       9.819   1.024  -0.695  1.00  0.00    -0.267 OA
HETATM    6  N2  UNL     1      10.600  -0.549   0.738  1.00  0.00    -0.296 N 
HETATM    7  C11 UNL     1       9.380  -0.525   1.520  1.00  0.00     0.161 C 
HETATM    8  C12 UNL     1      11.605  -1.379   1.100  1.00  0.00     0.175 A 
ENDROOT
BRANCH   3   9
HETATM    9  C6  UNL     1      11.974   1.149  -2.284  1.00  0.00     0.302 C 
HETATM   10  O3  UNL     1      12.965   1.956  -2.395  1.00  0.00    -0.259 OA
BRANCH   9  11
HETATM   11  O4  UNL     1      11.064   1.225  -3.297  1.00  0.00    -0.313 OA
BRANCH  11  12
HETATM   12  C7  UNL     1      10.621   0.146  -4.073  1.00  0.00     0.124 C 
HETATM   13  C8  UNL     1       9.264  -0.357  -3.602  1.00  0.00     0.040 C 
HETATM   14  C9  UNL     1      10.630   0.420  -5.544  1.00  0.00     0.040 C 
ENDBRANCH  11  12
ENDBRANCH   9  11
ENDBRANCH   3   9
BRANCH   2  15
HETATM   15  O2  UNL     1      14.096  -0.697  -1.406  1.00  0.00    -0.357 OA
ATOM     16  H2  UNL     1      14.046  -0.647  -2.353  1.00  0.00     0.217 HD
ENDBRANCH   2  15
BRANCH   1  17
HETATM   17  N1  UNL     1      13.794  -2.306   0.795  1.00  0.00    -0.322 N 
HETATM   18  C2  UNL     1      13.777  -3.653   0.358  1.00  0.00     0.218 C 
HETATM   19  C1  UNL     1      14.853  -4.575   0.798  1.00  0.00     0.117 C 
HETATM   20  O1  UNL     1      12.866  -4.062  -0.391  1.00  0.00    -0.274 OA
ATOM     21  H1  UNL     1      14.540  -1.974   1.406  1.00  0.00     0.169 HD
ENDBRANCH   1  17
BRANCH   8  22
HETATM   22  O6  UNL     1      11.413  -2.171   2.212  1.00  0.00    -0.344 OA
ATOM     23  H6  UNL     1      11.593  -3.103   2.198  1.00  0.00     0.219 HD
ENDBRANCH   8  22
TORSDOF 6
ENDMDL
MODEL 4
REMARK VINA RESULT: -6.444172945      0.935      1.215
REMARK  6 active torsions:
REMARK  status: ('A' for Active; 'I' for Inactive)
REMARK       I    between atoms: C2_2  and  N1_4 
REMARK    1  A    between atoms: N1_4  and  C3_6 
REMARK    2  A    between atoms: C4_7  and  O2_8 
REMARK    3  A    between atoms: C5_10  and  C6_11 
REMARK    4  A    between atoms: C6_11  and  O4_13 
REMARK    5  A    between atoms: O4_13  and  C7_14 
REMARK    6  A    between atoms: C12_21  and  O6_22 
ROOT
HETATM    1  C3  UNL     1      12.527   1.116  -2.300  1.00  0.00     0.121 A 
HETATM    2  C4  UNL     1      12.579   0.839  -0.923  1.00  0.00     0.118 A 
HETATM    3  C5  UNL     1      11.514   0.252  -0.289  1.00  0.00     0.143 A 
HETATM    4  C10 UNL     1      10.403  -0.044  -1.088  1.00  0.00     0.268 A 
HETATM    5  O5  UNL     1       9.419  -0.589  -0.494  1.00  0.00    -0.267 OA
HETATM    6  N2  UNL     1      10.343   0.215  -2.401  1.00  0.00    -0.296 N 
HETATM    7  C11 UNL     1       9.164  -0.114  -3.178  1.00  0.00     0.161 C 
HETATM    8  C12 UNL     1      11.401   0.794  -3.012  1.00  0.00     0.175 A 
ENDROOT
BRANCH   3   9
HETATM    9  C6  UNL     1      11.482  -0.072   1.138  1.00  0.00     0.302 C 
HETATM   10  O3  UNL     1      10.630   0.518   1.895  1.00  0.00    -0.259 OA
BRANCH   9  11
HETATM   11  O4  UNL     1      12.290  -0.964   1.779  1.00  0.00    -0.313 OA
BRANCH  11  12
HETATM   12  C7  UNL     1      12.152  -2.358   1.739  1.00  0.00     0.124 C 
HETATM   13  C8  UNL     1      10.691  -2.775   1.817  1.00  0.00     0.040 C 
HETATM   14  C9  UNL     1      12.849  -2.996   0.579  1.00  0.00     0.040 C 
ENDBRANCH  11  12
ENDBRANCH   9  11
ENDBRANCH   3   9
BRANCH   2  15
HETATM   15  O2  UNL     1      13.727   1.188  -0.294  1.00  0.00    -0.357 OA
ATOM     16  H2  UNL     1      13.781   0.957   0.625  1.00  0.00     0.217 HD
ENDBRANCH   2  15
BRANCH   1  17
HETATM   17  N1  UNL     1      13.611   1.722  -2.982  1.00  0.00    -0.322 N 
HETATM   18  C2  UNL     1      14.797   0.981  -3.210  1.00  0.00     0.218 C 
HETATM   19  C1  UNL     1      15.929   1.621  -3.924  1.00  0.00     0.117 C 
HETATM   20  O1  UNL     1      14.889  -0.198  -2.814  1.00  0.00    -0.274 OA
ATOM     21  H1  UNL     1      13.538   2.686  -3.308  1.00  0.00     0.169 HD
ENDBRANCH   1  17
BRANCH   8  22
HETATM   22  O6  UNL     1      11.302   1.046  -4.364  1.00  0.00    -0.344 OA
ATOM     23  H6  UNL     1      11.330   1.929  -4.711  1.00  0.00     0.219 HD
ENDBRANCH   8  22
TORSDOF 6
ENDMDL
MODEL 5
REMARK VINA RESULT: -6.305401309      1.810      4.132
REMARK  6 active torsions:
REMARK  status: ('A' for Active; 'I' for Inactive)
REMARK       I    between atoms: C2_2  and  N1_4 
REMARK    1  A    between atoms: N1_4  and  C3_6 
REMARK    2  A    between atoms: C4_7  and  O2_8 
REMARK    3  A    between atoms: C5_10  and  C6_11 
REMARK    4  A    between atoms: C6_11  and  O4_13 
REMARK    5  A    between atoms: O4_13  and  C7_14 
REMARK    6  A    between atoms: C12_21  and  O6_22 
ROOT
HETATM    1  C3  UNL     1      14.653   0.801  -1.629  1.00  0.00     0.121 A 
HETATM    2  C4  UNL     1      13.306   1.165  -1.807  1.00  0.00     0.118 A 
HETATM    3  C5  UNL     1      12.302   0.412  -1.254  1.00  0.00     0.143 A 
HETATM    4  C10 UNL     1      12.700  -0.710  -0.520  1.00  0.00     0.268 A 
HETATM    5  O5  UNL     1      11.763  -1.403  -0.009  1.00  0.00    -0.267 OA
HETATM    6  N2  UNL     1      13.979  -1.066  -0.343  1.00  0.00    -0.296 N 
HETATM    7  C11 UNL     1      14.333  -2.241   0.429  1.00  0.00     0.161 C 
HETATM    8  C12 UNL     1      14.959  -0.314  -0.894  1.00  0.00     0.175 A 
ENDROOT
BRANCH   3   9
HETATM    9  C6  UNL     1      10.876   0.717  -1.389  1.00  0.00     0.302 C 
HETATM   10  O3  UNL     1      10.154   0.818  -0.334  1.00  0.00    -0.259 OA
BRANCH   9  11
HETATM   11  O4  UNL     1      10.202   0.911  -2.559  1.00  0.00    -0.313 OA
BRANCH  11  12
HETATM   12  C7  UNL     1       9.937  -0.077  -3.517  1.00  0.00     0.124 C 
HETATM   13  C8  UNL     1       8.768  -0.956  -3.100  1.00  0.00     0.040 C 
HETATM   14  C9  UNL     1       9.760   0.462  -4.901  1.00  0.00     0.040 C 
ENDBRANCH  11  12
ENDBRANCH   9  11
ENDBRANCH   3   9
BRANCH   2  15
HETATM   15  O2  UNL     1      13.090   2.280  -2.546  1.00  0.00    -0.357 OA
ATOM     16  H2  UNL     1      12.211   2.637  -2.505  1.00  0.00     0.217 HD
ENDBRANCH   2  15
BRANCH   1  17
HETATM   17  N1  UNL     1      15.712   1.558  -2.188  1.00  0.00    -0.322 N 
HETATM   18  C2  UNL     1      16.013   1.429  -3.566  1.00  0.00     0.218 C 
HETATM   19  C1  UNL     1      17.124   2.223  -4.146  1.00  0.00     0.117 C 
HETATM   20  O1  UNL     1      15.350   0.655  -4.287  1.00  0.00    -0.274 OA
ATOM     21  H1  UNL     1      16.255   2.192  -1.601  1.00  0.00     0.169 HD
ENDBRANCH   1  17
BRANCH   8  22
HETATM   22  O6  UNL     1      16.264  -0.712  -0.691  1.00  0.00    -0.344 OA
ATOM     23  H6  UNL     1      16.997  -0.152  -0.914  1.00  0.00     0.219 HD
ENDBRANCH   8  22
TORSDOF 6
ENDMDL
