MODEL 1
REMARK VINA RESULT: -6.819398167      0.000      0.000
REMARK  6 active torsions:
REMARK  status: ('A' for Active; 'I' for Inactive)
REMARK    1  A    between atoms: C2_2  and  C4_4 
REMARK    2  A    between atoms: C2_2  and  O3_12 
REMARK    3  A    between atoms: C4_4  and  O1_5 
REMARK    4  A    between atoms: O1_5  and  C5_6 
REMARK    5  A    between atoms: C5_6  and  C6_8 
REMARK    6  A    between atoms: O3_12  and  C10_13 
REMARK       I    between atoms: C10_13  and  N1_15 
ROOT
HETATM    1  C10 UNL     1      12.555   1.418  -1.615  1.00  0.00     0.400 C 
HETATM    2  O4  UNL     1      12.194   1.542  -2.810  1.00  0.00    -0.235 OA
HETATM    3  N1  UNL     1      11.579   0.987  -0.638  1.00  0.00    -0.120 N 
HETATM    4  N2  UNL     1      11.935   0.835   0.707  1.00  0.00    -0.284 N 
ATOM      5  H2  UNL     1      12.792   1.286   1.027  1.00  0.00     0.188 HD
HETATM    6  C11 UNL     1      11.250   0.161   1.568  1.00  0.00     0.158 C 
HETATM    7  C12 UNL     1      10.028  -0.476   1.088  1.00  0.00     0.129 C 
HETATM    8  N3  UNL     1       9.297  -1.164   1.897  1.00  0.00    -0.384 N 
ATOM      9  H31 UNL     1       8.443  -1.610   1.562  1.00  0.00     0.157 HD
ATOM     10  H32 UNL     1       9.535  -1.289   2.881  1.00  0.00     0.157 HD
HETATM   11  N4  UNL     1       9.696  -0.301  -0.281  1.00  0.00    -0.267 N 
ATOM     12  H4  UNL     1       9.020  -0.928  -0.718  1.00  0.00     0.186 HD
HETATM   13  N5  UNL     1      10.289   0.726  -1.049  1.00  0.00     0.007 NA
ENDROOT
BRANCH   1  14
HETATM   14  O3  UNL     1      13.847   1.691  -1.277  1.00  0.00    -0.289 OA
BRANCH  14  15
HETATM   15  C2  UNL     1      14.931   0.763  -1.238  1.00  0.00     0.087 C 
HETATM   16  C1  UNL     1      15.827   1.228  -2.396  1.00  0.00     0.048 C 
HETATM   17  C3  UNL     1      15.742   0.833   0.009  1.00  0.00     0.048 C 
BRANCH  15  18
HETATM   18  C4  UNL     1      14.471  -0.629  -1.488  1.00  0.00     0.216 C 
BRANCH  18  19
HETATM   19  O1  UNL     1      14.221  -1.463  -0.443  1.00  0.00    -0.318 OA
BRANCH  19  20
HETATM   20  C5  UNL     1      14.656  -2.621   0.043  1.00  0.00     0.266 C 
HETATM   21  O2  UNL     1      15.872  -2.893   0.022  1.00  0.00    -0.264 OA
BRANCH  20  22
HETATM   22  C6  UNL     1      13.663  -3.602   0.619  1.00  0.00     0.037 C 
HETATM   23  C7  UNL     1      12.658  -2.870   1.480  1.00  0.00     0.025 C 
HETATM   24  C8  UNL     1      13.036  -4.427  -0.454  1.00  0.00     0.025 C 
HETATM   25  C9  UNL     1      14.469  -4.495   1.548  1.00  0.00     0.025 C 
ENDBRANCH  20  22
ENDBRANCH  19  20
ENDBRANCH  18  19
ENDBRANCH  15  18
ENDBRANCH  14  15
ENDBRANCH   1  14
TORSDOF 6
ENDMDL
MODEL 2
REMARK VINA RESULT: -6.746133026      2.307      4.311
REMARK  6 active torsions:
REMARK  status: ('A' for Active; 'I' for Inactive)
REMARK    1  A    between atoms: C2_2  and  C4_4 
REMARK    2  A    between atoms: C2_2  and  O3_12 
REMARK    3  A    between atoms: C4_4  and  O1_5 
REMARK    4  A    between atoms: O1_5  and  C5_6 
REMARK    5  A    between atoms: C5_6  and  C6_8 
REMARK    6  A    between atoms: O3_12  and  C10_13 
REMARK       I    between atoms: C10_13  and  N1_15 
ROOT
HETATM    1  C10 UNL     1      12.804   1.421  -1.419  1.00  0.00     0.400 C 
HETATM    2  O4  UNL     1      12.494   1.617  -2.619  1.00  0.00    -0.235 OA
HETATM    3  N1  UNL     1      11.786   0.941  -0.510  1.00  0.00    -0.120 N 
HETATM    4  N2  UNL     1      12.084   0.709   0.837  1.00  0.00    -0.284 N 
ATOM      5  H2  UNL     1      12.929   1.134   1.219  1.00  0.00     0.188 HD
HETATM    6  C11 UNL     1      11.360  -0.010   1.627  1.00  0.00     0.158 C 
HETATM    7  C12 UNL     1      10.158  -0.610   1.061  1.00  0.00     0.129 C 
HETATM    8  N3  UNL     1       9.390  -1.339   1.797  1.00  0.00    -0.384 N 
ATOM      9  H31 UNL     1       8.548  -1.759   1.401  1.00  0.00     0.157 HD
ATOM     10  H32 UNL     1       9.586  -1.523   2.781  1.00  0.00     0.157 HD
HETATM   11  N4  UNL     1       9.884  -0.353  -0.309  1.00  0.00    -0.267 N 
ATOM     12  H4  UNL     1       9.224  -0.949  -0.809  1.00  0.00     0.186 HD
HETATM   13  N5  UNL     1      10.512   0.713  -0.989  1.00  0.00     0.007 NA
ENDROOT
BRANCH   1  14
HETATM   14  O3  UNL     1      14.081   1.666  -1.012  1.00  0.00    -0.289 OA
BRANCH  14  15
HETATM   15  C2  UNL     1      15.202   0.792  -1.154  1.00  0.00     0.087 C 
HETATM   16  C1  UNL     1      15.786   0.747   0.267  1.00  0.00     0.048 C 
HETATM   17  C3  UNL     1      14.838  -0.602  -1.530  1.00  0.00     0.048 C 
BRANCH  15  18
HETATM   18  C4  UNL     1      16.213   1.344  -2.095  1.00  0.00     0.216 C 
BRANCH  18  19
HETATM   19  O1  UNL     1      15.936   1.424  -3.424  1.00  0.00    -0.318 OA
BRANCH  19  20
HETATM   20  C5  UNL     1      16.571   1.341  -4.588  1.00  0.00     0.266 C 
HETATM   21  O2  UNL     1      17.318   2.265  -4.963  1.00  0.00    -0.264 OA
BRANCH  20  22
HETATM   22  C6  UNL     1      16.379   0.115  -5.450  1.00  0.00     0.037 C 
HETATM   23  C7  UNL     1      14.950  -0.368  -5.343  1.00  0.00     0.025 C 
HETATM   24  C8  UNL     1      16.818   0.368  -6.853  1.00  0.00     0.025 C 
HETATM   25  C9  UNL     1      17.253  -0.959  -4.824  1.00  0.00     0.025 C 
ENDBRANCH  20  22
ENDBRANCH  19  20
ENDBRANCH  18  19
ENDBRANCH  15  18
ENDBRANCH  14  15
ENDBRANCH   1  14
TORSDOF 6
ENDMDL
MODEL 3
REMARK VINA RESULT: -6.568810639      2.401      3.898
REMARK  6 active torsions:
REMARK  status: ('A' for Active; 'I' for Inactive)
REMARK    1  A    between atoms: C2_2  and  C4_4 
REMARK    2  A    between atoms: C2_2  and  O3_12 
REMARK    3  A    between atoms: C4_4  and  O1_5 
REMARK    4  A    between atoms: O1_5  and  C5_6 
REMARK    5  A    between atoms: C5_6  and  C6_8 
REMARK    6  A    between atoms: O3_12  and  C10_13 
REMARK       I    between atoms: C10_13  and  N1_15 
ROOT
HETATM    1  C10 UNL     1      12.585   1.459  -1.496  1.00  0.00     0.400 C 
HETATM    2  O4  UNL     1      12.208   1.644  -2.679  1.00  0.00    -0.235 OA
HETATM    3  N1  UNL     1      11.629   0.951  -0.537  1.00  0.00    -0.120 N 
HETATM    4  N2  UNL     1      12.003   0.730   0.793  1.00  0.00    -0.284 N 
ATOM      5  H2  UNL     1      12.853   1.180   1.131  1.00  0.00     0.188 HD
HETATM    6  C11 UNL     1      11.341  -0.008   1.620  1.00  0.00     0.158 C 
HETATM    7  C12 UNL     1      10.129  -0.643   1.116  1.00  0.00     0.129 C 
HETATM    8  N3  UNL     1       9.421  -1.393   1.891  1.00  0.00    -0.384 N 
ATOM      9  H31 UNL     1       8.573  -1.838   1.539  1.00  0.00     0.157 HD
ATOM     10  H32 UNL     1       9.673  -1.569   2.864  1.00  0.00     0.157 HD
HETATM   11  N4  UNL     1       9.778  -0.397  -0.238  1.00  0.00    -0.267 N 
ATOM     12  H4  UNL     1       9.110  -1.012  -0.703  1.00  0.00     0.186 HD
HETATM   13  N5  UNL     1      10.340   0.686  -0.950  1.00  0.00     0.007 NA
ENDROOT
BRANCH   1  14
HETATM   14  O3  UNL     1      13.873   1.741  -1.156  1.00  0.00    -0.289 OA
BRANCH  14  15
HETATM   15  C2  UNL     1      15.008   0.895  -1.343  1.00  0.00     0.087 C 
HETATM   16  C1  UNL     1      16.057   1.510  -0.404  1.00  0.00     0.048 C 
HETATM   17  C3  UNL     1      14.791  -0.513  -0.909  1.00  0.00     0.048 C 
BRANCH  15  18
HETATM   18  C4  UNL     1      15.503   0.942  -2.746  1.00  0.00     0.216 C 
BRANCH  18  19
HETATM   19  O1  UNL     1      15.151  -0.034  -3.625  1.00  0.00    -0.318 OA
BRANCH  19  20
HETATM   20  C5  UNL     1      15.726  -1.003  -4.330  1.00  0.00     0.266 C 
HETATM   21  O2  UNL     1      16.351  -1.914  -3.753  1.00  0.00    -0.264 OA
BRANCH  20  22
HETATM   22  C6  UNL     1      15.614  -0.988  -5.837  1.00  0.00     0.037 C 
HETATM   23  C7  UNL     1      14.165  -0.842  -6.243  1.00  0.00     0.025 C 
HETATM   24  C8  UNL     1      16.505   0.050  -6.433  1.00  0.00     0.025 C 
HETATM   25  C9  UNL     1      16.060  -2.368  -6.289  1.00  0.00     0.025 C 
ENDBRANCH  20  22
ENDBRANCH  19  20
ENDBRANCH  18  19
ENDBRANCH  15  18
ENDBRANCH  14  15
ENDBRANCH   1  14
TORSDOF 6
ENDMDL
MODEL 4
REMARK VINA RESULT: -6.520067134      2.355      4.833
REMARK  6 active torsions:
REMARK  status: ('A' for Active; 'I' for Inactive)
REMARK    1  A    between atoms: C2_2  and  C4_4 
REMARK    2  A    between atoms: C2_2  and  O3_12 
REMARK    3  A    between atoms: C4_4  and  O1_5 
REMARK    4  A    between atoms: O1_5  and  C5_6 
REMARK    5  A    between atoms: C5_6  and  C6_8 
REMARK    6  A    between atoms: O3_12  and  C10_13 
REMARK       I    between atoms: C10_13  and  N1_15 
ROOT
HETATM    1  C10 UNL     1      10.118  -0.260  -0.255  1.00  0.00     0.400 C 
HETATM    2  O4  UNL     1       9.041  -0.626   0.274  1.00  0.00    -0.235 OA
HETATM    3  N1  UNL     1      10.206  -0.235  -1.698  1.00  0.00    -0.120 N 
HETATM    4  N2  UNL     1      11.387   0.166  -2.334  1.00  0.00    -0.284 N 
ATOM      5  H2  UNL     1      12.246   0.171  -1.784  1.00  0.00     0.188 HD
HETATM    6  C11 UNL     1      11.459   0.528  -3.570  1.00  0.00     0.158 C 
HETATM    7  C12 UNL     1      10.219   0.513  -4.337  1.00  0.00     0.129 C 
HETATM    8  N3  UNL     1      10.221   0.864  -5.578  1.00  0.00    -0.384 N 
ATOM      9  H31 UNL     1       9.353   0.854  -6.115  1.00  0.00     0.157 HD
ATOM     10  H32 UNL     1      11.068   1.160  -6.063  1.00  0.00     0.157 HD
HETATM   11  N4  UNL     1       9.039   0.102  -3.662  1.00  0.00    -0.267 N 
ATOM     12  H4  UNL     1       8.127   0.324  -4.063  1.00  0.00     0.186 HD
HETATM   13  N5  UNL     1       9.108  -0.610  -2.444  1.00  0.00     0.007 NA
ENDROOT
BRANCH   1  14
HETATM   14  O3  UNL     1      11.163   0.099   0.542  1.00  0.00    -0.289 OA
BRANCH  14  15
HETATM   15  C2  UNL     1      12.077  -0.783   1.196  1.00  0.00     0.087 C 
HETATM   16  C1  UNL     1      11.781  -0.545   2.685  1.00  0.00     0.048 C 
HETATM   17  C3  UNL     1      11.830  -2.225   0.917  1.00  0.00     0.048 C 
BRANCH  15  18
HETATM   18  C4  UNL     1      13.491  -0.426   0.902  1.00  0.00     0.216 C 
BRANCH  18  19
HETATM   19  O1  UNL     1      13.875  -0.155  -0.374  1.00  0.00    -0.318 OA
BRANCH  19  20
HETATM   20  C5  UNL     1      14.260   0.885  -1.106  1.00  0.00     0.266 C 
HETATM   21  O2  UNL     1      13.597   1.940  -1.096  1.00  0.00    -0.264 OA
BRANCH  20  22
HETATM   22  C6  UNL     1      15.507   0.773  -1.951  1.00  0.00     0.037 C 
HETATM   23  C7  UNL     1      15.252   1.353  -3.323  1.00  0.00     0.025 C 
HETATM   24  C8  UNL     1      16.682   1.378  -1.259  1.00  0.00     0.025 C 
HETATM   25  C9  UNL     1      15.734  -0.718  -2.139  1.00  0.00     0.025 C 
ENDBRANCH  20  22
ENDBRANCH  19  20
ENDBRANCH  18  19
ENDBRANCH  15  18
ENDBRANCH  14  15
ENDBRANCH   1  14
TORSDOF 6
ENDMDL
MODEL 5
REMARK VINA RESULT: -6.468908122      2.385      4.182
REMARK  6 active torsions:
REMARK  status: ('A' for Active; 'I' for Inactive)
REMARK    1  A    between atoms: C2_2  and  C4_4 
REMARK    2  A    between atoms: C2_2  and  O3_12 
REMARK    3  A    between atoms: C4_4  and  O1_5 
REMARK    4  A    between atoms: O1_5  and  C5_6 
REMARK    5  A    between atoms: C5_6  and  C6_8 
REMARK    6  A    between atoms: O3_12  and  C10_13 
REMARK       I    between atoms: C10_13  and  N1_15 
ROOT
HETATM    1  C10 UNL     1      11.549   0.898  -0.717  1.00  0.00     0.400 C 
HETATM    2  O4  UNL     1      12.672   1.421  -0.518  1.00  0.00    -0.235 OA
HETATM    3  N1  UNL     1      11.034   0.857  -2.068  1.00  0.00    -0.120 N 
HETATM    4  N2  UNL     1       9.787   0.283  -2.338  1.00  0.00    -0.284 N 
ATOM      5  H2  UNL     1       9.144   0.150  -1.558  1.00  0.00     0.188 HD
HETATM    6  C11 UNL     1       9.397  -0.088  -3.511  1.00  0.00     0.158 C 
HETATM    7  C12 UNL     1      10.333   0.111  -4.612  1.00  0.00     0.129 C 
HETATM    8  N3  UNL     1      10.006  -0.238  -5.810  1.00  0.00    -0.384 N 
ATOM      9  H31 UNL     1      10.660  -0.099  -6.581  1.00  0.00     0.157 HD
ATOM     10  H32 UNL     1       9.103  -0.658  -6.032  1.00  0.00     0.157 HD
HETATM   11  N4  UNL     1      11.589   0.696  -4.303  1.00  0.00    -0.267 N 
ATOM     12  H4  UNL     1      12.359   0.612  -4.967  1.00  0.00     0.186 HD
HETATM   13  N5  UNL     1      11.790   1.392  -3.090  1.00  0.00     0.007 NA
ENDROOT
BRANCH   1  14
HETATM   14  O3  UNL     1      10.856   0.388   0.339  1.00  0.00    -0.289 OA
BRANCH  14  15
HETATM   15  C2  UNL     1      11.125  -0.836   1.023  1.00  0.00     0.087 C 
HETATM   16  C1  UNL     1      11.940  -0.378   2.243  1.00  0.00     0.048 C 
HETATM   17  C3  UNL     1       9.908  -1.526   1.534  1.00  0.00     0.048 C 
BRANCH  15  18
HETATM   18  C4  UNL     1      11.944  -1.761   0.193  1.00  0.00     0.216 C 
BRANCH  18  19
HETATM   19  O1  UNL     1      13.267  -1.924   0.458  1.00  0.00    -0.318 OA
BRANCH  19  20
HETATM   20  C5  UNL     1      14.298  -2.640   0.018  1.00  0.00     0.266 C 
HETATM   21  O2  UNL     1      14.179  -3.867  -0.161  1.00  0.00    -0.264 OA
BRANCH  20  22
HETATM   22  C6  UNL     1      15.612  -1.950  -0.260  1.00  0.00     0.037 C 
HETATM   23  C7  UNL     1      15.488  -0.471   0.031  1.00  0.00     0.025 C 
HETATM   24  C8  UNL     1      16.732  -2.608   0.474  1.00  0.00     0.025 C 
HETATM   25  C9  UNL     1      15.830  -2.085  -1.757  1.00  0.00     0.025 C 
ENDBRANCH  20  22
ENDBRANCH  19  20
ENDBRANCH  18  19
ENDBRANCH  15  18
ENDBRANCH  14  15
ENDBRANCH   1  14
TORSDOF 6
ENDMDL
