MODEL 1
REMARK VINA RESULT: -5.898624166      0.000      0.000
REMARK  5 active torsions:
REMARK  status: ('A' for Active; 'I' for Inactive)
REMARK    1  A    between atoms: N1_1  and  N2_4 
REMARK    2  A    between atoms: N2_4  and  N3_6 
REMARK    3  A    between atoms: N3_6  and  N4_8 
REMARK    4  A    between atoms: N4_8  and  C1_10 
REMARK    5  A    between atoms: C1_10  and  C2_11 
ROOT
HETATM    1  C2  UNL     1      -4.377  12.820 -17.035  1.00  0.00     0.081 A 
HETATM    2  C3  UNL     1      -4.952  12.333 -18.149  1.00  0.00     0.106 A 
HETATM    3  N5  UNL     1      -5.229  11.126 -18.642  1.00  0.00    -0.347 N 
ATOM      4  H5  UNL     1      -5.012  10.248 -18.170  1.00  0.00     0.167 HD
HETATM    5  C4  UNL     1      -5.830  11.213 -19.834  1.00  0.00     0.182 A 
HETATM    6  N6  UNL     1      -5.939  12.523 -20.112  1.00  0.00    -0.337 N 
ATOM      7  H6  UNL     1      -6.354  12.921 -20.954  1.00  0.00     0.168 HD
HETATM    8  C5  UNL     1      -5.398  13.235 -19.074  1.00  0.00     0.136 A 
HETATM    9  N7  UNL     1      -5.274  14.480 -18.886  1.00  0.00    -0.337 N 
ATOM     10  H7  UNL     1      -5.636  15.079 -19.628  1.00  0.00     0.168 HD
HETATM   11  C6  UNL     1      -4.702  15.145 -17.786  1.00  0.00     0.182 A 
HETATM   12  N8  UNL     1      -4.225  14.200 -16.798  1.00  0.00    -0.349 N 
ATOM     13  H8  UNL     1      -3.784  14.531 -15.940  1.00  0.00     0.166 HD
ENDROOT
BRANCH   1  14
HETATM   14  C1  UNL     1      -3.915  11.825 -16.075  1.00  0.00     0.140 C 
BRANCH  14  15
HETATM   15  N4  UNL     1      -4.053  11.790 -14.832  1.00  0.00    -0.294 N 
ATOM     16  H4  UNL     1      -4.986  11.481 -14.559  1.00  0.00     0.187 HD
BRANCH  15  17
HETATM   17  N3  UNL     1      -3.281  12.058 -13.772  1.00  0.00    -0.229 N 
ATOM     18  H3  UNL     1      -2.884  11.235 -13.319  1.00  0.00     0.210 HD
BRANCH  17  19
HETATM   19  N2  UNL     1      -2.967  13.140 -13.243  1.00  0.00    -0.235 N 
ATOM     20  H2  UNL     1      -2.769  13.919 -13.871  1.00  0.00     0.209 HD
BRANCH  19  21
HETATM   21  N1  UNL     1      -2.858  13.389 -11.881  1.00  0.00    -0.330 N 
ATOM     22  H12 UNL     1      -3.534  12.907 -11.287  1.00  0.00     0.178 HD
ATOM     23  H11 UNL     1      -2.177  14.001 -11.431  1.00  0.00     0.178 HD
ENDBRANCH  19  21
ENDBRANCH  17  19
ENDBRANCH  15  17
ENDBRANCH  14  15
ENDBRANCH   1  14
TORSDOF 5
ENDMDL
MODEL 2
REMARK VINA RESULT: -5.757571395      0.994      1.118
REMARK  5 active torsions:
REMARK  status: ('A' for Active; 'I' for Inactive)
REMARK    1  A    between atoms: N1_1  and  N2_4 
REMARK    2  A    between atoms: N2_4  and  N3_6 
REMARK    3  A    between atoms: N3_6  and  N4_8 
REMARK    4  A    between atoms: N4_8  and  C1_10 
REMARK    5  A    between atoms: C1_10  and  C2_11 
ROOT
HETATM    1  C2  UNL     1      -5.102  12.462 -17.244  1.00  0.00     0.081 A 
HETATM    2  C3  UNL     1      -5.220  11.986 -18.496  1.00  0.00     0.106 A 
HETATM    3  N5  UNL     1      -5.663  10.864 -19.063  1.00  0.00    -0.347 N 
ATOM      4  H5  UNL     1      -6.042  10.069 -18.547  1.00  0.00     0.167 HD
HETATM    5  C4  UNL     1      -5.548  10.912 -20.394  1.00  0.00     0.182 A 
HETATM    6  N6  UNL     1      -5.012  12.109 -20.688  1.00  0.00    -0.337 N 
ATOM      7  H6  UNL     1      -4.798  12.452 -21.624  1.00  0.00     0.168 HD
HETATM    8  C5  UNL     1      -4.802  12.790 -19.519  1.00  0.00     0.136 A 
HETATM    9  N7  UNL     1      -4.323  13.940 -19.292  1.00  0.00    -0.337 N 
ATOM     10  H7  UNL     1      -4.037  14.471 -20.114  1.00  0.00     0.168 HD
HETATM   11  C6  UNL     1      -4.134  14.579 -18.053  1.00  0.00     0.182 A 
HETATM   12  N8  UNL     1      -4.574  13.737 -16.961  1.00  0.00    -0.349 N 
ATOM     13  H8  UNL     1      -4.502  14.063 -15.997  1.00  0.00     0.166 HD
ENDROOT
BRANCH   1  14
HETATM   14  C1  UNL     1      -5.560  11.572 -16.183  1.00  0.00     0.140 C 
BRANCH  14  15
HETATM   15  N4  UNL     1      -4.997  11.249 -15.113  1.00  0.00    -0.294 N 
ATOM     16  H4  UNL     1      -5.653  10.854 -14.440  1.00  0.00     0.187 HD
BRANCH  15  17
HETATM   17  N3  UNL     1      -3.748  11.294 -14.633  1.00  0.00    -0.229 N 
ATOM     18  H3  UNL     1      -3.103  10.634 -15.069  1.00  0.00     0.210 HD
BRANCH  17  19
HETATM   19  N2  UNL     1      -3.239  12.002 -13.745  1.00  0.00    -0.235 N 
ATOM     20  H2  UNL     1      -2.983  11.536 -12.875  1.00  0.00     0.209 HD
BRANCH  19  21
HETATM   21  N1  UNL     1      -2.987  13.366 -13.825  1.00  0.00    -0.330 N 
ATOM     22  H12 UNL     1      -2.081  13.627 -14.214  1.00  0.00     0.178 HD
ATOM     23  H11 UNL     1      -3.617  14.114 -13.534  1.00  0.00     0.178 HD
ENDBRANCH  19  21
ENDBRANCH  17  19
ENDBRANCH  15  17
ENDBRANCH  14  15
ENDBRANCH   1  14
TORSDOF 5
ENDMDL
MODEL 3
REMARK VINA RESULT: -5.639845113      0.645      2.463
REMARK  5 active torsions:
REMARK  status: ('A' for Active; 'I' for Inactive)
REMARK    1  A    between atoms: N1_1  and  N2_4 
REMARK    2  A    between atoms: N2_4  and  N3_6 
REMARK    3  A    between atoms: N3_6  and  N4_8 
REMARK    4  A    between atoms: N4_8  and  C1_10 
REMARK    5  A    between atoms: C1_10  and  C2_11 
ROOT
HETATM    1  C2  UNL     1      -4.248  12.194 -17.355  1.00  0.00     0.081 A 
HETATM    2  C3  UNL     1      -4.284  13.483 -17.738  1.00  0.00     0.106 A 
HETATM    3  N5  UNL     1      -3.798  14.638 -17.283  1.00  0.00    -0.347 N 
ATOM      4  H5  UNL     1      -3.232  14.731 -16.439  1.00  0.00     0.167 HD
HETATM    5  C4  UNL     1      -4.146  15.659 -18.075  1.00  0.00     0.182 A 
HETATM    6  N6  UNL     1      -4.881  15.136 -19.071  1.00  0.00    -0.337 N 
ATOM      7  H6  UNL     1      -5.297  15.659 -19.841  1.00  0.00     0.168 HD
HETATM    8  C5  UNL     1      -4.977  13.784 -18.878  1.00  0.00     0.136 A 
HETATM    9  N7  UNL     1      -5.560  12.880 -19.545  1.00  0.00    -0.337 N 
ATOM     10  H7  UNL     1      -6.052  13.194 -20.381  1.00  0.00     0.168 HD
HETATM   11  C6  UNL     1      -5.618  11.499 -19.283  1.00  0.00     0.182 A 
HETATM   12  N8  UNL     1      -4.887  11.168 -18.078  1.00  0.00    -0.349 N 
ATOM     13  H8  UNL     1      -4.836  10.201 -17.756  1.00  0.00     0.166 HD
ENDROOT
BRANCH   1  14
HETATM   14  C1  UNL     1      -3.499  11.918 -16.136  1.00  0.00     0.140 C 
BRANCH  14  15
HETATM   15  N4  UNL     1      -3.865  11.987 -14.941  1.00  0.00    -0.294 N 
ATOM     16  H4  UNL     1      -4.874  11.875 -14.843  1.00  0.00     0.187 HD
BRANCH  15  17
HETATM   17  N3  UNL     1      -3.263  12.170 -13.760  1.00  0.00    -0.229 N 
ATOM     18  H3  UNL     1      -3.059  11.310 -13.250  1.00  0.00     0.210 HD
BRANCH  17  19
HETATM   19  N2  UNL     1      -2.908  13.212 -13.178  1.00  0.00    -0.235 N 
ATOM     20  H2  UNL     1      -2.618  13.993 -13.766  1.00  0.00     0.209 HD
BRANCH  19  21
HETATM   21  N1  UNL     1      -2.869  13.412 -11.803  1.00  0.00    -0.330 N 
ATOM     22  H12 UNL     1      -3.716  13.158 -11.294  1.00  0.00     0.178 HD
ATOM     23  H11 UNL     1      -2.084  13.785 -11.270  1.00  0.00     0.178 HD
ENDBRANCH  19  21
ENDBRANCH  17  19
ENDBRANCH  15  17
ENDBRANCH  14  15
ENDBRANCH   1  14
TORSDOF 5
ENDMDL
MODEL 4
REMARK VINA RESULT: -5.552860731      1.462      2.127
REMARK  5 active torsions:
REMARK  status: ('A' for Active; 'I' for Inactive)
REMARK    1  A    between atoms: N1_1  and  N2_4 
REMARK    2  A    between atoms: N2_4  and  N3_6 
REMARK    3  A    between atoms: N3_6  and  N4_8 
REMARK    4  A    between atoms: N4_8  and  C1_10 
REMARK    5  A    between atoms: C1_10  and  C2_11 
ROOT
HETATM    1  C2  UNL     1      -4.704  11.753 -16.345  1.00  0.00     0.081 A 
HETATM    2  C3  UNL     1      -4.549  12.548 -17.419  1.00  0.00     0.106 A 
HETATM    3  N5  UNL     1      -3.524  13.015 -18.133  1.00  0.00    -0.347 N 
ATOM      4  H5  UNL     1      -2.545  12.804 -17.938  1.00  0.00     0.167 HD
HETATM    5  C4  UNL     1      -3.943  13.794 -19.135  1.00  0.00     0.182 A 
HETATM    6  N6  UNL     1      -5.285  13.825 -19.059  1.00  0.00    -0.337 N 
ATOM      7  H6  UNL     1      -5.905  14.337 -19.687  1.00  0.00     0.168 HD
HETATM    8  C5  UNL     1      -5.678  13.055 -17.998  1.00  0.00     0.136 A 
HETATM    9  N7  UNL     1      -6.826  12.785 -17.537  1.00  0.00    -0.337 N 
ATOM     10  H7  UNL     1      -7.612  13.206 -18.031  1.00  0.00     0.168 HD
HETATM   11  C6  UNL     1      -7.157  11.980 -16.432  1.00  0.00     0.182 A 
HETATM   12  N8  UNL     1      -5.968  11.435 -15.811  1.00  0.00    -0.349 N 
ATOM     13  H8  UNL     1      -6.045  10.828 -14.994  1.00  0.00     0.166 HD
ENDROOT
BRANCH   1  14
HETATM   14  C1  UNL     1      -3.475  11.234 -15.759  1.00  0.00     0.140 C 
BRANCH  14  15
HETATM   15  N4  UNL     1      -2.862  11.601 -14.732  1.00  0.00    -0.294 N 
ATOM     16  H4  UNL     1      -1.854  11.478 -14.824  1.00  0.00     0.187 HD
BRANCH  15  17
HETATM   17  N3  UNL     1      -3.200  12.116 -13.544  1.00  0.00    -0.229 N 
ATOM     18  H3  UNL     1      -3.770  11.501 -12.963  1.00  0.00     0.210 HD
BRANCH  17  19
HETATM   19  N2  UNL     1      -2.938  13.218 -13.027  1.00  0.00    -0.235 N 
ATOM     20  H2  UNL     1      -2.768  13.996 -13.663  1.00  0.00     0.209 HD
BRANCH  19  21
HETATM   21  N1  UNL     1      -2.855  13.488 -11.667  1.00  0.00    -0.330 N 
ATOM     22  H12 UNL     1      -2.963  12.685 -11.048  1.00  0.00     0.178 HD
ATOM     23  H11 UNL     1      -2.699  14.403 -11.242  1.00  0.00     0.178 HD
ENDBRANCH  19  21
ENDBRANCH  17  19
ENDBRANCH  15  17
ENDBRANCH  14  15
ENDBRANCH   1  14
TORSDOF 5
ENDMDL
MODEL 5
REMARK VINA RESULT: -5.541117462      0.829      2.598
REMARK  5 active torsions:
REMARK  status: ('A' for Active; 'I' for Inactive)
REMARK    1  A    between atoms: N1_1  and  N2_4 
REMARK    2  A    between atoms: N2_4  and  N3_6 
REMARK    3  A    between atoms: N3_6  and  N4_8 
REMARK    4  A    between atoms: N4_8  and  C1_10 
REMARK    5  A    between atoms: C1_10  and  C2_11 
ROOT
HETATM    1  C2  UNL     1      -5.624  11.836 -17.581  1.00  0.00     0.081 A 
HETATM    2  C3  UNL     1      -5.375  13.128 -17.860  1.00  0.00     0.106 A 
HETATM    3  N5  UNL     1      -5.177  14.244 -17.159  1.00  0.00    -0.347 N 
ATOM      4  H5  UNL     1      -5.185  14.293 -16.140  1.00  0.00     0.167 HD
HETATM    5  C4  UNL     1      -4.966  15.293 -17.963  1.00  0.00     0.182 A 
HETATM    6  N6  UNL     1      -5.033  14.828 -19.222  1.00  0.00    -0.337 N 
ATOM      7  H6  UNL     1      -4.914  15.384 -20.069  1.00  0.00     0.168 HD
HETATM    8  C5  UNL     1      -5.286  13.483 -19.177  1.00  0.00     0.136 A 
HETATM    9  N7  UNL     1      -5.432  12.625 -20.096  1.00  0.00    -0.337 N 
ATOM     10  H7  UNL     1      -5.348  12.978 -21.049  1.00  0.00     0.168 HD
HETATM   11  C6  UNL     1      -5.694  11.249 -19.974  1.00  0.00     0.182 A 
HETATM   12  N8  UNL     1      -5.790  10.859 -18.582  1.00  0.00    -0.349 N 
ATOM     13  H8  UNL     1      -5.977   9.888 -18.330  1.00  0.00     0.166 HD
ENDROOT
BRANCH   1  14
HETATM   14  C1  UNL     1      -5.711  11.500 -16.165  1.00  0.00     0.140 C 
BRANCH  14  15
HETATM   15  N4  UNL     1      -4.799  11.353 -15.321  1.00  0.00    -0.294 N 
ATOM     16  H4  UNL     1      -4.801  10.418 -14.914  1.00  0.00     0.187 HD
BRANCH  15  17
HETATM   17  N3  UNL     1      -3.821  12.118 -14.820  1.00  0.00    -0.229 N 
ATOM     18  H3  UNL     1      -3.499  12.857 -15.446  1.00  0.00     0.210 HD
BRANCH  17  19
HETATM   19  N2  UNL     1      -3.237  12.081 -13.722  1.00  0.00    -0.235 N 
ATOM     20  H2  UNL     1      -2.925  11.166 -13.397  1.00  0.00     0.209 HD
BRANCH  19  21
HETATM   21  N1  UNL     1      -2.970  13.165 -12.895  1.00  0.00    -0.330 N 
ATOM     22  H12 UNL     1      -3.751  13.490 -12.325  1.00  0.00     0.178 HD
ATOM     23  H11 UNL     1      -2.079  13.655 -12.812  1.00  0.00     0.178 HD
ENDBRANCH  19  21
ENDBRANCH  17  19
ENDBRANCH  15  17
ENDBRANCH  14  15
ENDBRANCH   1  14
TORSDOF 5
ENDMDL
