MODEL 1
REMARK VINA RESULT: -5.149030982      0.000      0.000
REMARK  3 active torsions:
REMARK  status: ('A' for Active; 'I' for Inactive)
REMARK    1  A    between atoms: C1_2  and  C2_4 
REMARK    2  A    between atoms: C3_7  and  C4_8 
REMARK    3  A    between atoms: N4_11  and  N5_12 
ROOT
HETATM    1  C2  UNL     1      -3.201  14.400 -15.627  1.00  0.00     0.143 A 
HETATM    2  N2  UNL     1      -3.824  13.628 -16.530  1.00  0.00    -0.330 N 
ATOM      3  H2  UNL     1      -4.165  13.961 -17.431  1.00  0.00     0.168 HD
HETATM    4  C3  UNL     1      -3.944  12.362 -16.098  1.00  0.00     0.195 A 
HETATM    5  N4  UNL     1      -3.366  12.353 -14.867  1.00  0.00    -0.225 N 
HETATM    6  C5  UNL     1      -2.907  13.585 -14.561  1.00  0.00     0.171 A 
HETATM    7  N6  UNL     1      -2.246  13.950 -13.361  1.00  0.00    -0.078 NA
ENDROOT
BRANCH   1   8
HETATM    8  C1  UNL     1      -2.877  15.822 -15.710  1.00  0.00     0.284 C 
HETATM    9  N1  UNL     1      -3.801  16.785 -15.185  1.00  0.00    -0.056 NA
HETATM   10  O1  UNL     1      -1.801  16.202 -16.237  1.00  0.00    -0.269 OA
ENDBRANCH   1   8
BRANCH   4  11
HETATM   11  C4  UNL     1      -4.555  11.226 -16.777  1.00  0.00     0.300 C 
HETATM   12  N3  UNL     1      -5.730  10.646 -16.234  1.00  0.00    -0.054 NA
HETATM   13  O2  UNL     1      -4.100  10.721 -17.829  1.00  0.00    -0.268 OA
ENDBRANCH   4  11
BRANCH   5  14
HETATM   14  N5  UNL     1      -3.286  11.203 -14.078  1.00  0.00    -0.335 N 
ATOM     15  H52 UNL     1      -3.396  11.143 -13.066  1.00  0.00     0.177 HD
ATOM     16  H51 UNL     1      -3.103  10.278 -14.466  1.00  0.00     0.177 HD
ENDBRANCH   5  14
TORSDOF 3
ENDMDL
MODEL 2
REMARK VINA RESULT: -5.080709952      2.478      5.043
REMARK  3 active torsions:
REMARK  status: ('A' for Active; 'I' for Inactive)
REMARK    1  A    between atoms: C1_2  and  C2_4 
REMARK    2  A    between atoms: C3_7  and  C4_8 
REMARK    3  A    between atoms: N4_11  and  N5_12 
ROOT
HETATM    1  C2  UNL     1      -3.175  13.438 -17.073  1.00  0.00     0.143 A 
HETATM    2  N2  UNL     1      -3.483  14.454 -16.252  1.00  0.00    -0.330 N 
ATOM      3  H2  UNL     1      -3.294  14.458 -15.250  1.00  0.00     0.168 HD
HETATM    4  C3  UNL     1      -4.071  15.463 -16.914  1.00  0.00     0.195 A 
HETATM    5  N4  UNL     1      -4.129  15.049 -18.209  1.00  0.00    -0.225 N 
HETATM    6  C5  UNL     1      -3.589  13.818 -18.327  1.00  0.00     0.171 A 
HETATM    7  N6  UNL     1      -3.476  13.073 -19.528  1.00  0.00    -0.078 NA
ENDROOT
BRANCH   1   8
HETATM    8  C1  UNL     1      -2.532  12.166 -16.751  1.00  0.00     0.284 C 
HETATM    9  N1  UNL     1      -3.285  10.951 -16.860  1.00  0.00    -0.056 NA
HETATM   10  O1  UNL     1      -1.332  12.135 -16.381  1.00  0.00    -0.269 OA
ENDBRANCH   1   8
BRANCH   4  11
HETATM   11  C4  UNL     1      -4.553  16.735 -16.389  1.00  0.00     0.300 C 
HETATM   12  N3  UNL     1      -4.245  17.090 -15.051  1.00  0.00    -0.054 NA
HETATM   13  O2  UNL     1      -5.233  17.547 -17.056  1.00  0.00    -0.268 OA
ENDBRANCH   4  11
BRANCH   5  14
HETATM   14  N5  UNL     1      -4.680  15.829 -19.228  1.00  0.00    -0.335 N 
ATOM     15  H52 UNL     1      -4.870  15.542 -20.188  1.00  0.00     0.177 HD
ATOM     16  H51 UNL     1      -4.953  16.802 -19.093  1.00  0.00     0.177 HD
ENDBRANCH   5  14
TORSDOF 3
ENDMDL
MODEL 3
REMARK VINA RESULT: -5.013740318      2.584      3.727
REMARK  3 active torsions:
REMARK  status: ('A' for Active; 'I' for Inactive)
REMARK    1  A    between atoms: C1_2  and  C2_4 
REMARK    2  A    between atoms: C3_7  and  C4_8 
REMARK    3  A    between atoms: N4_11  and  N5_12 
ROOT
HETATM    1  C2  UNL     1      -4.173  14.567 -17.629  1.00  0.00     0.143 A 
HETATM    2  N2  UNL     1      -4.045  14.585 -16.293  1.00  0.00    -0.330 N 
ATOM      3  H2  UNL     1      -4.499  15.263 -15.683  1.00  0.00     0.168 HD
HETATM    4  C3  UNL     1      -3.244  13.598 -15.862  1.00  0.00     0.195 A 
HETATM    5  N4  UNL     1      -2.859  12.938 -16.988  1.00  0.00    -0.225 N 
HETATM    6  C5  UNL     1      -3.414  13.514 -18.075  1.00  0.00     0.171 A 
HETATM    7  N6  UNL     1      -3.236  13.094 -19.418  1.00  0.00    -0.078 NA
ENDROOT
BRANCH   1   8
HETATM    8  C1  UNL     1      -4.949  15.464 -18.483  1.00  0.00     0.284 C 
HETATM    9  N1  UNL     1      -6.338  15.188 -18.713  1.00  0.00    -0.056 NA
HETATM   10  O1  UNL     1      -4.409  16.468 -19.012  1.00  0.00    -0.269 OA
ENDBRANCH   1   8
BRANCH   4  11
HETATM   11  C4  UNL     1      -2.854  13.278 -14.494  1.00  0.00     0.300 C 
HETATM   12  N3  UNL     1      -2.994  11.945 -14.029  1.00  0.00    -0.054 NA
HETATM   13  O2  UNL     1      -2.394  14.121 -13.690  1.00  0.00    -0.268 OA
ENDBRANCH   4  11
BRANCH   5  14
HETATM   14  N5  UNL     1      -2.009  11.830 -16.962  1.00  0.00    -0.335 N 
ATOM     15  H52 UNL     1      -1.070  11.784 -16.565  1.00  0.00     0.177 HD
ATOM     16  H51 UNL     1      -2.267  10.926 -17.356  1.00  0.00     0.177 HD
ENDBRANCH   5  14
TORSDOF 3
ENDMDL
MODEL 4
REMARK VINA RESULT: -5.013583364      2.548      3.818
REMARK  3 active torsions:
REMARK  status: ('A' for Active; 'I' for Inactive)
REMARK    1  A    between atoms: C1_2  and  C2_4 
REMARK    2  A    between atoms: C3_7  and  C4_8 
REMARK    3  A    between atoms: N4_11  and  N5_12 
ROOT
HETATM    1  C2  UNL     1      -3.251  12.493 -16.611  1.00  0.00     0.143 A 
HETATM    2  N2  UNL     1      -4.001  11.747 -17.436  1.00  0.00    -0.330 N 
ATOM      3  H2  UNL     1      -4.189  10.754 -17.300  1.00  0.00     0.168 HD
HETATM    4  C3  UNL     1      -4.473  12.471 -18.464  1.00  0.00     0.195 A 
HETATM    5  N4  UNL     1      -3.990  13.726 -18.262  1.00  0.00    -0.225 N 
HETATM    6  C5  UNL     1      -3.242  13.761 -17.138  1.00  0.00     0.171 A 
HETATM    7  N6  UNL     1      -2.582  14.901 -16.616  1.00  0.00    -0.078 NA
ENDROOT
BRANCH   1   8
HETATM    8  C1  UNL     1      -2.561  12.088 -15.388  1.00  0.00     0.284 C 
HETATM    9  N1  UNL     1      -1.308  11.398 -15.484  1.00  0.00    -0.056 NA
HETATM   10  O1  UNL     1      -3.059  12.340 -14.262  1.00  0.00    -0.269 OA
ENDBRANCH   1   8
BRANCH   4  11
HETATM   11  C4  UNL     1      -5.319  12.035 -19.568  1.00  0.00     0.300 C 
HETATM   12  N3  UNL     1      -6.624  12.576 -19.694  1.00  0.00    -0.054 NA
HETATM   13  O2  UNL     1      -4.959  11.199 -20.428  1.00  0.00    -0.268 OA
ENDBRANCH   4  11
BRANCH   5  14
HETATM   14  N5  UNL     1      -4.261  14.789 -19.127  1.00  0.00    -0.335 N 
ATOM     15  H52 UNL     1      -4.594  15.719 -18.874  1.00  0.00     0.177 HD
ATOM     16  H51 UNL     1      -4.143  14.722 -20.138  1.00  0.00     0.177 HD
ENDBRANCH   5  14
TORSDOF 3
ENDMDL
MODEL 5
REMARK VINA RESULT: -4.979462958      0.980      1.066
REMARK  3 active torsions:
REMARK  status: ('A' for Active; 'I' for Inactive)
REMARK    1  A    between atoms: C1_2  and  C2_4 
REMARK    2  A    between atoms: C3_7  and  C4_8 
REMARK    3  A    between atoms: N4_11  and  N5_12 
ROOT
HETATM    1  C2  UNL     1      -2.969  14.722 -15.782  1.00  0.00     0.143 A 
HETATM    2  N2  UNL     1      -3.397  14.096 -16.889  1.00  0.00    -0.330 N 
ATOM      3  H2  UNL     1      -3.510  14.549 -17.795  1.00  0.00     0.168 HD
HETATM    4  C3  UNL     1      -3.656  12.800 -16.654  1.00  0.00     0.195 A 
HETATM    5  N4  UNL     1      -3.375  12.617 -15.336  1.00  0.00    -0.225 N 
HETATM    6  C5  UNL     1      -2.955  13.776 -14.786  1.00  0.00     0.171 A 
HETATM    7  N6  UNL     1      -2.573  13.962 -13.434  1.00  0.00    -0.078 NA
ENDROOT
BRANCH   1   8
HETATM    8  C1  UNL     1      -2.585  16.122 -15.615  1.00  0.00     0.284 C 
HETATM    9  N1  UNL     1      -3.570  17.075 -15.192  1.00  0.00    -0.056 NA
HETATM   10  O1  UNL     1      -1.405  16.490 -15.840  1.00  0.00    -0.269 OA
ENDBRANCH   1   8
BRANCH   4  11
HETATM   11  C4  UNL     1      -4.136  11.787 -17.587  1.00  0.00     0.300 C 
HETATM   12  N3  UNL     1      -4.646  12.193 -18.846  1.00  0.00    -0.054 NA
HETATM   13  O2  UNL     1      -4.125  10.559 -17.341  1.00  0.00    -0.268 OA
ENDBRANCH   4  11
BRANCH   5  14
HETATM   14  N5  UNL     1      -3.518  11.384 -14.696  1.00  0.00    -0.335 N 
ATOM     15  H52 UNL     1      -3.750  10.489 -15.129  1.00  0.00     0.177 HD
ATOM     16  H51 UNL     1      -3.396  11.265 -13.691  1.00  0.00     0.177 HD
ENDBRANCH   5  14
TORSDOF 3
ENDMDL
