MODEL 1
REMARK VINA RESULT: -5.799011854      0.000      0.000
REMARK  3 active torsions:
REMARK  status: ('A' for Active; 'I' for Inactive)
REMARK    1  A    between atoms: N1_1  and  C1_4 
REMARK    2  A    between atoms: C2_7  and  N3_8 
REMARK       I    between atoms: N3_8  and  C3_10 
REMARK    3  A    between atoms: C4_17  and  N7_18 
ROOT
HETATM    1  C1  UNL     1      -4.601  11.978 -16.165  1.00  0.00     0.167 A 
HETATM    2  N2  UNL     1      -5.019  12.030 -17.464  1.00  0.00    -0.172 N 
ATOM      3  H2  UNL     1      -5.848  11.495 -17.724  1.00  0.00     0.186 HD
HETATM    4  C2  UNL     1      -4.402  12.742 -18.416  1.00  0.00     0.702 A 
HETATM    5  N5  UNL     1      -3.311  13.449 -18.086  1.00  0.00    -0.130 N 
ATOM      6  H5  UNL     1      -2.825  13.999 -18.794  1.00  0.00     0.205 HD
HETATM    7  N6  UNL     1      -2.869  13.432 -16.845  1.00  0.00    -0.263 N 
ATOM      8  H6  UNL     1      -2.038  13.977 -16.614  1.00  0.00     0.189 HD
HETATM    9  C4  UNL     1      -3.480  12.712 -15.852  1.00  0.00     0.233 A 
ENDROOT
BRANCH   4  10
HETATM   10  N3  UNL     1      -4.845  12.757 -19.650  1.00  0.00    -0.142 N 
HETATM   11  C3  UNL     1      -5.584  11.682 -20.164  1.00  0.00     0.347 C 
HETATM   12  N4  UNL     1      -6.993  11.707 -20.387  1.00  0.00    -0.039 NA
HETATM   13  O1  UNL     1      -4.978  10.598 -20.460  1.00  0.00    -0.250 OA
ATOM     14  H3  UNL     1      -4.650  13.563 -20.244  1.00  0.00     0.189 HD
ENDBRANCH   4  10
BRANCH   1  15
HETATM   15  N1  UNL     1      -5.281  11.266 -15.348  1.00  0.00    -0.382 N 
ATOM     16  H12 UNL     1      -6.002  10.590 -15.603  1.00  0.00     0.157 HD
ATOM     17  H11 UNL     1      -5.090  11.372 -14.352  1.00  0.00     0.157 HD
ENDBRANCH   1  15
BRANCH   9  18
HETATM   18  N7  UNL     1      -2.937  12.754 -14.544  1.00  0.00    -0.092 N 
HETATM   19  O2  UNL     1      -2.833  11.664 -13.922  1.00  0.00    -0.530 OA
HETATM   20  O3  UNL     1      -2.511  13.870 -13.894  1.00  0.00    -0.530 OA
ENDBRANCH   9  18
TORSDOF 3
ENDMDL
MODEL 2
REMARK VINA RESULT: -5.718786270      2.951      3.581
REMARK  3 active torsions:
REMARK  status: ('A' for Active; 'I' for Inactive)
REMARK    1  A    between atoms: N1_1  and  C1_4 
REMARK    2  A    between atoms: C2_7  and  N3_8 
REMARK       I    between atoms: N3_8  and  C3_10 
REMARK    3  A    between atoms: C4_17  and  N7_18 
ROOT
HETATM    1  C1  UNL     1      -2.913  13.183 -16.930  1.00  0.00     0.167 A 
HETATM    2  N2  UNL     1      -3.367  13.777 -18.073  1.00  0.00    -0.172 N 
ATOM      3  H2  UNL     1      -3.165  13.323 -18.964  1.00  0.00     0.186 HD
HETATM    4  C2  UNL     1      -4.061  14.923 -18.091  1.00  0.00     0.702 A 
HETATM    5  N5  UNL     1      -4.332  15.530 -16.926  1.00  0.00    -0.130 N 
ATOM      6  H5  UNL     1      -4.859  16.402 -16.915  1.00  0.00     0.205 HD
HETATM    7  N6  UNL     1      -3.916  14.996 -15.796  1.00  0.00    -0.263 N 
ATOM      8  H6  UNL     1      -4.133  15.472 -14.921  1.00  0.00     0.189 HD
HETATM    9  C4  UNL     1      -3.205  13.826 -15.749  1.00  0.00     0.233 A 
ENDROOT
BRANCH   4  10
HETATM   10  N3  UNL     1      -4.474  15.452 -19.218  1.00  0.00    -0.142 N 
HETATM   11  C3  UNL     1      -4.869  16.795 -19.282  1.00  0.00     0.347 C 
HETATM   12  N4  UNL     1      -4.094  17.835 -19.878  1.00  0.00    -0.039 NA
HETATM   13  O1  UNL     1      -5.992  17.137 -18.782  1.00  0.00    -0.250 OA
ATOM     14  H3  UNL     1      -4.508  14.877 -20.060  1.00  0.00     0.189 HD
ENDBRANCH   4  10
BRANCH   1  15
HETATM   15  N1  UNL     1      -2.267  12.085 -17.046  1.00  0.00    -0.382 N 
ATOM     16  H12 UNL     1      -1.261  11.997 -17.189  1.00  0.00     0.157 HD
ATOM     17  H11 UNL     1      -2.795  11.215 -16.985  1.00  0.00     0.157 HD
ENDBRANCH   1  15
BRANCH   9  18
HETATM   18  N7  UNL     1      -2.800  13.322 -14.488  1.00  0.00    -0.092 N 
HETATM   19  O2  UNL     1      -2.278  14.134 -13.677  1.00  0.00    -0.530 OA
HETATM   20  O3  UNL     1      -2.925  12.035 -14.066  1.00  0.00    -0.530 OA
ENDBRANCH   9  18
TORSDOF 3
ENDMDL
MODEL 3
REMARK VINA RESULT: -5.620192283      3.618      4.267
REMARK  3 active torsions:
REMARK  status: ('A' for Active; 'I' for Inactive)
REMARK    1  A    between atoms: N1_1  and  C1_4 
REMARK    2  A    between atoms: C2_7  and  N3_8 
REMARK       I    between atoms: N3_8  and  C3_10 
REMARK    3  A    between atoms: C4_17  and  N7_18 
ROOT
HETATM    1  C1  UNL     1      -3.887  13.940 -18.925  1.00  0.00     0.167 A 
HETATM    2  N2  UNL     1      -4.512  15.130 -19.163  1.00  0.00    -0.172 N 
ATOM      3  H2  UNL     1      -4.721  15.378 -20.130  1.00  0.00     0.186 HD
HETATM    4  C2  UNL     1      -4.866  15.991 -18.200  1.00  0.00     0.702 A 
HETATM    5  N5  UNL     1      -4.597  15.675 -16.924  1.00  0.00    -0.130 N 
ATOM      6  H5  UNL     1      -4.857  16.315 -16.174  1.00  0.00     0.205 HD
HETATM    7  N6  UNL     1      -3.995  14.538 -16.642  1.00  0.00    -0.263 N 
ATOM      8  H6  UNL     1      -3.800  14.317 -15.667  1.00  0.00     0.189 HD
HETATM    9  C4  UNL     1      -3.622  13.640 -17.608  1.00  0.00     0.233 A 
ENDROOT
BRANCH   4  10
HETATM   10  N3  UNL     1      -5.465  17.122 -18.484  1.00  0.00    -0.142 N 
HETATM   11  C3  UNL     1      -5.524  17.596 -19.802  1.00  0.00     0.347 C 
HETATM   12  N4  UNL     1      -6.695  17.567 -20.617  1.00  0.00    -0.039 NA
HETATM   13  O1  UNL     1      -4.473  18.091 -20.331  1.00  0.00    -0.250 OA
ATOM     14  H3  UNL     1      -5.895  17.665 -17.735  1.00  0.00     0.189 HD
ENDBRANCH   4  10
BRANCH   1  15
HETATM   15  N1  UNL     1      -3.607  13.201 -19.931  1.00  0.00    -0.382 N 
ATOM     16  H12 UNL     1      -3.391  13.532 -20.871  1.00  0.00     0.157 HD
ATOM     17  H11 UNL     1      -3.592  12.192 -19.790  1.00  0.00     0.157 HD
ENDBRANCH   1  15
BRANCH   9  18
HETATM   18  N7  UNL     1      -2.982  12.439 -17.213  1.00  0.00    -0.092 N 
HETATM   19  O2  UNL     1      -3.591  11.358 -17.429  1.00  0.00    -0.530 OA
HETATM   20  O3  UNL     1      -1.760  12.344 -16.623  1.00  0.00    -0.530 OA
ENDBRANCH   9  18
TORSDOF 3
ENDMDL
MODEL 4
REMARK VINA RESULT: -5.569007942      3.670      5.466
REMARK  3 active torsions:
REMARK  status: ('A' for Active; 'I' for Inactive)
REMARK    1  A    between atoms: N1_1  and  C1_4 
REMARK    2  A    between atoms: C2_7  and  N3_8 
REMARK       I    between atoms: N3_8  and  C3_10 
REMARK    3  A    between atoms: C4_17  and  N7_18 
ROOT
HETATM    1  C1  UNL     1      -4.034  14.728 -18.009  1.00  0.00     0.167 A 
HETATM    2  N2  UNL     1      -4.508  15.963 -17.670  1.00  0.00    -0.172 N 
ATOM      3  H2  UNL     1      -4.954  16.523 -18.397  1.00  0.00     0.186 HD
HETATM    4  C2  UNL     1      -4.422  16.481 -16.437  1.00  0.00     0.702 A 
HETATM    5  N5  UNL     1      -3.838  15.753 -15.473  1.00  0.00    -0.130 N 
ATOM      6  H5  UNL     1      -3.761  16.127 -14.528  1.00  0.00     0.205 HD
HETATM    7  N6  UNL     1      -3.365  14.556 -15.750  1.00  0.00    -0.263 N 
ATOM      8  H6  UNL     1      -2.925  14.019 -15.004  1.00  0.00     0.189 HD
HETATM    9  C4  UNL     1      -3.440  14.003 -17.002  1.00  0.00     0.233 A 
ENDROOT
BRANCH   4  10
HETATM   10  N3  UNL     1      -4.895  17.673 -16.165  1.00  0.00    -0.142 N 
HETATM   11  C3  UNL     1      -5.240  18.030 -14.854  1.00  0.00     0.347 C 
HETATM   12  N4  UNL     1      -4.469  18.902 -14.027  1.00  0.00    -0.039 NA
HETATM   13  O1  UNL     1      -6.309  17.556 -14.342  1.00  0.00    -0.250 OA
ATOM     14  H3  UNL     1      -5.013  18.351 -16.918  1.00  0.00     0.189 HD
ENDBRANCH   4  10
BRANCH   1  15
HETATM   15  N1  UNL     1      -4.184  14.344 -19.220  1.00  0.00    -0.382 N 
ATOM     16  H12 UNL     1      -4.703  13.520 -19.524  1.00  0.00     0.157 HD
ATOM     17  H11 UNL     1      -3.756  14.908 -19.954  1.00  0.00     0.157 HD
ENDBRANCH   1  15
BRANCH   9  18
HETATM   18  N7  UNL     1      -2.906  12.706 -17.209  1.00  0.00    -0.092 N 
HETATM   19  O2  UNL     1      -1.751  12.475 -16.764  1.00  0.00    -0.530 OA
HETATM   20  O3  UNL     1      -3.532  11.680 -17.846  1.00  0.00    -0.530 OA
ENDBRANCH   9  18
TORSDOF 3
ENDMDL
MODEL 5
REMARK VINA RESULT: -5.558637596      0.755      1.770
REMARK  3 active torsions:
REMARK  status: ('A' for Active; 'I' for Inactive)
REMARK    1  A    between atoms: N1_1  and  C1_4 
REMARK    2  A    between atoms: C2_7  and  N3_8 
REMARK       I    between atoms: N3_8  and  C3_10 
REMARK    3  A    between atoms: C4_17  and  N7_18 
ROOT
HETATM    1  C1  UNL     1      -3.261  13.946 -16.798  1.00  0.00     0.167 A 
HETATM    2  N2  UNL     1      -3.815  13.869 -18.044  1.00  0.00    -0.172 N 
ATOM      3  H2  UNL     1      -3.651  14.640 -18.692  1.00  0.00     0.186 HD
HETATM    4  C2  UNL     1      -4.560  12.838 -18.465  1.00  0.00     0.702 A 
HETATM    5  N5  UNL     1      -4.782  11.818 -17.622  1.00  0.00    -0.130 N 
ATOM      6  H5  UNL     1      -5.346  11.023 -17.920  1.00  0.00     0.205 HD
HETATM    7  N6  UNL     1      -4.270  11.846 -16.409  1.00  0.00    -0.263 N 
ATOM      8  H6  UNL     1      -4.449  11.062 -15.784  1.00  0.00     0.189 HD
HETATM    9  C4  UNL     1      -3.504  12.888 -15.954  1.00  0.00     0.233 A 
ENDROOT
BRANCH   4  10
HETATM   10  N3  UNL     1      -5.068  12.813 -19.673  1.00  0.00    -0.142 N 
HETATM   11  C3  UNL     1      -5.614  11.635 -20.202  1.00  0.00     0.347 C 
HETATM   12  N4  UNL     1      -7.012  11.393 -20.354  1.00  0.00    -0.039 NA
HETATM   13  O1  UNL     1      -4.829  10.702 -20.580  1.00  0.00    -0.250 OA
ATOM     14  H3  UNL     1      -5.067  13.664 -20.237  1.00  0.00     0.189 HD
ENDBRANCH   4  10
BRANCH   1  15
HETATM   15  N1  UNL     1      -2.563  14.981 -16.520  1.00  0.00    -0.382 N 
ATOM     16  H12 UNL     1      -1.916  15.452 -17.153  1.00  0.00     0.157 HD
ATOM     17  H11 UNL     1      -2.658  15.382 -15.588  1.00  0.00     0.157 HD
ENDBRANCH   1  15
BRANCH   9  18
HETATM   18  N7  UNL     1      -2.991  12.833 -14.634  1.00  0.00    -0.092 N 
HETATM   19  O2  UNL     1      -2.951  11.706 -14.072  1.00  0.00    -0.530 OA
HETATM   20  O3  UNL     1      -2.531  13.891 -13.913  1.00  0.00    -0.530 OA
ENDBRANCH   9  18
TORSDOF 3
ENDMDL
