MODEL 1
REMARK VINA RESULT: -7.912153460      0.000      0.000
REMARK  7 active torsions:
REMARK  status: ('A' for Active; 'I' for Inactive)
REMARK    1  A    between atoms: C4_7  and  N3_8 
REMARK    2  A    between atoms: N5_14  and  N6_16 
REMARK    3  A    between atoms: N7_20  and  C7_22 
REMARK    4  A    between atoms: C7_22  and  C8_23 
REMARK    5  A    between atoms: C8_23  and  N8_24 
REMARK       I    between atoms: N8_24  and  C9_26 
REMARK    6  A    between atoms: C9_26  and  C10_28 
REMARK    7  A    between atoms: C10_28  and  N9_29 
ROOT
HETATM    1  C1  UNL     1      29.098  15.726  61.637  1.00  0.00     0.158 C 
HETATM    2  N1  UNL     1      27.783  15.213  61.337  1.00  0.00    -0.332 N 
HETATM    3  C2  UNL     1      27.553  14.152  60.565  1.00  0.00     0.184 A 
HETATM    4  N2  UNL     1      26.230  13.926  60.479  1.00  0.00    -0.346 N 
ATOM      5  H2  UNL     1      25.779  13.177  59.953  1.00  0.00     0.167 HD
HETATM    6  C3  UNL     1      25.611  14.869  61.214  1.00  0.00     0.122 A 
HETATM    7  C4  UNL     1      24.245  14.949  61.356  1.00  0.00     0.131 C 
HETATM    8  N4  UNL     1      23.568  15.782  62.190  1.00  0.00    -0.323 N 
ATOM      9  H4  UNL     1      22.562  15.619  62.240  1.00  0.00     0.169 HD
HETATM   10  C5  UNL     1      24.022  16.791  62.961  1.00  0.00     0.166 C 
HETATM   11  N5  UNL     1      23.148  17.263  63.770  1.00  0.00    -0.289 N 
ATOM     12  H5  UNL     1      22.209  16.864  63.778  1.00  0.00     0.188 HD
HETATM   13  C6  UNL     1      25.288  17.324  62.941  1.00  0.00     0.149 C 
HETATM   14  N7  UNL     1      25.368  18.534  63.349  1.00  0.00    -0.372 N 
ATOM     15  H7  UNL     1      24.507  18.993  63.648  1.00  0.00     0.161 HD
HETATM   16  N10 UNL     1      26.448  16.749  62.555  1.00  0.00    -0.324 N 
ATOM     17  H10 UNL     1      27.305  17.173  62.910  1.00  0.00     0.169 HD
HETATM   18  C11 UNL     1      26.598  15.679  61.754  1.00  0.00     0.140 A 
ENDROOT
BRANCH  14  19
HETATM   19  C7  UNL     1      26.590  19.291  63.416  1.00  0.00     0.141 C 
BRANCH  19  20
HETATM   20  C8  UNL     1      26.363  20.470  64.334  1.00  0.00     0.142 C 
BRANCH  20  21
HETATM   21  N8  UNL     1      27.527  20.825  65.104  1.00  0.00    -0.358 N 
HETATM   22  C9  UNL     1      27.936  22.170  65.302  1.00  0.00     0.243 C 
HETATM   23  O1  UNL     1      27.252  23.090  64.786  1.00  0.00    -0.272 OA
ATOM     24  H8  UNL     1      28.081  20.079  65.524  1.00  0.00     0.162 HD
BRANCH  22  25
HETATM   25  C10 UNL     1      29.138  22.481  66.101  1.00  0.00     0.331 C 
BRANCH  25  26
HETATM   26  N9  UNL     1      28.849  23.097  67.355  1.00  0.00    -0.071 N 
ATOM     27  H93 UNL     1      28.256  22.493  67.925  1.00  0.00     0.274 HD
ATOM     28  H92 UNL     1      29.682  23.122  67.944  1.00  0.00     0.274 HD
ATOM     29  H91 UNL     1      28.440  24.027  67.271  1.00  0.00     0.274 HD
ENDBRANCH  25  26
ENDBRANCH  22  25
ENDBRANCH  20  21
ENDBRANCH  19  20
ENDBRANCH  14  19
BRANCH  11  30
HETATM   30  N6  UNL     1      23.451  18.309  64.639  1.00  0.00    -0.344 N 
ATOM     31  H62 UNL     1      23.354  19.265  64.297  1.00  0.00     0.176 HD
ATOM     32  H61 UNL     1      23.764  18.134  65.594  1.00  0.00     0.176 HD
ENDBRANCH  11  30
BRANCH   7  33
HETATM   33  N3  UNL     1      23.552  14.154  60.625  1.00  0.00    -0.383 N 
ATOM     34  H32 UNL     1      23.894  13.965  59.682  1.00  0.00     0.157 HD
ATOM     35  H31 UNL     1      22.707  13.772  61.050  1.00  0.00     0.157 HD
ENDBRANCH   7  33
TORSDOF 7
ENDMDL
MODEL 2
REMARK VINA RESULT: -7.816690387      2.513      3.426
REMARK  7 active torsions:
REMARK  status: ('A' for Active; 'I' for Inactive)
REMARK    1  A    between atoms: C4_7  and  N3_8 
REMARK    2  A    between atoms: N5_14  and  N6_16 
REMARK    3  A    between atoms: N7_20  and  C7_22 
REMARK    4  A    between atoms: C7_22  and  C8_23 
REMARK    5  A    between atoms: C8_23  and  N8_24 
REMARK       I    between atoms: N8_24  and  C9_26 
REMARK    6  A    between atoms: C9_26  and  C10_28 
REMARK    7  A    between atoms: C10_28  and  N9_29 
ROOT
HETATM    1  C1  UNL     1      29.031  15.046  62.112  1.00  0.00     0.158 C 
HETATM    2  N1  UNL     1      27.705  14.708  61.653  1.00  0.00    -0.332 N 
HETATM    3  C2  UNL     1      27.441  13.731  60.787  1.00  0.00     0.184 A 
HETATM    4  N2  UNL     1      26.117  13.665  60.561  1.00  0.00    -0.346 N 
ATOM      5  H2  UNL     1      25.643  13.007  59.941  1.00  0.00     0.167 HD
HETATM    6  C3  UNL     1      25.532  14.625  61.301  1.00  0.00     0.122 A 
HETATM    7  C4  UNL     1      24.176  14.853  61.320  1.00  0.00     0.131 C 
HETATM    8  N4  UNL     1      23.512  15.705  62.145  1.00  0.00    -0.323 N 
ATOM      9  H4  UNL     1      22.495  15.656  62.089  1.00  0.00     0.169 HD
HETATM   10  C5  UNL     1      23.992  16.604  63.028  1.00  0.00     0.166 C 
HETATM   11  N5  UNL     1      23.097  17.122  63.784  1.00  0.00    -0.289 N 
ATOM     12  H5  UNL     1      22.125  16.835  63.675  1.00  0.00     0.188 HD
HETATM   13  C6  UNL     1      25.305  16.988  63.167  1.00  0.00     0.149 C 
HETATM   14  N7  UNL     1      25.474  18.152  63.669  1.00  0.00    -0.372 N 
ATOM     15  H7  UNL     1      24.642  18.688  63.918  1.00  0.00     0.161 HD
HETATM   16  N10 UNL     1      26.428  16.308  62.850  1.00  0.00    -0.324 N 
ATOM     17  H10 UNL     1      27.286  16.607  63.315  1.00  0.00     0.169 HD
HETATM   18  C11 UNL     1      26.542  15.280  61.990  1.00  0.00     0.140 A 
ENDROOT
BRANCH  14  19
HETATM   19  C7  UNL     1      26.758  18.758  63.906  1.00  0.00     0.141 C 
BRANCH  19  20
HETATM   20  C8  UNL     1      26.974  19.827  62.860  1.00  0.00     0.142 C 
BRANCH  20  21
HETATM   21  N8  UNL     1      26.816  19.346  61.512  1.00  0.00    -0.358 N 
HETATM   22  C9  UNL     1      27.858  18.693  60.803  1.00  0.00     0.243 C 
HETATM   23  O1  UNL     1      28.965  18.526  61.376  1.00  0.00    -0.272 OA
ATOM     24  H8  UNL     1      25.919  19.479  61.047  1.00  0.00     0.162 HD
BRANCH  22  25
HETATM   25  C10 UNL     1      27.646  18.217  59.422  1.00  0.00     0.331 C 
BRANCH  25  26
HETATM   26  N9  UNL     1      26.560  17.301  59.291  1.00  0.00    -0.071 N 
ATOM     27  H93 UNL     1      26.780  16.415  59.748  1.00  0.00     0.274 HD
ATOM     28  H92 UNL     1      25.769  17.595  59.864  1.00  0.00     0.274 HD
ATOM     29  H91 UNL     1      26.268  17.146  58.327  1.00  0.00     0.274 HD
ENDBRANCH  25  26
ENDBRANCH  22  25
ENDBRANCH  20  21
ENDBRANCH  19  20
ENDBRANCH  14  19
BRANCH  11  30
HETATM   30  N6  UNL     1      23.423  18.070  64.752  1.00  0.00    -0.344 N 
ATOM     31  H62 UNL     1      23.965  17.768  65.562  1.00  0.00     0.176 HD
ATOM     32  H61 UNL     1      23.132  19.044  64.663  1.00  0.00     0.176 HD
ENDBRANCH  11  30
BRANCH   7  33
HETATM   33  N3  UNL     1      23.479  14.191  60.470  1.00  0.00    -0.383 N 
ATOM     34  H32 UNL     1      23.976  13.757  59.692  1.00  0.00     0.157 HD
ATOM     35  H31 UNL     1      22.475  14.152  60.645  1.00  0.00     0.157 HD
ENDBRANCH   7  33
TORSDOF 7
ENDMDL
MODEL 3
REMARK VINA RESULT: -7.698377474      1.589      1.614
REMARK  7 active torsions:
REMARK  status: ('A' for Active; 'I' for Inactive)
REMARK    1  A    between atoms: C4_7  and  N3_8 
REMARK    2  A    between atoms: N5_14  and  N6_16 
REMARK    3  A    between atoms: N7_20  and  C7_22 
REMARK    4  A    between atoms: C7_22  and  C8_23 
REMARK    5  A    between atoms: C8_23  and  N8_24 
REMARK       I    between atoms: N8_24  and  C9_26 
REMARK    6  A    between atoms: C9_26  and  C10_28 
REMARK    7  A    between atoms: C10_28  and  N9_29 
ROOT
HETATM    1  C1  UNL     1      29.091  15.676  61.625  1.00  0.00     0.158 C 
HETATM    2  N1  UNL     1      27.777  15.193  61.272  1.00  0.00    -0.332 N 
HETATM    3  C2  UNL     1      27.551  14.191  60.424  1.00  0.00     0.184 A 
HETATM    4  N2  UNL     1      26.229  13.979  60.306  1.00  0.00    -0.346 N 
ATOM      5  H2  UNL     1      25.781  13.273  59.722  1.00  0.00     0.167 HD
HETATM    6  C3  UNL     1      25.604  14.870  61.099  1.00  0.00     0.122 A 
HETATM    7  C4  UNL     1      24.237  14.947  61.230  1.00  0.00     0.131 C 
HETATM    8  N4  UNL     1      23.554  15.721  62.114  1.00  0.00    -0.323 N 
ATOM      9  H4  UNL     1      22.547  15.561  62.140  1.00  0.00     0.169 HD
HETATM   10  C5  UNL     1      24.003  16.669  62.961  1.00  0.00     0.166 C 
HETATM   11  N5  UNL     1      23.121  17.086  63.792  1.00  0.00    -0.289 N 
ATOM     12  H5  UNL     1      22.181  16.693  63.760  1.00  0.00     0.188 HD
HETATM   13  C6  UNL     1      25.272  17.196  62.996  1.00  0.00     0.149 C 
HETATM   14  N7  UNL     1      25.352  18.372  63.491  1.00  0.00    -0.372 N 
ATOM     15  H7  UNL     1      24.490  18.813  63.812  1.00  0.00     0.161 HD
HETATM   16  N10 UNL     1      26.434  16.644  62.583  1.00  0.00    -0.324 N 
ATOM     17  H10 UNL     1      27.288  17.036  62.978  1.00  0.00     0.169 HD
HETATM   18  C11 UNL     1      26.589  15.633  61.708  1.00  0.00     0.140 A 
ENDROOT
BRANCH  14  19
HETATM   19  C7  UNL     1      26.577  19.116  63.627  1.00  0.00     0.141 C 
BRANCH  19  20
HETATM   20  C8  UNL     1      26.222  20.557  63.913  1.00  0.00     0.142 C 
BRANCH  20  21
HETATM   21  N8  UNL     1      26.406  20.926  65.293  1.00  0.00    -0.358 N 
HETATM   22  C9  UNL     1      25.354  20.889  66.245  1.00  0.00     0.243 C 
HETATM   23  O1  UNL     1      24.213  20.517  65.868  1.00  0.00    -0.272 OA
ATOM     24  H8  UNL     1      27.331  21.227  65.599  1.00  0.00     0.162 HD
BRANCH  22  25
HETATM   25  C10 UNL     1      25.594  21.277  67.648  1.00  0.00     0.331 C 
BRANCH  25  26
HETATM   26  N9  UNL     1      25.349  22.658  67.911  1.00  0.00    -0.071 N 
ATOM     27  H93 UNL     1      24.355  22.871  67.822  1.00  0.00     0.274 HD
ATOM     28  H92 UNL     1      25.478  22.865  68.901  1.00  0.00     0.274 HD
ATOM     29  H91 UNL     1      25.905  23.290  67.336  1.00  0.00     0.274 HD
ENDBRANCH  25  26
ENDBRANCH  22  25
ENDBRANCH  20  21
ENDBRANCH  19  20
ENDBRANCH  14  19
BRANCH  11  30
HETATM   30  N6  UNL     1      23.419  18.066  64.738  1.00  0.00    -0.344 N 
ATOM     31  H62 UNL     1      23.131  19.026  64.547  1.00  0.00     0.176 HD
ATOM     32  H61 UNL     1      23.911  17.838  65.602  1.00  0.00     0.176 HD
ENDBRANCH  11  30
BRANCH   7  33
HETATM   33  N3  UNL     1      23.550  14.211  60.435  1.00  0.00    -0.383 N 
ATOM     34  H32 UNL     1      22.930  14.683  59.776  1.00  0.00     0.157 HD
ATOM     35  H31 UNL     1      23.681  13.203  60.529  1.00  0.00     0.157 HD
ENDBRANCH   7  33
TORSDOF 7
ENDMDL
MODEL 4
REMARK VINA RESULT: -7.615527096      2.328      2.846
REMARK  7 active torsions:
REMARK  status: ('A' for Active; 'I' for Inactive)
REMARK    1  A    between atoms: C4_7  and  N3_8 
REMARK    2  A    between atoms: N5_14  and  N6_16 
REMARK    3  A    between atoms: N7_20  and  C7_22 
REMARK    4  A    between atoms: C7_22  and  C8_23 
REMARK    5  A    between atoms: C8_23  and  N8_24 
REMARK       I    between atoms: N8_24  and  C9_26 
REMARK    6  A    between atoms: C9_26  and  C10_28 
REMARK    7  A    between atoms: C10_28  and  N9_29 
ROOT
HETATM    1  C1  UNL     1      28.991  15.637  61.242  1.00  0.00     0.158 C 
HETATM    2  N1  UNL     1      27.650  15.176  60.973  1.00  0.00    -0.332 N 
HETATM    3  C2  UNL     1      27.355  14.187  60.130  1.00  0.00     0.184 A 
HETATM    4  N2  UNL     1      26.024  13.994  60.098  1.00  0.00    -0.346 N 
ATOM      5  H2  UNL     1      25.529  13.300  59.538  1.00  0.00     0.167 HD
HETATM    6  C3  UNL     1      25.467  14.884  60.940  1.00  0.00     0.122 A 
HETATM    7  C4  UNL     1      24.112  14.977  61.163  1.00  0.00     0.131 C 
HETATM    8  N4  UNL     1      23.500  15.751  62.098  1.00  0.00    -0.323 N 
ATOM      9  H4  UNL     1      22.494  15.603  62.189  1.00  0.00     0.169 HD
HETATM   10  C5  UNL     1      24.017  16.683  62.923  1.00  0.00     0.166 C 
HETATM   11  N5  UNL     1      23.198  17.103  63.815  1.00  0.00    -0.289 N 
ATOM     12  H5  UNL     1      22.252  16.722  63.842  1.00  0.00     0.188 HD
HETATM   13  C6  UNL     1      25.293  17.193  62.879  1.00  0.00     0.149 C 
HETATM   14  N7  UNL     1      25.422  18.362  63.380  1.00  0.00    -0.372 N 
ATOM     15  H7  UNL     1      24.589  18.811  63.761  1.00  0.00     0.161 HD
HETATM   16  N10 UNL     1      26.417  16.630  62.384  1.00  0.00    -0.324 N 
ATOM     17  H10 UNL     1      27.301  17.006  62.726  1.00  0.00     0.169 HD
HETATM   18  C11 UNL     1      26.500  15.627  61.490  1.00  0.00     0.140 A 
ENDROOT
BRANCH  14  19
HETATM   19  C7  UNL     1      26.664  19.088  63.442  1.00  0.00     0.141 C 
BRANCH  19  20
HETATM   20  C8  UNL     1      27.288  18.836  64.795  1.00  0.00     0.142 C 
BRANCH  20  21
HETATM   21  N8  UNL     1      28.663  18.415  64.718  1.00  0.00    -0.358 N 
HETATM   22  C9  UNL     1      29.049  17.049  64.712  1.00  0.00     0.243 C 
HETATM   23  O1  UNL     1      28.153  16.169  64.775  1.00  0.00    -0.272 OA
ATOM     24  H8  UNL     1      29.390  19.128  64.666  1.00  0.00     0.162 HD
BRANCH  22  25
HETATM   25  C10 UNL     1      30.473  16.669  64.632  1.00  0.00     0.331 C 
BRANCH  25  26
HETATM   26  N9  UNL     1      31.209  17.406  63.656  1.00  0.00    -0.071 N 
ATOM     27  H93 UNL     1      30.698  17.445  62.774  1.00  0.00     0.274 HD
ATOM     28  H92 UNL     1      31.221  18.399  63.889  1.00  0.00     0.274 HD
ATOM     29  H91 UNL     1      32.156  17.060  63.509  1.00  0.00     0.274 HD
ENDBRANCH  25  26
ENDBRANCH  22  25
ENDBRANCH  20  21
ENDBRANCH  19  20
ENDBRANCH  14  19
BRANCH  11  30
HETATM   30  N6  UNL     1      23.572  18.067  64.749  1.00  0.00    -0.344 N 
ATOM     31  H62 UNL     1      23.144  18.035  65.675  1.00  0.00     0.176 HD
ATOM     32  H61 UNL     1      24.254  18.791  64.523  1.00  0.00     0.176 HD
ENDBRANCH  11  30
BRANCH   7  33
HETATM   33  N3  UNL     1      23.364  14.259  60.408  1.00  0.00    -0.383 N 
ATOM     34  H32 UNL     1      23.201  14.590  59.456  1.00  0.00     0.157 HD
ATOM     35  H31 UNL     1      22.988  13.408  60.825  1.00  0.00     0.157 HD
ENDBRANCH   7  33
TORSDOF 7
ENDMDL
MODEL 5
REMARK VINA RESULT: -7.500153140      1.707      2.218
REMARK  7 active torsions:
REMARK  status: ('A' for Active; 'I' for Inactive)
REMARK    1  A    between atoms: C4_7  and  N3_8 
REMARK    2  A    between atoms: N5_14  and  N6_16 
REMARK    3  A    between atoms: N7_20  and  C7_22 
REMARK    4  A    between atoms: C7_22  and  C8_23 
REMARK    5  A    between atoms: C8_23  and  N8_24 
REMARK       I    between atoms: N8_24  and  C9_26 
REMARK    6  A    between atoms: C9_26  and  C10_28 
REMARK    7  A    between atoms: C10_28  and  N9_29 
ROOT
HETATM    1  C1  UNL     1      29.106  15.726  61.619  1.00  0.00     0.158 C 
HETATM    2  N1  UNL     1      27.801  15.209  61.282  1.00  0.00    -0.332 N 
HETATM    3  C2  UNL     1      27.594  14.178  60.464  1.00  0.00     0.184 A 
HETATM    4  N2  UNL     1      26.275  13.939  60.352  1.00  0.00    -0.346 N 
ATOM      5  H2  UNL     1      25.840  13.208  59.790  1.00  0.00     0.167 HD
HETATM    6  C3  UNL     1      25.635  14.842  61.118  1.00  0.00     0.122 A 
HETATM    7  C4  UNL     1      24.267  14.898  61.248  1.00  0.00     0.131 C 
HETATM    8  N4  UNL     1      23.569  15.687  62.107  1.00  0.00    -0.323 N 
ATOM      9  H4  UNL     1      22.565  15.509  62.139  1.00  0.00     0.169 HD
HETATM   10  C5  UNL     1      24.001  16.668  62.926  1.00  0.00     0.166 C 
HETATM   11  N5  UNL     1      23.111  17.094  63.744  1.00  0.00    -0.289 N 
ATOM     12  H5  UNL     1      22.178  16.683  63.724  1.00  0.00     0.188 HD
HETATM   13  C6  UNL     1      25.260  17.218  62.944  1.00  0.00     0.149 C 
HETATM   14  N7  UNL     1      25.319  18.410  63.403  1.00  0.00    -0.372 N 
ATOM     15  H7  UNL     1      24.449  18.845  63.711  1.00  0.00     0.161 HD
HETATM   16  N10 UNL     1      26.432  16.674  62.547  1.00  0.00    -0.324 N 
ATOM     17  H10 UNL     1      27.279  17.094  62.931  1.00  0.00     0.169 HD
HETATM   18  C11 UNL     1      26.605  15.641  61.704  1.00  0.00     0.140 A 
ENDROOT
BRANCH  14  19
HETATM   19  C7  UNL     1      26.530  19.180  63.517  1.00  0.00     0.141 C 
BRANCH  19  20
HETATM   20  C8  UNL     1      26.316  20.240  64.573  1.00  0.00     0.142 C 
BRANCH  20  21
HETATM   21  N8  UNL     1      26.297  19.713  65.913  1.00  0.00    -0.358 N 
HETATM   22  C9  UNL     1      25.211  19.918  66.803  1.00  0.00     0.243 C 
HETATM   23  O1  UNL     1      24.223  20.586  66.405  1.00  0.00    -0.272 OA
ATOM     24  H8  UNL     1      27.098  19.170  66.236  1.00  0.00     0.162 HD
BRANCH  22  25
HETATM   25  C10 UNL     1      25.240  19.356  68.168  1.00  0.00     0.331 C 
BRANCH  25  26
HETATM   26  N9  UNL     1      24.935  17.963  68.221  1.00  0.00    -0.071 N 
ATOM     27  H93 UNL     1      24.092  17.758  67.683  1.00  0.00     0.274 HD
ATOM     28  H92 UNL     1      25.615  17.425  67.684  1.00  0.00     0.274 HD
ATOM     29  H91 UNL     1      24.855  17.597  69.169  1.00  0.00     0.274 HD
ENDBRANCH  25  26
ENDBRANCH  22  25
ENDBRANCH  20  21
ENDBRANCH  19  20
ENDBRANCH  14  19
BRANCH  11  30
HETATM   30  N6  UNL     1      23.391  18.107  64.659  1.00  0.00    -0.344 N 
ATOM     31  H62 UNL     1      23.948  18.902  64.346  1.00  0.00     0.176 HD
ATOM     32  H61 UNL     1      23.052  18.063  65.621  1.00  0.00     0.176 HD
ENDBRANCH  11  30
BRANCH   7  33
HETATM   33  N3  UNL     1      23.593  14.126  60.476  1.00  0.00    -0.383 N 
ATOM     34  H32 UNL     1      24.117  13.497  59.867  1.00  0.00     0.157 HD
ATOM     35  H31 UNL     1      22.578  14.206  60.534  1.00  0.00     0.157 HD
ENDBRANCH   7  33
TORSDOF 7
ENDMDL
