MODEL 1
REMARK VINA RESULT: -6.740320753      0.000      0.000
REMARK  8 active torsions:
REMARK  status: ('A' for Active; 'I' for Inactive)
REMARK    1  A    between atoms: C1_4  and  N2_5 
REMARK    2  A    between atoms: N2_5  and  N3_6 
REMARK    3  A    between atoms: N2_5  and  C2_9 
REMARK    4  A    between atoms: C2_9  and  C3_10 
REMARK    5  A    between atoms: C4_13  and  N5_14 
REMARK    6  A    between atoms: C6_20  and  N7_21 
REMARK    7  A    between atoms: N7_21  and  C7_23 
REMARK    8  A    between atoms: C7_23  and  C8_24 
ROOT
HETATM    1  C3  UNL     1      26.125  16.082  62.797  1.00  0.00     0.075 A 
HETATM    2  N4  UNL     1      24.809  16.318  62.863  1.00  0.00    -0.192 N 
ATOM      3  H4  UNL     1      24.174  15.708  62.348  1.00  0.00     0.184 HD
HETATM    4  C4  UNL     1      24.294  17.330  63.583  1.00  0.00     0.676 A 
HETATM    5  N6  UNL     1      25.106  18.153  64.274  1.00  0.00    -0.186 N 
ATOM      6  H6  UNL     1      24.710  18.919  64.819  1.00  0.00     0.184 HD
HETATM    7  C5  UNL     1      26.442  17.968  64.249  1.00  0.00     0.121 A 
HETATM    8  C6  UNL     1      27.295  18.814  64.961  1.00  0.00     0.132 A 
HETATM    9  N9  UNL     1      28.623  18.596  64.910  1.00  0.00    -0.337 N 
ATOM     10  H9  UNL     1      29.257  19.207  65.425  1.00  0.00     0.168 HD
HETATM   11  C9  UNL     1      29.118  17.575  64.181  1.00  0.00     0.182 A 
HETATM   12  N10 UNL     1      28.312  16.751  63.489  1.00  0.00    -0.349 N 
ATOM     13  H10 UNL     1      28.716  15.987  62.948  1.00  0.00     0.167 HD
HETATM   14  C10 UNL     1      26.957  16.926  63.505  1.00  0.00     0.089 A 
ENDROOT
BRANCH   1  15
HETATM   15  C2  UNL     1      26.753  15.001  62.034  1.00  0.00     0.209 C 
BRANCH  15  16
HETATM   16  N2  UNL     1      26.403  14.960  60.648  1.00  0.00    -0.289 N 
BRANCH  16  17
HETATM   17  C1  UNL     1      26.884  16.051  59.849  1.00  0.00     0.193 C 
HETATM   18  N1  UNL     1      26.017  16.811  59.280  1.00  0.00    -0.394 N 
ATOM     19  H12 UNL     1      25.021  16.630  59.404  1.00  0.00     0.156 HD
ATOM     20  H11 UNL     1      26.358  17.586  58.713  1.00  0.00     0.156 HD
ENDBRANCH  16  17
BRANCH  16  21
HETATM   21  N3  UNL     1      25.665  13.995  60.012  1.00  0.00    -0.342 N 
ATOM     22  H32 UNL     1      25.964  13.409  59.232  1.00  0.00     0.177 HD
ATOM     23  H31 UNL     1      24.715  13.838  60.347  1.00  0.00     0.177 HD
ENDBRANCH  16  21
ENDBRANCH  15  16
ENDBRANCH   1  15
BRANCH   4  24
HETATM   24  N5  UNL     1      23.000  17.538  63.628  1.00  0.00    -0.234 N 
ATOM     25  H52 UNL     1      22.600  18.270  63.041  1.00  0.00     0.174 HD
ATOM     26  H51 UNL     1      22.399  16.982  64.236  1.00  0.00     0.174 HD
ENDBRANCH   4  24
BRANCH   8  27
HETATM   27  N7  UNL     1      26.749  19.754  65.623  1.00  0.00    -0.366 N 
ATOM     28  H7  UNL     1      25.950  19.506  66.206  1.00  0.00     0.161 HD
BRANCH  27  29
HETATM   29  C7  UNL     1      27.154  21.128  65.625  1.00  0.00     0.220 C 
BRANCH  29  30
HETATM   30  C8  UNL     1      26.419  21.965  64.672  1.00  0.00     0.248 C 
HETATM   31  N8  UNL     1      25.207  21.485  64.117  1.00  0.00    -0.061 NA
HETATM   32  O1  UNL     1      26.820  23.101  64.324  1.00  0.00    -0.275 OA
ENDBRANCH  29  30
ENDBRANCH  27  29
ENDBRANCH   8  27
TORSDOF 8
ENDMDL
MODEL 2
REMARK VINA RESULT: -6.637138631      2.190      2.839
REMARK  8 active torsions:
REMARK  status: ('A' for Active; 'I' for Inactive)
REMARK    1  A    between atoms: C1_4  and  N2_5 
REMARK    2  A    between atoms: N2_5  and  N3_6 
REMARK    3  A    between atoms: N2_5  and  C2_9 
REMARK    4  A    between atoms: C2_9  and  C3_10 
REMARK    5  A    between atoms: C4_13  and  N5_14 
REMARK    6  A    between atoms: C6_20  and  N7_21 
REMARK    7  A    between atoms: N7_21  and  C7_23 
REMARK    8  A    between atoms: C7_23  and  C8_24 
ROOT
HETATM    1  C3  UNL     1      24.482  16.651  62.212  1.00  0.00     0.075 A 
HETATM    2  N4  UNL     1      23.774  16.869  63.327  1.00  0.00    -0.192 N 
ATOM      3  H4  UNL     1      22.954  16.291  63.508  1.00  0.00     0.184 HD
HETATM    4  C4  UNL     1      24.106  17.822  64.215  1.00  0.00     0.676 A 
HETATM    5  N6  UNL     1      25.183  18.602  64.003  1.00  0.00    -0.186 N 
ATOM      6  H6  UNL     1      25.430  19.323  64.681  1.00  0.00     0.184 HD
HETATM    7  C5  UNL     1      25.938  18.432  62.899  1.00  0.00     0.121 A 
HETATM    8  C6  UNL     1      27.058  19.234  62.667  1.00  0.00     0.132 A 
HETATM    9  N9  UNL     1      27.786  19.033  61.552  1.00  0.00    -0.337 N 
ATOM     10  H9  UNL     1      28.607  19.612  61.371  1.00  0.00     0.168 HD
HETATM   11  C9  UNL     1      27.436  18.071  60.674  1.00  0.00     0.182 A 
HETATM   12  N10 UNL     1      26.361  17.290  60.881  1.00  0.00    -0.349 N 
ATOM     13  H10 UNL     1      26.122  16.570  60.199  1.00  0.00     0.167 HD
HETATM   14  C10 UNL     1      25.587  17.451  61.995  1.00  0.00     0.089 A 
ENDROOT
BRANCH   1  15
HETATM   15  C2  UNL     1      24.180  15.633  61.203  1.00  0.00     0.209 C 
BRANCH  15  16
HETATM   16  N2  UNL     1      24.324  14.282  61.649  1.00  0.00    -0.289 N 
BRANCH  16  17
HETATM   17  C1  UNL     1      25.667  13.775  61.685  1.00  0.00     0.193 C 
HETATM   18  N1  UNL     1      26.300  13.661  60.573  1.00  0.00    -0.394 N 
ATOM     19  H12 UNL     1      25.847  13.928  59.698  1.00  0.00     0.156 HD
ATOM     20  H11 UNL     1      27.254  13.301  60.599  1.00  0.00     0.156 HD
ENDBRANCH  16  17
BRANCH  16  21
HETATM   21  N3  UNL     1      23.322  13.431  62.041  1.00  0.00    -0.342 N 
ATOM     22  H32 UNL     1      23.384  12.418  62.147  1.00  0.00     0.177 HD
ATOM     23  H31 UNL     1      22.415  13.845  62.252  1.00  0.00     0.177 HD
ENDBRANCH  16  21
ENDBRANCH  15  16
ENDBRANCH   1  15
BRANCH   4  24
HETATM   24  N5  UNL     1      23.392  18.013  65.299  1.00  0.00    -0.234 N 
ATOM     25  H52 UNL     1      22.468  17.586  65.359  1.00  0.00     0.174 HD
ATOM     26  H51 UNL     1      23.749  18.577  66.070  1.00  0.00     0.174 HD
ENDBRANCH   4  24
BRANCH   8  27
HETATM   27  N7  UNL     1      27.321  20.119  63.543  1.00  0.00    -0.366 N 
ATOM     28  H7  UNL     1      26.735  20.954  63.547  1.00  0.00     0.161 HD
BRANCH  27  29
HETATM   29  C7  UNL     1      28.363  20.051  64.523  1.00  0.00     0.220 C 
BRANCH  29  30
HETATM   30  C8  UNL     1      29.577  20.784  64.152  1.00  0.00     0.248 C 
HETATM   31  N8  UNL     1      30.460  21.226  65.168  1.00  0.00    -0.061 NA
HETATM   32  O1  UNL     1      29.872  21.038  62.961  1.00  0.00    -0.275 OA
ENDBRANCH  29  30
ENDBRANCH  27  29
ENDBRANCH   8  27
TORSDOF 8
ENDMDL
MODEL 3
REMARK VINA RESULT: -6.608833177      2.188      3.584
REMARK  8 active torsions:
REMARK  status: ('A' for Active; 'I' for Inactive)
REMARK    1  A    between atoms: C1_4  and  N2_5 
REMARK    2  A    between atoms: N2_5  and  N3_6 
REMARK    3  A    between atoms: N2_5  and  C2_9 
REMARK    4  A    between atoms: C2_9  and  C3_10 
REMARK    5  A    between atoms: C4_13  and  N5_14 
REMARK    6  A    between atoms: C6_20  and  N7_21 
REMARK    7  A    between atoms: N7_21  and  C7_23 
REMARK    8  A    between atoms: C7_23  and  C8_24 
ROOT
HETATM    1  C3  UNL     1      26.668  16.438  60.450  1.00  0.00     0.075 A 
HETATM    2  N4  UNL     1      26.799  17.123  59.308  1.00  0.00    -0.192 N 
ATOM      3  H4  UNL     1      26.296  16.801  58.481  1.00  0.00     0.184 HD
HETATM    4  C4  UNL     1      27.570  18.221  59.211  1.00  0.00     0.676 A 
HETATM    5  N6  UNL     1      28.246  18.672  60.285  1.00  0.00    -0.186 N 
ATOM      6  H6  UNL     1      28.829  19.505  60.206  1.00  0.00     0.184 HD
HETATM    7  C5  UNL     1      28.155  18.025  61.466  1.00  0.00     0.121 A 
HETATM    8  C6  UNL     1      28.852  18.483  62.587  1.00  0.00     0.132 A 
HETATM    9  N9  UNL     1      28.735  17.810  63.747  1.00  0.00    -0.337 N 
ATOM     10  H9  UNL     1      29.239  18.133  64.574  1.00  0.00     0.168 HD
HETATM   11  C9  UNL     1      27.956  16.711  63.822  1.00  0.00     0.182 A 
HETATM   12  N10 UNL     1      27.279  16.256  62.753  1.00  0.00    -0.349 N 
ATOM     13  H10 UNL     1      26.698  15.423  62.841  1.00  0.00     0.167 HD
HETATM   14  C10 UNL     1      27.362  16.900  61.551  1.00  0.00     0.089 A 
ENDROOT
BRANCH   1  15
HETATM   15  C2  UNL     1      25.848  15.237  60.627  1.00  0.00     0.209 C 
BRANCH  15  16
HETATM   16  N2  UNL     1      24.474  15.486  60.935  1.00  0.00    -0.289 N 
BRANCH  16  17
HETATM   17  C1  UNL     1      23.804  14.458  61.680  1.00  0.00     0.193 C 
HETATM   18  N1  UNL     1      24.460  13.389  61.960  1.00  0.00    -0.394 N 
ATOM     19  H12 UNL     1      25.428  13.291  61.655  1.00  0.00     0.156 HD
ATOM     20  H11 UNL     1      23.984  12.660  62.489  1.00  0.00     0.156 HD
ENDBRANCH  16  17
BRANCH  16  21
HETATM   21  N3  UNL     1      23.740  16.594  60.595  1.00  0.00    -0.342 N 
ATOM     22  H32 UNL     1      22.754  16.621  60.336  1.00  0.00     0.177 HD
ATOM     23  H31 UNL     1      24.223  17.492  60.600  1.00  0.00     0.177 HD
ENDBRANCH  16  21
ENDBRANCH  15  16
ENDBRANCH   1  15
BRANCH   4  24
HETATM   24  N5  UNL     1      27.680  18.872  58.078  1.00  0.00    -0.234 N 
ATOM     25  H52 UNL     1      27.075  18.607  57.300  1.00  0.00     0.174 HD
ATOM     26  H51 UNL     1      28.355  19.629  57.970  1.00  0.00     0.174 HD
ENDBRANCH   4  24
BRANCH   8  27
HETATM   27  N7  UNL     1      29.565  19.525  62.433  1.00  0.00    -0.366 N 
ATOM     28  H7  UNL     1      30.050  19.627  61.542  1.00  0.00     0.161 HD
BRANCH  27  29
HETATM   29  C7  UNL     1      29.750  20.569  63.397  1.00  0.00     0.220 C 
BRANCH  29  30
HETATM   30  C8  UNL     1      28.533  20.917  64.137  1.00  0.00     0.248 C 
HETATM   31  N8  UNL     1      28.362  20.434  65.458  1.00  0.00    -0.061 NA
HETATM   32  O1  UNL     1      27.628  21.632  63.647  1.00  0.00    -0.275 OA
ENDBRANCH  29  30
ENDBRANCH  27  29
ENDBRANCH   8  27
TORSDOF 8
ENDMDL
MODEL 4
REMARK VINA RESULT: -6.591359354      1.839      3.172
REMARK  8 active torsions:
REMARK  status: ('A' for Active; 'I' for Inactive)
REMARK    1  A    between atoms: C1_4  and  N2_5 
REMARK    2  A    between atoms: N2_5  and  N3_6 
REMARK    3  A    between atoms: N2_5  and  C2_9 
REMARK    4  A    between atoms: C2_9  and  C3_10 
REMARK    5  A    between atoms: C4_13  and  N5_14 
REMARK    6  A    between atoms: C6_20  and  N7_21 
REMARK    7  A    between atoms: N7_21  and  C7_23 
REMARK    8  A    between atoms: C7_23  and  C8_24 
ROOT
HETATM    1  C3  UNL     1      25.398  17.096  61.584  1.00  0.00     0.075 A 
HETATM    2  N4  UNL     1      26.587  17.429  61.068  1.00  0.00    -0.192 N 
ATOM      3  H4  UNL     1      26.853  17.048  60.160  1.00  0.00     0.184 HD
HETATM    4  C4  UNL     1      27.443  18.248  61.703  1.00  0.00     0.676 A 
HETATM    5  N6  UNL     1      27.121  18.769  62.903  1.00  0.00    -0.186 N 
ATOM      6  H6  UNL     1      27.775  19.390  63.380  1.00  0.00     0.184 HD
HETATM    7  C5  UNL     1      25.937  18.472  63.476  1.00  0.00     0.121 A 
HETATM    8  C6  UNL     1      25.591  19.005  64.720  1.00  0.00     0.132 A 
HETATM    9  N9  UNL     1      24.400  18.684  65.260  1.00  0.00    -0.337 N 
ATOM     10  H9  UNL     1      24.135  19.066  66.168  1.00  0.00     0.168 HD
HETATM   11  C9  UNL     1      23.556  17.860  64.606  1.00  0.00     0.182 A 
HETATM   12  N10 UNL     1      23.872  17.338  63.408  1.00  0.00    -0.349 N 
ATOM     13  H10 UNL     1      23.213  16.718  62.937  1.00  0.00     0.167 HD
HETATM   14  C10 UNL     1      25.068  17.629  62.814  1.00  0.00     0.089 A 
ENDROOT
BRANCH   1  15
HETATM   15  C2  UNL     1      24.418  16.211  60.950  1.00  0.00     0.209 C 
BRANCH  15  16
HETATM   16  N2  UNL     1      24.757  14.822  60.973  1.00  0.00    -0.289 N 
BRANCH  16  17
HETATM   17  C1  UNL     1      24.206  14.062  62.058  1.00  0.00     0.193 C 
HETATM   18  N1  UNL     1      23.188  13.315  61.817  1.00  0.00    -0.394 N 
ATOM     19  H12 UNL     1      22.795  13.276  60.876  1.00  0.00     0.156 HD
ATOM     20  H11 UNL     1      22.796  12.775  62.588  1.00  0.00     0.156 HD
ENDBRANCH  16  17
BRANCH  16  21
HETATM   21  N3  UNL     1      25.546  14.150  60.074  1.00  0.00    -0.342 N 
ATOM     22  H32 UNL     1      25.498  13.159  59.837  1.00  0.00     0.177 HD
ATOM     23  H31 UNL     1      26.258  14.691  59.584  1.00  0.00     0.177 HD
ENDBRANCH  16  21
ENDBRANCH  15  16
ENDBRANCH   1  15
BRANCH   4  24
HETATM   24  N5  UNL     1      28.603  18.557  61.173  1.00  0.00    -0.234 N 
ATOM     25  H52 UNL     1      28.867  18.125  60.287  1.00  0.00     0.174 HD
ATOM     26  H51 UNL     1      29.233  19.214  61.632  1.00  0.00     0.174 HD
ENDBRANCH   4  24
BRANCH   8  27
HETATM   27  N7  UNL     1      26.443  19.773  65.272  1.00  0.00    -0.366 N 
ATOM     28  H7  UNL     1      27.317  19.348  65.582  1.00  0.00     0.161 HD
BRANCH  27  29
HETATM   29  C7  UNL     1      26.287  21.179  65.499  1.00  0.00     0.220 C 
BRANCH  29  30
HETATM   30  C8  UNL     1      27.071  22.018  64.588  1.00  0.00     0.248 C 
HETATM   31  N8  UNL     1      28.128  21.436  63.844  1.00  0.00    -0.061 NA
HETATM   32  O1  UNL     1      26.844  23.240  64.435  1.00  0.00    -0.275 OA
ENDBRANCH  29  30
ENDBRANCH  27  29
ENDBRANCH   8  27
TORSDOF 8
ENDMDL
MODEL 5
REMARK VINA RESULT: -6.583969277      0.889      1.285
REMARK  8 active torsions:
REMARK  status: ('A' for Active; 'I' for Inactive)
REMARK    1  A    between atoms: C1_4  and  N2_5 
REMARK    2  A    between atoms: N2_5  and  N3_6 
REMARK    3  A    between atoms: N2_5  and  C2_9 
REMARK    4  A    between atoms: C2_9  and  C3_10 
REMARK    5  A    between atoms: C4_13  and  N5_14 
REMARK    6  A    between atoms: C6_20  and  N7_21 
REMARK    7  A    between atoms: N7_21  and  C7_23 
REMARK    8  A    between atoms: C7_23  and  C8_24 
ROOT
HETATM    1  C3  UNL     1      26.688  16.962  62.280  1.00  0.00     0.075 A 
HETATM    2  N4  UNL     1      25.365  16.815  62.423  1.00  0.00    -0.192 N 
ATOM      3  H4  UNL     1      24.868  16.197  61.783  1.00  0.00     0.184 HD
HETATM    4  C4  UNL     1      24.669  17.454  63.380  1.00  0.00     0.676 A 
HETATM    5  N6  UNL     1      25.298  18.277  64.241  1.00  0.00    -0.186 N 
ATOM      6  H6  UNL     1      24.765  18.759  64.965  1.00  0.00     0.184 HD
HETATM    7  C5  UNL     1      26.630  18.467  64.149  1.00  0.00     0.121 A 
HETATM    8  C6  UNL     1      27.294  19.318  65.036  1.00  0.00     0.132 A 
HETATM    9  N9  UNL     1      28.624  19.482  64.912  1.00  0.00    -0.337 N 
ATOM     10  H9  UNL     1      29.121  20.101  65.553  1.00  0.00     0.168 HD
HETATM   11  C9  UNL     1      29.303  18.832  63.944  1.00  0.00     0.182 A 
HETATM   12  N10 UNL     1      28.681  18.009  63.082  1.00  0.00    -0.349 N 
ATOM     13  H10 UNL     1      29.221  17.530  62.361  1.00  0.00     0.167 HD
HETATM   14  C10 UNL     1      27.332  17.807  63.162  1.00  0.00     0.089 A 
ENDROOT
BRANCH   1  15
HETATM   15  C2  UNL     1      27.508  16.300  61.263  1.00  0.00     0.209 C 
BRANCH  15  16
HETATM   16  N2  UNL     1      26.823  15.988  60.047  1.00  0.00    -0.289 N 
BRANCH  16  17
HETATM   17  C1  UNL     1      26.657  14.591  59.762  1.00  0.00     0.193 C 
HETATM   18  N1  UNL     1      25.571  14.021  60.147  1.00  0.00    -0.394 N 
ATOM     19  H12 UNL     1      24.859  14.560  60.639  1.00  0.00     0.156 HD
ATOM     20  H11 UNL     1      25.454  13.029  59.945  1.00  0.00     0.156 HD
ENDBRANCH  16  17
BRANCH  16  21
HETATM   21  N3  UNL     1      26.314  16.878  59.135  1.00  0.00    -0.342 N 
ATOM     22  H32 UNL     1      26.696  17.102  58.217  1.00  0.00     0.177 HD
ATOM     23  H31 UNL     1      25.461  17.374  59.394  1.00  0.00     0.177 HD
ENDBRANCH  16  21
ENDBRANCH  15  16
ENDBRANCH   1  15
BRANCH   4  24
HETATM   24  N5  UNL     1      23.373  17.291  63.495  1.00  0.00    -0.234 N 
ATOM     25  H52 UNL     1      23.025  16.481  64.008  1.00  0.00     0.174 HD
ATOM     26  H51 UNL     1      22.721  17.958  63.084  1.00  0.00     0.174 HD
ENDBRANCH   4  24
BRANCH   8  27
HETATM   27  N7  UNL     1      26.581  19.895  65.919  1.00  0.00    -0.366 N 
ATOM     28  H7  UNL     1      26.150  19.301  66.627  1.00  0.00     0.161 HD
BRANCH  27  29
HETATM   29  C7  UNL     1      26.329  21.302  66.011  1.00  0.00     0.220 C 
BRANCH  29  30
HETATM   30  C8  UNL     1      26.096  21.950  64.716  1.00  0.00     0.248 C 
HETATM   31  N8  UNL     1      24.948  21.601  63.963  1.00  0.00    -0.061 NA
HETATM   32  O1  UNL     1      26.876  22.809  64.243  1.00  0.00    -0.275 OA
ENDBRANCH  29  30
ENDBRANCH  27  29
ENDBRANCH   8  27
TORSDOF 8
ENDMDL
