MODEL 1
REMARK VINA RESULT: -6.991744686      0.000      0.000
REMARK  10 active torsions:
REMARK  status: ('A' for Active; 'I' for Inactive)
REMARK    1  A    between atoms: N2_7  and  N3_8 
REMARK    2  A    between atoms: N3_8  and  C4_10 
REMARK    3  A    between atoms: C5_13  and  N5_14 
REMARK    4  A    between atoms: N5_14  and  C6_16 
REMARK    5  A    between atoms: C6_16  and  C7_17 
REMARK    6  A    between atoms: C7_17  and  O2_18 
REMARK    7  A    between atoms: C8_22  and  N7_23 
REMARK    8  A    between atoms: N7_23  and  C9_25 
REMARK    9  A    between atoms: C9_25  and  C10_26 
REMARK   10  A    between atoms: C10_26  and  O3_27 
ROOT
HETATM    1  C4  UNL     1      26.290  18.513  62.543  1.00  0.00     0.726 A 
HETATM    2  N4  UNL     1      26.201  18.593  63.882  1.00  0.00    -0.020 N 
ATOM      3  H4  UNL     1      26.860  19.176  64.397  1.00  0.00     0.203 HD
HETATM    4  C5  UNL     1      25.254  17.916  64.548  1.00  0.00     0.707 A 
HETATM    5  N6  UNL     1      24.390  17.153  63.850  1.00  0.00    -0.022 N 
ATOM      6  H6  UNL     1      23.669  16.639  64.357  1.00  0.00     0.203 HD
HETATM    7  C8  UNL     1      24.443  17.044  62.514  1.00  0.00     0.707 A 
HETATM    8  N8  UNL     1      25.405  17.735  61.878  1.00  0.00    -0.020 N 
ATOM      9  H8  UNL     1      25.469  17.671  60.861  1.00  0.00     0.203 HD
ENDROOT
BRANCH   1  10
HETATM   10  N3  UNL     1      27.201  19.161  61.899  1.00  0.00    -0.125 N 
ATOM     11  H3  UNL     1      27.001  19.522  60.965  1.00  0.00     0.206 HD
BRANCH  10  12
HETATM   12  N2  UNL     1      28.444  19.370  62.467  1.00  0.00    -0.227 N 
HETATM   13  C1  UNL     1      28.841  20.456  63.331  1.00  0.00     0.337 C 
HETATM   14  O1  UNL     1      28.240  21.554  63.473  1.00  0.00    -0.245 OA
HETATM   15  N1  UNL     1      30.033  20.086  64.012  1.00  0.00    -0.340 N 
HETATM   16  C2  UNL     1      30.225  18.676  63.744  1.00  0.00     0.146 C 
ATOM     17  H1  UNL     1      30.631  20.692  64.575  1.00  0.00     0.164 HD
HETATM   18  C3  UNL     1      29.643  18.560  62.335  1.00  0.00     0.174 C 
ENDBRANCH  10  12
ENDBRANCH   1  10
BRANCH   4  19
HETATM   19  N5  UNL     1      25.130  17.963  65.828  1.00  0.00    -0.223 N 
ATOM     20  H5  UNL     1      25.901  17.704  66.444  1.00  0.00     0.177 HD
BRANCH  19  21
HETATM   21  C6  UNL     1      23.855  18.396  66.362  1.00  0.00     0.164 C 
BRANCH  21  22
HETATM   22  C7  UNL     1      23.630  19.825  65.860  1.00  0.00     0.184 C 
BRANCH  22  23
HETATM   23  O2  UNL     1      22.554  19.814  64.975  1.00  0.00    -0.399 OA
ATOM     24  H2  UNL     1      21.854  20.336  65.350  1.00  0.00     0.209 HD
ENDBRANCH  22  23
ENDBRANCH  21  22
ENDBRANCH  19  21
ENDBRANCH   4  19
BRANCH   7  25
HETATM   25  N7  UNL     1      23.649  16.337  61.834  1.00  0.00    -0.223 N 
ATOM     26  H7  UNL     1      22.727  16.743  61.669  1.00  0.00     0.177 HD
BRANCH  25  27
HETATM   27  C9  UNL     1      23.863  15.045  61.265  1.00  0.00     0.164 C 
BRANCH  27  28
HETATM   28  C10 UNL     1      24.146  13.986  62.319  1.00  0.00     0.184 C 
BRANCH  28  29
HETATM   29  O3  UNL     1      22.999  13.660  63.031  1.00  0.00    -0.399 OA
ATOM     30  H3  UNL     1      23.203  13.425  63.929  1.00  0.00     0.209 HD
ENDBRANCH  28  29
ENDBRANCH  27  28
ENDBRANCH  25  27
ENDBRANCH   7  25
TORSDOF 10
ENDMDL
MODEL 2
REMARK VINA RESULT: -6.968934473      2.235      5.632
REMARK  10 active torsions:
REMARK  status: ('A' for Active; 'I' for Inactive)
REMARK    1  A    between atoms: N2_7  and  N3_8 
REMARK    2  A    between atoms: N3_8  and  C4_10 
REMARK    3  A    between atoms: C5_13  and  N5_14 
REMARK    4  A    between atoms: N5_14  and  C6_16 
REMARK    5  A    between atoms: C6_16  and  C7_17 
REMARK    6  A    between atoms: C7_17  and  O2_18 
REMARK    7  A    between atoms: C8_22  and  N7_23 
REMARK    8  A    between atoms: N7_23  and  C9_25 
REMARK    9  A    between atoms: C9_25  and  C10_26 
REMARK   10  A    between atoms: C10_26  and  O3_27 
ROOT
HETATM    1  C4  UNL     1      26.189  17.206  61.106  1.00  0.00     0.726 A 
HETATM    2  N4  UNL     1      25.473  17.851  62.043  1.00  0.00    -0.020 N 
ATOM      3  H4  UNL     1      24.479  17.651  62.145  1.00  0.00     0.203 HD
HETATM    4  C5  UNL     1      26.052  18.756  62.845  1.00  0.00     0.707 A 
HETATM    5  N6  UNL     1      27.368  19.007  62.697  1.00  0.00    -0.022 N 
ATOM      6  H6  UNL     1      27.809  19.695  63.309  1.00  0.00     0.203 HD
HETATM    7  C8  UNL     1      28.120  18.386  61.776  1.00  0.00     0.707 A 
HETATM    8  N8  UNL     1      27.508  17.485  60.988  1.00  0.00    -0.020 N 
ATOM      9  H8  UNL     1      28.055  16.997  60.278  1.00  0.00     0.203 HD
ENDROOT
BRANCH   1  10
HETATM   10  N3  UNL     1      25.635  16.335  60.332  1.00  0.00    -0.125 N 
ATOM     11  H3  UNL     1      25.564  16.519  59.331  1.00  0.00     0.206 HD
BRANCH  10  12
HETATM   12  N2  UNL     1      25.139  15.153  60.851  1.00  0.00    -0.227 N 
HETATM   13  C1  UNL     1      25.897  14.025  61.338  1.00  0.00     0.337 C 
HETATM   14  O1  UNL     1      27.109  13.779  61.097  1.00  0.00    -0.245 OA
HETATM   15  N1  UNL     1      25.049  13.220  62.147  1.00  0.00    -0.340 N 
HETATM   16  C2  UNL     1      23.841  13.993  62.352  1.00  0.00     0.146 C 
ATOM     17  H1  UNL     1      25.251  12.288  62.510  1.00  0.00     0.164 HD
HETATM   18  C3  UNL     1      23.753  14.760  61.033  1.00  0.00     0.174 C 
ENDBRANCH  10  12
ENDBRANCH   1  10
BRANCH   4  19
HETATM   19  N5  UNL     1      25.407  19.399  63.755  1.00  0.00    -0.223 N 
ATOM     20  H5  UNL     1      25.408  20.419  63.784  1.00  0.00     0.177 HD
BRANCH  19  21
HETATM   21  C6  UNL     1      24.681  18.620  64.737  1.00  0.00     0.164 C 
BRANCH  21  22
HETATM   22  C7  UNL     1      23.797  19.601  65.512  1.00  0.00     0.184 C 
BRANCH  22  23
HETATM   23  O2  UNL     1      22.564  19.682  64.868  1.00  0.00    -0.399 OA
ATOM     24  H2  UNL     1      21.970  19.067  65.282  1.00  0.00     0.209 HD
ENDBRANCH  22  23
ENDBRANCH  21  22
ENDBRANCH  19  21
ENDBRANCH   4  19
BRANCH   7  25
HETATM   25  N7  UNL     1      29.353  18.601  61.614  1.00  0.00    -0.223 N 
ATOM     26  H7  UNL     1      29.624  18.933  60.688  1.00  0.00     0.177 HD
BRANCH  25  27
HETATM   27  C9  UNL     1      30.420  18.442  62.548  1.00  0.00     0.164 C 
BRANCH  27  28
HETATM   28  C10 UNL     1      31.097  17.085  62.431  1.00  0.00     0.184 C 
BRANCH  28  29
HETATM   29  O3  UNL     1      32.299  17.176  61.741  1.00  0.00    -0.399 OA
ATOM     30  H3  UNL     1      32.916  17.739  62.194  1.00  0.00     0.209 HD
ENDBRANCH  28  29
ENDBRANCH  27  28
ENDBRANCH  25  27
ENDBRANCH   7  25
TORSDOF 10
ENDMDL
MODEL 3
REMARK VINA RESULT: -6.933437464      2.470      6.469
REMARK  10 active torsions:
REMARK  status: ('A' for Active; 'I' for Inactive)
REMARK    1  A    between atoms: N2_7  and  N3_8 
REMARK    2  A    between atoms: N3_8  and  C4_10 
REMARK    3  A    between atoms: C5_13  and  N5_14 
REMARK    4  A    between atoms: N5_14  and  C6_16 
REMARK    5  A    between atoms: C6_16  and  C7_17 
REMARK    6  A    between atoms: C7_17  and  O2_18 
REMARK    7  A    between atoms: C8_22  and  N7_23 
REMARK    8  A    between atoms: N7_23  and  C9_25 
REMARK    9  A    between atoms: C9_25  and  C10_26 
REMARK   10  A    between atoms: C10_26  and  O3_27 
ROOT
HETATM    1  C4  UNL     1      26.291  17.183  61.043  1.00  0.00     0.726 A 
HETATM    2  N4  UNL     1      27.606  17.436  60.922  1.00  0.00    -0.020 N 
ATOM      3  H4  UNL     1      28.153  16.934  60.223  1.00  0.00     0.203 HD
HETATM    4  C5  UNL     1      28.206  18.340  61.709  1.00  0.00     0.707 A 
HETATM    5  N6  UNL     1      27.466  18.995  62.626  1.00  0.00    -0.022 N 
ATOM      6  H6  UNL     1      27.922  19.684  63.224  1.00  0.00     0.203 HD
HETATM    7  C8  UNL     1      26.151  18.774  62.781  1.00  0.00     0.707 A 
HETATM    8  N8  UNL     1      25.582  17.860  61.976  1.00  0.00    -0.020 N 
ATOM      9  H8  UNL     1      24.584  17.672  62.071  1.00  0.00     0.203 HD
ENDROOT
BRANCH   1  10
HETATM   10  N3  UNL     1      25.711  16.313  60.287  1.00  0.00    -0.125 N 
ATOM     11  H3  UNL     1      25.635  16.482  59.284  1.00  0.00     0.206 HD
BRANCH  10  12
HETATM   12  N2  UNL     1      25.189  15.153  60.831  1.00  0.00    -0.227 N 
HETATM   13  C1  UNL     1      25.923  14.022  61.347  1.00  0.00     0.337 C 
HETATM   14  O1  UNL     1      27.131  13.748  61.117  1.00  0.00    -0.245 OA
HETATM   15  N1  UNL     1      25.056  13.252  62.170  1.00  0.00    -0.340 N 
HETATM   16  C2  UNL     1      23.862  14.053  62.353  1.00  0.00     0.146 C 
ATOM     17  H1  UNL     1      25.239  12.325  62.555  1.00  0.00     0.164 HD
HETATM   18  C3  UNL     1      23.795  14.791  61.016  1.00  0.00     0.174 C 
ENDBRANCH  10  12
ENDBRANCH   1  10
BRANCH   4  19
HETATM   19  N5  UNL     1      29.461  18.615  61.630  1.00  0.00    -0.223 N 
ATOM     20  H5  UNL     1      29.860  19.028  60.787  1.00  0.00     0.177 HD
BRANCH  19  21
HETATM   21  C6  UNL     1      30.285  18.315  62.782  1.00  0.00     0.164 C 
BRANCH  21  22
HETATM   22  C7  UNL     1      31.054  17.033  62.452  1.00  0.00     0.184 C 
BRANCH  22  23
HETATM   23  O2  UNL     1      32.222  17.385  61.778  1.00  0.00    -0.399 OA
ATOM     24  H2  UNL     1      32.036  17.403  60.846  1.00  0.00     0.209 HD
ENDBRANCH  22  23
ENDBRANCH  21  22
ENDBRANCH  19  21
ENDBRANCH   4  19
BRANCH   7  25
HETATM   25  N7  UNL     1      25.433  19.370  63.630  1.00  0.00    -0.223 N 
ATOM     26  H7  UNL     1      24.428  19.334  63.460  1.00  0.00     0.177 HD
BRANCH  25  27
HETATM   27  C9  UNL     1      25.836  20.089  64.796  1.00  0.00     0.164 C 
BRANCH  27  28
HETATM   28  C10 UNL     1      25.799  21.595  64.592  1.00  0.00     0.184 C 
BRANCH  28  29
HETATM   29  O3  UNL     1      24.802  21.960  63.696  1.00  0.00    -0.399 OA
ATOM     30  H3  UNL     1      23.987  22.152  64.144  1.00  0.00     0.209 HD
ENDBRANCH  28  29
ENDBRANCH  27  28
ENDBRANCH  25  27
ENDBRANCH   7  25
TORSDOF 10
ENDMDL
MODEL 4
REMARK VINA RESULT: -6.889989640      2.050      5.423
REMARK  10 active torsions:
REMARK  status: ('A' for Active; 'I' for Inactive)
REMARK    1  A    between atoms: N2_7  and  N3_8 
REMARK    2  A    between atoms: N3_8  and  C4_10 
REMARK    3  A    between atoms: C5_13  and  N5_14 
REMARK    4  A    between atoms: N5_14  and  C6_16 
REMARK    5  A    between atoms: C6_16  and  C7_17 
REMARK    6  A    between atoms: C7_17  and  O2_18 
REMARK    7  A    between atoms: C8_22  and  N7_23 
REMARK    8  A    between atoms: N7_23  and  C9_25 
REMARK    9  A    between atoms: C9_25  and  C10_26 
REMARK   10  A    between atoms: C10_26  and  O3_27 
ROOT
HETATM    1  C4  UNL     1      27.081  18.575  61.539  1.00  0.00     0.726 A 
HETATM    2  N4  UNL     1      28.314  18.952  61.918  1.00  0.00    -0.020 N 
ATOM      3  H4  UNL     1      29.122  18.655  61.371  1.00  0.00     0.203 HD
HETATM    4  C5  UNL     1      28.495  19.713  63.007  1.00  0.00     0.707 A 
HETATM    5  N6  UNL     1      27.415  20.097  63.716  1.00  0.00    -0.022 N 
ATOM      6  H6  UNL     1      27.553  20.677  64.544  1.00  0.00     0.203 HD
HETATM    7  C8  UNL     1      26.167  19.745  63.375  1.00  0.00     0.707 A 
HETATM    8  N8  UNL     1      26.021  18.980  62.278  1.00  0.00    -0.020 N 
ATOM      9  H8  UNL     1      25.083  18.697  61.994  1.00  0.00     0.203 HD
ENDROOT
BRANCH   1  10
HETATM   10  N3  UNL     1      26.903  17.842  60.492  1.00  0.00    -0.125 N 
ATOM     11  H3  UNL     1      26.973  18.259  59.564  1.00  0.00     0.206 HD
BRANCH  10  12
HETATM   12  N2  UNL     1      26.618  16.495  60.623  1.00  0.00    -0.227 N 
HETATM   13  C1  UNL     1      25.317  15.885  60.762  1.00  0.00     0.337 C 
HETATM   14  O1  UNL     1      24.251  16.468  61.098  1.00  0.00    -0.245 OA
HETATM   15  N1  UNL     1      25.425  14.502  60.453  1.00  0.00    -0.340 N 
HETATM   16  C2  UNL     1      26.747  14.321  59.887  1.00  0.00     0.146 C 
ATOM     17  H1  UNL     1      24.717  13.783  60.600  1.00  0.00     0.164 HD
HETATM   18  C3  UNL     1      27.544  15.377  60.654  1.00  0.00     0.174 C 
ENDBRANCH  10  12
ENDBRANCH   1  10
BRANCH   4  19
HETATM   19  N5  UNL     1      29.656  20.097  63.408  1.00  0.00    -0.223 N 
ATOM     20  H5  UNL     1      30.264  20.657  62.810  1.00  0.00     0.177 HD
BRANCH  19  21
HETATM   21  C6  UNL     1      30.068  19.702  64.740  1.00  0.00     0.164 C 
BRANCH  21  22
HETATM   22  C7  UNL     1      30.493  20.981  65.466  1.00  0.00     0.184 C 
BRANCH  22  23
HETATM   23  O2  UNL     1      29.509  21.947  65.264  1.00  0.00    -0.399 OA
ATOM     24  H2  UNL     1      29.754  22.729  65.746  1.00  0.00     0.209 HD
ENDBRANCH  22  23
ENDBRANCH  21  22
ENDBRANCH  19  21
ENDBRANCH   4  19
BRANCH   7  25
HETATM   25  N7  UNL     1      25.137  20.088  64.019  1.00  0.00    -0.223 N 
ATOM     26  H7  UNL     1      24.355  20.422  63.456  1.00  0.00     0.177 HD
BRANCH  25  27
HETATM   27  C9  UNL     1      24.918  20.073  65.430  1.00  0.00     0.164 C 
BRANCH  27  28
HETATM   28  C10 UNL     1      23.567  19.482  65.801  1.00  0.00     0.184 C 
BRANCH  28  29
HETATM   29  O3  UNL     1      22.570  19.916  64.937  1.00  0.00    -0.399 OA
ATOM     30  H3  UNL     1      21.770  19.417  65.054  1.00  0.00     0.209 HD
ENDBRANCH  28  29
ENDBRANCH  27  28
ENDBRANCH  25  27
ENDBRANCH   7  25
TORSDOF 10
ENDMDL
MODEL 5
REMARK VINA RESULT: -6.884657491      2.345      5.037
REMARK  10 active torsions:
REMARK  status: ('A' for Active; 'I' for Inactive)
REMARK    1  A    between atoms: N2_7  and  N3_8 
REMARK    2  A    between atoms: N3_8  and  C4_10 
REMARK    3  A    between atoms: C5_13  and  N5_14 
REMARK    4  A    between atoms: N5_14  and  C6_16 
REMARK    5  A    between atoms: C6_16  and  C7_17 
REMARK    6  A    between atoms: C7_17  and  O2_18 
REMARK    7  A    between atoms: C8_22  and  N7_23 
REMARK    8  A    between atoms: N7_23  and  C9_25 
REMARK    9  A    between atoms: C9_25  and  C10_26 
REMARK   10  A    between atoms: C10_26  and  O3_27 
ROOT
HETATM    1  C4  UNL     1      26.418  18.018  61.951  1.00  0.00     0.726 A 
HETATM    2  N4  UNL     1      25.560  17.148  61.389  1.00  0.00    -0.020 N 
ATOM      3  H4  UNL     1      24.599  17.436  61.206  1.00  0.00     0.203 HD
HETATM    4  C5  UNL     1      25.954  15.908  61.067  1.00  0.00     0.707 A 
HETATM    5  N6  UNL     1      27.228  15.547  61.315  1.00  0.00    -0.022 N 
ATOM      6  H6  UNL     1      27.528  14.603  61.068  1.00  0.00     0.203 HD
HETATM    7  C8  UNL     1      28.118  16.381  61.873  1.00  0.00     0.707 A 
HETATM    8  N8  UNL     1      27.690  17.617  62.184  1.00  0.00    -0.020 N 
ATOM      9  H8  UNL     1      28.345  18.274  62.610  1.00  0.00     0.203 HD
ENDROOT
BRANCH   1  10
HETATM   10  N3  UNL     1      26.043  19.212  62.263  1.00  0.00    -0.125 N 
ATOM     11  H3  UNL     1      25.457  19.744  61.620  1.00  0.00     0.206 HD
BRANCH  10  12
HETATM   12  N2  UNL     1      26.432  19.774  63.465  1.00  0.00    -0.227 N 
HETATM   13  C1  UNL     1      27.616  20.558  63.723  1.00  0.00     0.337 C 
HETATM   14  O1  UNL     1      28.648  20.611  63.001  1.00  0.00    -0.245 OA
HETATM   15  N1  UNL     1      27.435  21.276  64.936  1.00  0.00    -0.340 N 
HETATM   16  C2  UNL     1      26.039  21.117  65.290  1.00  0.00     0.146 C 
ATOM     17  H1  UNL     1      28.144  21.797  65.453  1.00  0.00     0.164 HD
HETATM   18  C3  UNL     1      25.755  19.715  64.749  1.00  0.00     0.174 C 
ENDBRANCH  10  12
ENDBRANCH   1  10
BRANCH   4  19
HETATM   19  N5  UNL     1      25.168  15.042  60.529  1.00  0.00    -0.223 N 
ATOM     20  H5  UNL     1      25.480  14.451  59.758  1.00  0.00     0.177 HD
BRANCH  19  21
HETATM   21  C6  UNL     1      23.823  14.939  61.059  1.00  0.00     0.164 C 
BRANCH  21  22
HETATM   22  C7  UNL     1      23.909  14.058  62.308  1.00  0.00     0.184 C 
BRANCH  22  23
HETATM   23  O2  UNL     1      22.994  13.016  62.173  1.00  0.00    -0.399 OA
ATOM     24  H2  UNL     1      23.416  12.307  61.701  1.00  0.00     0.209 HD
ENDBRANCH  22  23
ENDBRANCH  21  22
ENDBRANCH  19  21
ENDBRANCH   4  19
BRANCH   7  25
HETATM   25  N7  UNL     1      29.316  16.071  62.118  1.00  0.00    -0.223 N 
ATOM     26  H7  UNL     1      29.698  15.310  61.555  1.00  0.00     0.177 HD
BRANCH  25  27
HETATM   27  C9  UNL     1      30.211  16.639  63.074  1.00  0.00     0.164 C 
BRANCH  27  28
HETATM   28  C10 UNL     1      31.248  17.547  62.432  1.00  0.00     0.184 C 
BRANCH  28  29
HETATM   29  O3  UNL     1      30.651  18.639  61.813  1.00  0.00    -0.399 OA
ATOM     30  H3  UNL     1      30.783  18.618  60.872  1.00  0.00     0.209 HD
ENDBRANCH  28  29
ENDBRANCH  27  28
ENDBRANCH  25  27
ENDBRANCH   7  25
TORSDOF 10
ENDMDL
