MODEL 1
REMARK VINA RESULT: -7.777331163      0.000      0.000
REMARK  7 active torsions:
REMARK  status: ('A' for Active; 'I' for Inactive)
REMARK       I    between atoms: C1_4  and  N3_6 
REMARK    1  A    between atoms: N3_6  and  C2_8 
REMARK    2  A    between atoms: C2_8  and  C3_9 
REMARK    3  A    between atoms: C3_9  and  N4_10 
REMARK    4  A    between atoms: N4_10  and  C4_13 
REMARK    5  A    between atoms: C4_13  and  C5_14 
REMARK       I    between atoms: C5_14  and  N5_16 
REMARK    6  A    between atoms: N5_16  and  C6_18 
REMARK    7  A    between atoms: C12_32  and  O4_33 
ROOT
HETATM    1  C6  UNL     1      27.656  18.248  61.737  1.00  0.00     0.176 C 
HETATM    2  C7  UNL     1      26.444  18.469  62.569  1.00  0.00     0.156 C 
HETATM    3  N6  UNL     1      26.055  19.822  62.794  1.00  0.00    -0.351 N 
ATOM      4  H6  UNL     1      26.024  20.449  61.989  1.00  0.00     0.162 HD
HETATM    5  C8  UNL     1      25.709  20.358  64.065  1.00  0.00     0.309 C 
HETATM    6  O2  UNL     1      24.891  21.312  64.091  1.00  0.00    -0.262 OA
HETATM    7  C9  UNL     1      26.239  19.868  65.318  1.00  0.00     0.309 C 
HETATM    8  O3  UNL     1      25.588  20.221  66.367  1.00  0.00    -0.262 OA
HETATM    9  N7  UNL     1      27.357  19.067  65.524  1.00  0.00    -0.351 N 
ATOM     10  H7  UNL     1      27.199  18.221  66.070  1.00  0.00     0.162 HD
HETATM   11  C10 UNL     1      28.712  19.270  65.069  1.00  0.00     0.142 C 
HETATM   12  C11 UNL     1      28.940  20.439  64.190  1.00  0.00     0.141 C 
HETATM   13  N8  UNL     1      29.102  20.142  62.783  1.00  0.00    -0.371 N 
ATOM     14  H8  UNL     1      29.448  20.925  62.229  1.00  0.00     0.161 HD
HETATM   15  C12 UNL     1      28.873  18.993  62.054  1.00  0.00     0.136 C 
ENDROOT
BRANCH   1  16
HETATM   16  N5  UNL     1      27.894  16.796  61.731  1.00  0.00    -0.346 N 
HETATM   17  C5  UNL     1      27.371  15.939  60.729  1.00  0.00     0.244 C 
HETATM   18  O1  UNL     1      26.676  16.407  59.788  1.00  0.00    -0.272 OA
ATOM     19  H5  UNL     1      28.458  16.389  62.478  1.00  0.00     0.163 HD
BRANCH  17  20
HETATM   20  C4  UNL     1      27.651  14.504  60.809  1.00  0.00     0.334 C 
BRANCH  20  21
HETATM   21  N4  UNL     1      26.435  13.740  60.894  1.00  0.00    -0.065 N 
ATOM     22  H42 UNL     1      26.609  12.752  60.714  1.00  0.00     0.277 HD
ATOM     23  H41 UNL     1      25.818  13.945  60.108  1.00  0.00     0.277 HD
BRANCH  21  24
HETATM   24  C3  UNL     1      25.740  13.928  62.172  1.00  0.00     0.252 C 
BRANCH  24  25
HETATM   25  C2  UNL     1      24.273  14.161  61.755  1.00  0.00     0.150 C 
BRANCH  25  26
HETATM   26  N3  UNL     1      23.723  15.182  62.616  1.00  0.00    -0.363 N 
HETATM   27  C1  UNL     1      23.679  16.518  62.113  1.00  0.00     0.181 C 
HETATM   28  N1  UNL     1      23.807  16.770  60.868  1.00  0.00    -0.374 N 
HETATM   29  N2  UNL     1      23.498  17.579  63.047  1.00  0.00    -0.064 NA
ATOM     30  H12 UNL     1      23.776  17.724  60.509  1.00  0.00     0.158 HD
ATOM     31  H11 UNL     1      23.937  16.010  60.199  1.00  0.00     0.158 HD
ATOM     32  H3  UNL     1      23.379  14.958  63.550  1.00  0.00     0.162 HD
ENDBRANCH  25  26
ENDBRANCH  24  25
ENDBRANCH  21  24
ENDBRANCH  20  21
ENDBRANCH  17  20
ENDBRANCH   1  16
BRANCH  15  33
HETATM   33  O4  UNL     1      29.916  18.426  61.519  1.00  0.00    -0.348 OA
ATOM     34  H4  UNL     1      30.654  19.025  61.500  1.00  0.00     0.219 HD
ENDBRANCH  15  33
TORSDOF 7
ENDMDL
MODEL 2
REMARK VINA RESULT: -7.456699725      2.128      6.548
REMARK  7 active torsions:
REMARK  status: ('A' for Active; 'I' for Inactive)
REMARK       I    between atoms: C1_4  and  N3_6 
REMARK    1  A    between atoms: N3_6  and  C2_8 
REMARK    2  A    between atoms: C2_8  and  C3_9 
REMARK    3  A    between atoms: C3_9  and  N4_10 
REMARK    4  A    between atoms: N4_10  and  C4_13 
REMARK    5  A    between atoms: C4_13  and  C5_14 
REMARK       I    between atoms: C5_14  and  N5_16 
REMARK    6  A    between atoms: N5_16  and  C6_18 
REMARK    7  A    between atoms: C12_32  and  O4_33 
ROOT
HETATM    1  C6  UNL     1      27.242  19.051  62.450  1.00  0.00     0.176 C 
HETATM    2  C7  UNL     1      27.819  18.293  61.309  1.00  0.00     0.156 C 
HETATM    3  N6  UNL     1      26.960  18.049  60.198  1.00  0.00    -0.351 N 
ATOM      4  H6  UNL     1      26.417  18.833  59.834  1.00  0.00     0.162 HD
HETATM    5  C8  UNL     1      26.808  16.787  59.562  1.00  0.00     0.309 C 
HETATM    6  O2  UNL     1      26.509  16.781  58.341  1.00  0.00    -0.262 OA
HETATM    7  C9  UNL     1      26.980  15.518  60.235  1.00  0.00     0.309 C 
HETATM    8  O3  UNL     1      27.139  14.502  59.466  1.00  0.00    -0.262 OA
HETATM    9  N7  UNL     1      26.995  15.267  61.604  1.00  0.00    -0.351 N 
ATOM     10  H7  UNL     1      27.809  14.760  61.949  1.00  0.00     0.162 HD
HETATM   11  C10 UNL     1      26.015  15.625  62.601  1.00  0.00     0.142 C 
HETATM   12  C11 UNL     1      24.877  16.449  62.134  1.00  0.00     0.141 C 
HETATM   13  N8  UNL     1      24.933  17.851  62.486  1.00  0.00    -0.371 N 
ATOM     14  H8  UNL     1      24.060  18.356  62.330  1.00  0.00     0.161 HD
HETATM   15  C12 UNL     1      25.952  18.632  62.994  1.00  0.00     0.136 C 
ENDROOT
BRANCH   1  16
HETATM   16  N5  UNL     1      28.282  19.090  63.490  1.00  0.00    -0.346 N 
HETATM   17  C5  UNL     1      29.111  20.222  63.702  1.00  0.00     0.244 C 
HETATM   18  O1  UNL     1      28.972  21.256  62.994  1.00  0.00    -0.272 OA
ATOM     19  H5  UNL     1      28.414  18.269  64.081  1.00  0.00     0.163 HD
BRANCH  17  20
HETATM   20  C4  UNL     1      30.127  20.168  64.754  1.00  0.00     0.334 C 
BRANCH  20  21
HETATM   21  N4  UNL     1      29.606  20.647  66.006  1.00  0.00    -0.065 N 
ATOM     22  H42 UNL     1      29.980  20.110  66.789  1.00  0.00     0.277 HD
ATOM     23  H41 UNL     1      28.618  20.413  66.105  1.00  0.00     0.277 HD
BRANCH  21  24
HETATM   24  C3  UNL     1      29.830  22.084  66.198  1.00  0.00     0.252 C 
BRANCH  24  25
HETATM   25  C2  UNL     1      28.461  22.602  66.685  1.00  0.00     0.150 C 
BRANCH  25  26
HETATM   26  N3  UNL     1      27.638  22.842  65.523  1.00  0.00    -0.363 N 
HETATM   27  C1  UNL     1      26.411  22.119  65.420  1.00  0.00     0.181 C 
HETATM   28  N1  UNL     1      25.891  21.534  66.428  1.00  0.00    -0.374 N 
HETATM   29  N2  UNL     1      25.778  22.054  64.145  1.00  0.00    -0.064 NA
ATOM     30  H12 UNL     1      25.014  21.018  66.354  1.00  0.00     0.158 HD
ATOM     31  H11 UNL     1      26.343  21.581  67.342  1.00  0.00     0.158 HD
ATOM     32  H3  UNL     1      27.922  23.505  64.802  1.00  0.00     0.162 HD
ENDBRANCH  25  26
ENDBRANCH  24  25
ENDBRANCH  21  24
ENDBRANCH  20  21
ENDBRANCH  17  20
ENDBRANCH   1  16
BRANCH  15  33
HETATM   33  O4  UNL     1      25.773  19.116  64.189  1.00  0.00    -0.348 OA
ATOM     34  H4  UNL     1      25.130  18.606  64.668  1.00  0.00     0.219 HD
ENDBRANCH  15  33
TORSDOF 7
ENDMDL
MODEL 3
REMARK VINA RESULT: -7.392484385      1.886      2.630
REMARK  7 active torsions:
REMARK  status: ('A' for Active; 'I' for Inactive)
REMARK       I    between atoms: C1_4  and  N3_6 
REMARK    1  A    between atoms: N3_6  and  C2_8 
REMARK    2  A    between atoms: C2_8  and  C3_9 
REMARK    3  A    between atoms: C3_9  and  N4_10 
REMARK    4  A    between atoms: N4_10  and  C4_13 
REMARK    5  A    between atoms: C4_13  and  C5_14 
REMARK       I    between atoms: C5_14  and  N5_16 
REMARK    6  A    between atoms: N5_16  and  C6_18 
REMARK    7  A    between atoms: C12_32  and  O4_33 
ROOT
HETATM    1  C6  UNL     1      27.793  17.888  63.246  1.00  0.00     0.176 C 
HETATM    2  C7  UNL     1      28.199  19.307  63.069  1.00  0.00     0.156 C 
HETATM    3  N6  UNL     1      28.876  19.924  64.162  1.00  0.00    -0.351 N 
ATOM      4  H6  UNL     1      29.644  19.412  64.596  1.00  0.00     0.162 HD
HETATM    5  C8  UNL     1      28.553  21.206  64.686  1.00  0.00     0.309 C 
HETATM    6  O2  UNL     1      29.480  21.869  65.215  1.00  0.00    -0.262 OA
HETATM    7  C9  UNL     1      27.228  21.784  64.644  1.00  0.00     0.309 C 
HETATM    8  O3  UNL     1      27.173  23.051  64.847  1.00  0.00    -0.262 OA
HETATM    9  N7  UNL     1      26.017  21.141  64.410  1.00  0.00    -0.351 N 
ATOM     10  H7  UNL     1      25.446  21.535  63.662  1.00  0.00     0.162 HD
HETATM   11  C10 UNL     1      25.456  19.993  65.081  1.00  0.00     0.142 C 
HETATM   12  C11 UNL     1      26.315  19.348  66.100  1.00  0.00     0.141 C 
HETATM   13  N8  UNL     1      26.944  18.108  65.695  1.00  0.00    -0.371 N 
ATOM     14  H8  UNL     1      27.365  17.585  66.462  1.00  0.00     0.161 HD
HETATM   15  C12 UNL     1      27.077  17.506  64.461  1.00  0.00     0.136 C 
ENDROOT
BRANCH   1  16
HETATM   16  N5  UNL     1      27.045  17.518  62.034  1.00  0.00    -0.346 N 
HETATM   17  C5  UNL     1      27.512  16.545  61.113  1.00  0.00     0.244 C 
HETATM   18  O1  UNL     1      28.604  15.950  61.312  1.00  0.00    -0.272 OA
ATOM     19  H5  UNL     1      26.154  17.979  61.850  1.00  0.00     0.163 HD
BRANCH  17  20
HETATM   20  C4  UNL     1      26.704  16.247  59.929  1.00  0.00     0.334 C 
BRANCH  20  21
HETATM   21  N4  UNL     1      26.351  14.853  59.877  1.00  0.00    -0.065 N 
ATOM     22  H42 UNL     1      27.106  14.299  59.473  1.00  0.00     0.277 HD
ATOM     23  H41 UNL     1      25.630  14.684  59.176  1.00  0.00     0.277 HD
BRANCH  21  24
HETATM   24  C3  UNL     1      25.950  14.324  61.185  1.00  0.00     0.252 C 
BRANCH  24  25
HETATM   25  C2  UNL     1      24.420  14.518  61.200  1.00  0.00     0.150 C 
BRANCH  25  26
HETATM   26  N3  UNL     1      24.086  15.321  62.354  1.00  0.00    -0.363 N 
HETATM   27  C1  UNL     1      23.764  16.695  62.132  1.00  0.00     0.181 C 
HETATM   28  N1  UNL     1      23.465  17.135  60.972  1.00  0.00    -0.374 N 
HETATM   29  N2  UNL     1      23.798  17.578  63.250  1.00  0.00    -0.064 NA
ATOM     30  H12 UNL     1      23.235  18.116  60.814  1.00  0.00     0.158 HD
ATOM     31  H11 UNL     1      23.440  16.503  60.171  1.00  0.00     0.158 HD
ATOM     32  H3  UNL     1      24.080  14.922  63.292  1.00  0.00     0.162 HD
ENDBRANCH  25  26
ENDBRANCH  24  25
ENDBRANCH  21  24
ENDBRANCH  20  21
ENDBRANCH  17  20
ENDBRANCH   1  16
BRANCH  15  33
HETATM   33  O4  UNL     1      26.464  16.368  64.300  1.00  0.00    -0.348 OA
ATOM     34  H4  UNL     1      25.658  16.344  64.802  1.00  0.00     0.219 HD
ENDBRANCH  15  33
TORSDOF 7
ENDMDL
MODEL 4
REMARK VINA RESULT: -7.257468535      3.998      6.858
REMARK  7 active torsions:
REMARK  status: ('A' for Active; 'I' for Inactive)
REMARK       I    between atoms: C1_4  and  N3_6 
REMARK    1  A    between atoms: N3_6  and  C2_8 
REMARK    2  A    between atoms: C2_8  and  C3_9 
REMARK    3  A    between atoms: C3_9  and  N4_10 
REMARK    4  A    between atoms: N4_10  and  C4_13 
REMARK    5  A    between atoms: C4_13  and  C5_14 
REMARK       I    between atoms: C5_14  and  N5_16 
REMARK    6  A    between atoms: N5_16  and  C6_18 
REMARK    7  A    between atoms: C12_32  and  O4_33 
ROOT
HETATM    1  C6  UNL     1      24.798  18.205  63.793  1.00  0.00     0.176 C 
HETATM    2  C7  UNL     1      26.154  18.015  63.214  1.00  0.00     0.156 C 
HETATM    3  N6  UNL     1      26.271  18.136  61.797  1.00  0.00    -0.351 N 
ATOM      4  H6  UNL     1      25.829  18.939  61.350  1.00  0.00     0.162 HD
HETATM    5  C8  UNL     1      26.963  17.212  60.967  1.00  0.00     0.309 C 
HETATM    6  O2  UNL     1      27.475  17.651  59.907  1.00  0.00    -0.262 OA
HETATM    7  C9  UNL     1      27.112  15.806  61.274  1.00  0.00     0.309 C 
HETATM    8  O3  UNL     1      28.027  15.192  60.615  1.00  0.00    -0.262 OA
HETATM    9  N7  UNL     1      26.392  15.045  62.189  1.00  0.00    -0.351 N 
ATOM     10  H7  UNL     1      26.950  14.531  62.870  1.00  0.00     0.162 HD
HETATM   11  C10 UNL     1      24.962  14.885  62.307  1.00  0.00     0.142 C 
HETATM   12  C11 UNL     1      24.134  15.703  61.392  1.00  0.00     0.141 C 
HETATM   13  N8  UNL     1      23.495  16.856  61.989  1.00  0.00    -0.371 N 
ATOM     14  H8  UNL     1      22.782  17.289  61.402  1.00  0.00     0.161 HD
HETATM   15  C12 UNL     1      23.674  17.478  63.209  1.00  0.00     0.136 C 
ENDROOT
BRANCH   1  16
HETATM   16  N5  UNL     1      24.925  17.943  65.235  1.00  0.00    -0.346 N 
HETATM   17  C5  UNL     1      24.284  18.742  66.218  1.00  0.00     0.244 C 
HETATM   18  O1  UNL     1      23.565  19.719  65.876  1.00  0.00    -0.272 OA
ATOM     19  H5  UNL     1      25.496  17.155  65.541  1.00  0.00     0.163 HD
BRANCH  17  20
HETATM   20  C4  UNL     1      24.474  18.412  67.632  1.00  0.00     0.334 C 
BRANCH  20  21
HETATM   21  N4  UNL     1      23.668  17.284  68.015  1.00  0.00    -0.065 N 
ATOM     22  H42 UNL     1      24.198  16.415  67.946  1.00  0.00     0.277 HD
ATOM     23  H41 UNL     1      22.949  17.093  67.317  1.00  0.00     0.277 HD
BRANCH  21  24
HETATM   24  C3  UNL     1      23.079  17.438  69.350  1.00  0.00     0.252 C 
BRANCH  24  25
HETATM   25  C2  UNL     1      21.578  17.642  69.062  1.00  0.00     0.150 C 
BRANCH  25  26
HETATM   26  N3  UNL     1      21.291  19.053  69.179  1.00  0.00    -0.363 N 
HETATM   27  C1  UNL     1      19.938  19.471  68.989  1.00  0.00     0.181 C 
HETATM   28  N1  UNL     1      18.968  18.642  69.034  1.00  0.00    -0.374 N 
HETATM   29  N2  UNL     1      19.695  20.851  68.732  1.00  0.00    -0.064 NA
ATOM     30  H12 UNL     1      18.003  18.941  68.898  1.00  0.00     0.158 HD
ATOM     31  H11 UNL     1      19.142  17.654  69.218  1.00  0.00     0.158 HD
ATOM     32  H3  UNL     1      22.027  19.727  69.389  1.00  0.00     0.162 HD
ENDBRANCH  25  26
ENDBRANCH  24  25
ENDBRANCH  21  24
ENDBRANCH  20  21
ENDBRANCH  17  20
ENDBRANCH   1  16
BRANCH  15  33
HETATM   33  O4  UNL     1      22.668  17.437  64.035  1.00  0.00    -0.348 OA
ATOM     34  H4  UNL     1      21.927  17.922  63.690  1.00  0.00     0.219 HD
ENDBRANCH  15  33
TORSDOF 7
ENDMDL
MODEL 5
REMARK VINA RESULT: -7.096230680      3.668      6.816
REMARK  7 active torsions:
REMARK  status: ('A' for Active; 'I' for Inactive)
REMARK       I    between atoms: C1_4  and  N3_6 
REMARK    1  A    between atoms: N3_6  and  C2_8 
REMARK    2  A    between atoms: C2_8  and  C3_9 
REMARK    3  A    between atoms: C3_9  and  N4_10 
REMARK    4  A    between atoms: N4_10  and  C4_13 
REMARK    5  A    between atoms: C4_13  and  C5_14 
REMARK       I    between atoms: C5_14  and  N5_16 
REMARK    6  A    between atoms: N5_16  and  C6_18 
REMARK    7  A    between atoms: C12_32  and  O4_33 
ROOT
HETATM    1  C6  UNL     1      25.060  17.920  63.384  1.00  0.00     0.176 C 
HETATM    2  C7  UNL     1      26.311  17.586  62.653  1.00  0.00     0.156 C 
HETATM    3  N6  UNL     1      26.233  17.547  61.230  1.00  0.00    -0.351 N 
ATOM      4  H6  UNL     1      25.770  18.324  60.757  1.00  0.00     0.162 HD
HETATM    5  C8  UNL     1      26.758  16.500  60.425  1.00  0.00     0.309 C 
HETATM    6  O2  UNL     1      27.135  16.791  59.262  1.00  0.00    -0.262 OA
HETATM    7  C9  UNL     1      26.885  15.128  60.867  1.00  0.00     0.309 C 
HETATM    8  O3  UNL     1      27.669  14.393  60.166  1.00  0.00    -0.262 OA
HETATM    9  N7  UNL     1      26.266  14.515  61.952  1.00  0.00    -0.351 N 
ATOM     10  H7  UNL     1      26.890  14.043  62.606  1.00  0.00     0.162 HD
HETATM   11  C10 UNL     1      24.862  14.456  62.279  1.00  0.00     0.142 C 
HETATM   12  C11 UNL     1      23.951  15.221  61.397  1.00  0.00     0.141 C 
HETATM   13  N8  UNL     1      23.456  16.468  61.939  1.00  0.00    -0.371 N 
ATOM     14  H8  UNL     1      22.688  16.878  61.407  1.00  0.00     0.161 HD
HETATM   15  C12 UNL     1      23.833  17.204  63.044  1.00  0.00     0.136 C 
ENDROOT
BRANCH   1  16
HETATM   16  N5  UNL     1      25.376  17.806  64.817  1.00  0.00    -0.346 N 
HETATM   17  C5  UNL     1      25.023  18.806  65.760  1.00  0.00     0.244 C 
HETATM   18  O1  UNL     1      24.409  19.842  65.392  1.00  0.00    -0.272 OA
ATOM     19  H5  UNL     1      25.869  16.975  65.145  1.00  0.00     0.163 HD
BRANCH  17  20
HETATM   20  C4  UNL     1      25.387  18.612  67.165  1.00  0.00     0.334 C 
BRANCH  20  21
HETATM   21  N4  UNL     1      24.399  17.826  67.854  1.00  0.00    -0.065 N 
ATOM     22  H42 UNL     1      24.673  16.844  67.893  1.00  0.00     0.277 HD
ATOM     23  H41 UNL     1      23.549  17.737  67.298  1.00  0.00     0.277 HD
BRANCH  21  24
HETATM   24  C3  UNL     1      24.101  18.343  69.195  1.00  0.00     0.252 C 
BRANCH  24  25
HETATM   25  C2  UNL     1      22.977  17.414  69.699  1.00  0.00     0.150 C 
BRANCH  25  26
HETATM   26  N3  UNL     1      21.745  18.167  69.696  1.00  0.00    -0.363 N 
HETATM   27  C1  UNL     1      20.605  17.568  69.076  1.00  0.00     0.181 C 
HETATM   28  N1  UNL     1      20.561  16.318  68.822  1.00  0.00    -0.374 N 
HETATM   29  N2  UNL     1      19.510  18.412  68.733  1.00  0.00    -0.064 NA
ATOM     30  H12 UNL     1      19.747  15.891  68.380  1.00  0.00     0.158 HD
ATOM     31  H11 UNL     1      21.345  15.713  69.068  1.00  0.00     0.158 HD
ATOM     32  H3  UNL     1      21.689  19.093  70.120  1.00  0.00     0.162 HD
ENDBRANCH  25  26
ENDBRANCH  24  25
ENDBRANCH  21  24
ENDBRANCH  20  21
ENDBRANCH  17  20
ENDBRANCH   1  16
BRANCH  15  33
HETATM   33  O4  UNL     1      22.952  17.314  63.997  1.00  0.00    -0.348 OA
ATOM     34  H4  UNL     1      22.116  16.950  63.729  1.00  0.00     0.219 HD
ENDBRANCH  15  33
TORSDOF 7
ENDMDL
