MODEL 1
REMARK VINA RESULT: -7.069516773      0.000      0.000
REMARK  11 active torsions:
REMARK  status: ('A' for Active; 'I' for Inactive)
REMARK    1  A    between atoms: C3_3  and  N1_4 
REMARK    2  A    between atoms: N1_4  and  C4_5 
REMARK    3  A    between atoms: C4_5  and  C5_6 
REMARK    4  A    between atoms: C5_6  and  N2_7 
REMARK    5  A    between atoms: N2_7  and  C8_10 
REMARK    6  A    between atoms: C8_10  and  C9_11 
REMARK    7  A    between atoms: C11_13  and  O1_14 
REMARK    8  A    between atoms: C12_16  and  O2_17 
REMARK    9  A    between atoms: C14_20  and  O3_21 
REMARK   10  A    between atoms: C15_23  and  O4_24 
REMARK   11  A    between atoms: C16_26  and  O5_27 
ROOT
HETATM    1  C1  UNL     1      30.090  20.959  64.452  1.00  0.00     0.013 C 
HETATM    2  C2  UNL     1      29.222  20.480  65.131  1.00  0.00    -0.089 C 
HETATM    3  C3  UNL     1      28.187  19.906  65.975  1.00  0.00     0.330 C 
ENDROOT
BRANCH   3   4
HETATM    4  N1  UNL     1      27.123  19.347  65.148  1.00  0.00    -0.051 N 
HETATM    5  C13 UNL     1      26.223  18.552  65.901  1.00  0.00     0.273 C 
HETATM    6  C14 UNL     1      24.827  18.994  66.059  1.00  0.00     0.175 C 
HETATM    7  C15 UNL     1      24.300  19.728  64.856  1.00  0.00     0.178 C 
HETATM    8  C16 UNL     1      25.259  20.913  64.670  1.00  0.00     0.175 C 
HETATM    9  C17 UNL     1      26.563  20.341  64.280  1.00  0.00     0.273 C 
BRANCH   4  10
HETATM   10  C4  UNL     1      27.821  18.407  64.237  1.00  0.00     0.266 C 
BRANCH  10  11
HETATM   11  C5  UNL     1      26.990  18.047  63.091  1.00  0.00     0.264 C 
BRANCH  11  12
HETATM   12  N2  UNL     1      27.436  16.850  62.351  1.00  0.00    -0.072 N 
HETATM   13  C6  UNL     1      27.488  17.086  60.949  1.00  0.00     0.272 C 
HETATM   14  C7  UNL     1      28.840  16.697  62.798  1.00  0.00     0.272 C 
BRANCH  12  15
HETATM   15  C8  UNL     1      26.617  15.824  62.834  1.00  0.00     0.248 C 
BRANCH  15  16
HETATM   16  C9  UNL     1      25.675  15.070  62.011  1.00  0.00     0.072 A 
HETATM   17  C10 UNL     1      25.387  13.668  62.234  1.00  0.00     0.017 A 
HETATM   18  C11 UNL     1      24.098  13.916  62.183  1.00  0.00     0.069 A 
HETATM   19  C12 UNL     1      24.243  15.372  61.954  1.00  0.00     0.183 A 
BRANCH  18  20
HETATM   20  O1  UNL     1      22.985  13.060  62.311  1.00  0.00    -0.363 OA
ATOM     21  H1  UNL     1      22.357  12.955  63.016  1.00  0.00     0.217 HD
ENDBRANCH  18  20
BRANCH  19  22
HETATM   22  O2  UNL     1      23.740  15.685  60.670  1.00  0.00    -0.388 OA
ATOM     23  H2  UNL     1      22.894  16.116  60.658  1.00  0.00     0.210 HD
ENDBRANCH  19  22
ENDBRANCH  15  16
ENDBRANCH  12  15
ENDBRANCH  11  12
ENDBRANCH  10  11
ENDBRANCH   4  10
BRANCH   6  24
HETATM   24  O3  UNL     1      23.977  17.877  66.232  1.00  0.00    -0.391 OA
ATOM     25  H3  UNL     1      23.738  17.512  65.388  1.00  0.00     0.210 HD
ENDBRANCH   6  24
BRANCH   7  26
HETATM   26  O4  UNL     1      23.003  20.144  65.002  1.00  0.00    -0.390 OA
ATOM     27  H4  UNL     1      22.511  20.130  64.189  1.00  0.00     0.210 HD
ENDBRANCH   7  26
BRANCH   8  28
HETATM   28  O5  UNL     1      24.752  21.643  63.597  1.00  0.00    -0.391 OA
ATOM     29  H5  UNL     1      25.429  21.625  62.931  1.00  0.00     0.210 HD
ENDBRANCH   8  28
ENDBRANCH   3   4
TORSDOF 11
ENDMDL
MODEL 2
REMARK VINA RESULT: -6.999377186      2.575      3.853
REMARK  11 active torsions:
REMARK  status: ('A' for Active; 'I' for Inactive)
REMARK    1  A    between atoms: C3_3  and  N1_4 
REMARK    2  A    between atoms: N1_4  and  C4_5 
REMARK    3  A    between atoms: C4_5  and  C5_6 
REMARK    4  A    between atoms: C5_6  and  N2_7 
REMARK    5  A    between atoms: N2_7  and  C8_10 
REMARK    6  A    between atoms: C8_10  and  C9_11 
REMARK    7  A    between atoms: C11_13  and  O1_14 
REMARK    8  A    between atoms: C12_16  and  O2_17 
REMARK    9  A    between atoms: C14_20  and  O3_21 
REMARK   10  A    between atoms: C15_23  and  O4_24 
REMARK   11  A    between atoms: C16_26  and  O5_27 
ROOT
HETATM    1  C1  UNL     1      31.916  17.585  64.467  1.00  0.00     0.013 C 
HETATM    2  C2  UNL     1      31.306  17.431  63.442  1.00  0.00    -0.089 C 
HETATM    3  C3  UNL     1      30.589  17.229  62.194  1.00  0.00     0.330 C 
ENDROOT
BRANCH   3   4
HETATM    4  N1  UNL     1      29.364  18.022  62.189  1.00  0.00    -0.051 N 
HETATM    5  C13 UNL     1      28.730  18.034  63.457  1.00  0.00     0.273 C 
HETATM    6  C14 UNL     1      28.641  19.298  64.207  1.00  0.00     0.175 C 
HETATM    7  C15 UNL     1      28.489  20.503  63.319  1.00  0.00     0.178 C 
HETATM    8  C16 UNL     1      29.718  20.468  62.400  1.00  0.00     0.175 C 
HETATM    9  C17 UNL     1      29.563  19.282  61.535  1.00  0.00     0.273 C 
BRANCH   4  10
HETATM   10  C4  UNL     1      28.448  17.276  61.292  1.00  0.00     0.266 C 
BRANCH  10  11
HETATM   11  C5  UNL     1      28.240  15.904  61.751  1.00  0.00     0.264 C 
BRANCH  11  12
HETATM   12  N2  UNL     1      27.079  15.217  61.150  1.00  0.00    -0.072 N 
HETATM   13  C6  UNL     1      26.855  15.635  59.809  1.00  0.00     0.272 C 
HETATM   14  C7  UNL     1      27.539  13.811  61.075  1.00  0.00     0.272 C 
BRANCH  12  15
HETATM   15  C8  UNL     1      26.058  15.386  62.090  1.00  0.00     0.248 C 
BRANCH  15  16
HETATM   16  C9  UNL     1      25.158  16.536  62.127  1.00  0.00     0.072 A 
HETATM   17  C10 UNL     1      23.721  16.412  61.995  1.00  0.00     0.017 A 
HETATM   18  C11 UNL     1      23.550  17.173  63.052  1.00  0.00     0.069 A 
HETATM   19  C12 UNL     1      24.993  17.384  63.310  1.00  0.00     0.183 A 
BRANCH  18  20
HETATM   20  O1  UNL     1      22.374  17.615  63.693  1.00  0.00    -0.363 OA
ATOM     21  H1  UNL     1      22.186  17.770  64.612  1.00  0.00     0.217 HD
ENDBRANCH  18  20
BRANCH  19  22
HETATM   22  O2  UNL     1      25.296  18.752  63.122  1.00  0.00    -0.388 OA
ATOM     23  H2  UNL     1      25.592  18.987  62.250  1.00  0.00     0.210 HD
ENDBRANCH  19  22
ENDBRANCH  15  16
ENDBRANCH  12  15
ENDBRANCH  11  12
ENDBRANCH  10  11
ENDBRANCH   4  10
BRANCH   6  24
HETATM   24  O3  UNL     1      27.501  19.290  65.044  1.00  0.00    -0.391 OA
ATOM     25  H3  UNL     1      27.061  20.132  65.008  1.00  0.00     0.210 HD
ENDBRANCH   6  24
BRANCH   7  26
HETATM   26  O4  UNL     1      28.409  21.681  64.015  1.00  0.00    -0.390 OA
ATOM     27  H4  UNL     1      28.850  21.649  64.856  1.00  0.00     0.210 HD
ENDBRANCH   7  26
BRANCH   8  28
HETATM   28  O5  UNL     1      29.630  21.613  61.609  1.00  0.00    -0.391 OA
ATOM     29  H5  UNL     1      30.301  21.517  60.944  1.00  0.00     0.210 HD
ENDBRANCH   8  28
ENDBRANCH   3   4
TORSDOF 11
ENDMDL
MODEL 3
REMARK VINA RESULT: -6.980183386      1.587      2.467
REMARK  11 active torsions:
REMARK  status: ('A' for Active; 'I' for Inactive)
REMARK    1  A    between atoms: C3_3  and  N1_4 
REMARK    2  A    between atoms: N1_4  and  C4_5 
REMARK    3  A    between atoms: C4_5  and  C5_6 
REMARK    4  A    between atoms: C5_6  and  N2_7 
REMARK    5  A    between atoms: N2_7  and  C8_10 
REMARK    6  A    between atoms: C8_10  and  C9_11 
REMARK    7  A    between atoms: C11_13  and  O1_14 
REMARK    8  A    between atoms: C12_16  and  O2_17 
REMARK    9  A    between atoms: C14_20  and  O3_21 
REMARK   10  A    between atoms: C15_23  and  O4_24 
REMARK   11  A    between atoms: C16_26  and  O5_27 
ROOT
HETATM    1  C1  UNL     1      29.907  17.462  65.625  1.00  0.00     0.013 C 
HETATM    2  C2  UNL     1      28.804  17.898  65.426  1.00  0.00    -0.089 C 
HETATM    3  C3  UNL     1      27.460  18.402  65.199  1.00  0.00     0.330 C 
ENDROOT
BRANCH   3   4
HETATM    4  N1  UNL     1      27.508  19.582  64.342  1.00  0.00    -0.051 N 
HETATM    5  C13 UNL     1      26.216  20.086  64.054  1.00  0.00     0.273 C 
HETATM    6  C14 UNL     1      25.827  21.412  64.565  1.00  0.00     0.175 C 
HETATM    7  C15 UNL     1      26.977  22.381  64.627  1.00  0.00     0.178 C 
HETATM    8  C16 UNL     1      28.013  21.700  65.532  1.00  0.00     0.175 C 
HETATM    9  C17 UNL     1      28.498  20.515  64.797  1.00  0.00     0.273 C 
BRANCH   4  10
HETATM   10  C4  UNL     1      28.037  19.076  63.051  1.00  0.00     0.266 C 
BRANCH  10  11
HETATM   11  C5  UNL     1      26.999  18.413  62.265  1.00  0.00     0.264 C 
BRANCH  11  12
HETATM   12  N2  UNL     1      27.428  17.169  61.595  1.00  0.00    -0.072 N 
HETATM   13  C6  UNL     1      27.280  17.254  60.182  1.00  0.00     0.272 C 
HETATM   14  C7  UNL     1      28.886  17.145  61.857  1.00  0.00     0.272 C 
BRANCH  12  15
HETATM   15  C8  UNL     1      26.754  16.157  62.286  1.00  0.00     0.248 C 
BRANCH  15  16
HETATM   16  C9  UNL     1      25.779  15.257  61.676  1.00  0.00     0.072 A 
HETATM   17  C10 UNL     1      25.638  13.870  62.071  1.00  0.00     0.017 A 
HETATM   18  C11 UNL     1      24.337  14.023  62.172  1.00  0.00     0.069 A 
HETATM   19  C12 UNL     1      24.331  15.452  61.785  1.00  0.00     0.183 A 
BRANCH  18  20
HETATM   20  O1  UNL     1      23.323  13.111  62.533  1.00  0.00    -0.363 OA
ATOM     21  H1  UNL     1      22.759  13.076  63.297  1.00  0.00     0.217 HD
ENDBRANCH  18  20
BRANCH  19  22
HETATM   22  O2  UNL     1      23.644  15.591  60.557  1.00  0.00    -0.388 OA
ATOM     23  H2  UNL     1      23.582  16.478  60.223  1.00  0.00     0.210 HD
ENDBRANCH  19  22
ENDBRANCH  15  16
ENDBRANCH  12  15
ENDBRANCH  11  12
ENDBRANCH  10  11
ENDBRANCH   4  10
BRANCH   6  24
HETATM   24  O3  UNL     1      24.870  22.004  63.709  1.00  0.00    -0.391 OA
ATOM     25  H3  UNL     1      23.992  21.830  64.028  1.00  0.00     0.210 HD
ENDBRANCH   6  24
BRANCH   7  26
HETATM   26  O4  UNL     1      26.618  23.614  65.105  1.00  0.00    -0.390 OA
ATOM     27  H4  UNL     1      26.721  23.695  66.046  1.00  0.00     0.210 HD
ENDBRANCH   7  26
BRANCH   8  28
HETATM   28  O5  UNL     1      29.062  22.609  65.654  1.00  0.00    -0.391 OA
ATOM     29  H5  UNL     1      29.632  22.256  66.327  1.00  0.00     0.210 HD
ENDBRANCH   8  28
ENDBRANCH   3   4
TORSDOF 11
ENDMDL
MODEL 4
REMARK VINA RESULT: -6.905989508      1.795      6.247
REMARK  11 active torsions:
REMARK  status: ('A' for Active; 'I' for Inactive)
REMARK    1  A    between atoms: C3_3  and  N1_4 
REMARK    2  A    between atoms: N1_4  and  C4_5 
REMARK    3  A    between atoms: C4_5  and  C5_6 
REMARK    4  A    between atoms: C5_6  and  N2_7 
REMARK    5  A    between atoms: N2_7  and  C8_10 
REMARK    6  A    between atoms: C8_10  and  C9_11 
REMARK    7  A    between atoms: C11_13  and  O1_14 
REMARK    8  A    between atoms: C12_16  and  O2_17 
REMARK    9  A    between atoms: C14_20  and  O3_21 
REMARK   10  A    between atoms: C15_23  and  O4_24 
REMARK   11  A    between atoms: C16_26  and  O5_27 
ROOT
HETATM    1  C1  UNL     1      27.911  18.700  59.968  1.00  0.00     0.013 C 
HETATM    2  C2  UNL     1      27.502  17.573  60.061  1.00  0.00    -0.089 C 
HETATM    3  C3  UNL     1      27.013  16.208  60.146  1.00  0.00     0.330 C 
ENDROOT
BRANCH   3   4
HETATM    4  N1  UNL     1      26.478  15.952  61.480  1.00  0.00    -0.051 N 
HETATM    5  C13 UNL     1      25.345  16.754  61.764  1.00  0.00     0.273 C 
HETATM    6  C14 UNL     1      24.033  16.111  61.945  1.00  0.00     0.175 C 
HETATM    7  C15 UNL     1      24.125  14.750  62.580  1.00  0.00     0.178 C 
HETATM    8  C16 UNL     1      25.033  13.942  61.642  1.00  0.00     0.175 C 
HETATM    9  C17 UNL     1      26.377  14.545  61.738  1.00  0.00     0.273 C 
BRANCH   4  10
HETATM   10  C4  UNL     1      27.543  16.424  62.398  1.00  0.00     0.266 C 
BRANCH  10  11
HETATM   11  C5  UNL     1      27.000  16.826  63.694  1.00  0.00     0.264 C 
BRANCH  11  12
HETATM   12  N2  UNL     1      27.712  17.942  64.348  1.00  0.00    -0.072 N 
HETATM   13  C6  UNL     1      28.007  17.653  65.710  1.00  0.00     0.272 C 
HETATM   14  C7  UNL     1      29.013  17.957  63.637  1.00  0.00     0.272 C 
BRANCH  12  15
HETATM   15  C8  UNL     1      26.937  19.066  64.048  1.00  0.00     0.248 C 
BRANCH  15  16
HETATM   16  C9  UNL     1      26.868  20.262  64.884  1.00  0.00     0.072 A 
HETATM   17  C10 UNL     1      27.823  21.346  64.782  1.00  0.00     0.017 A 
HETATM   18  C11 UNL     1      26.841  22.217  64.733  1.00  0.00     0.069 A 
HETATM   19  C12 UNL     1      25.756  21.214  64.828  1.00  0.00     0.183 A 
BRANCH  18  20
HETATM   20  O1  UNL     1      26.855  23.623  64.625  1.00  0.00    -0.363 OA
ATOM     21  H1  UNL     1      27.205  24.193  63.950  1.00  0.00     0.217 HD
ENDBRANCH  18  20
BRANCH  19  22
HETATM   22  O2  UNL     1      25.060  21.405  66.044  1.00  0.00    -0.388 OA
ATOM     23  H2  UNL     1      24.131  21.211  66.017  1.00  0.00     0.210 HD
ENDBRANCH  19  22
ENDBRANCH  15  16
ENDBRANCH  12  15
ENDBRANCH  11  12
ENDBRANCH  10  11
ENDBRANCH   4  10
BRANCH   6  24
HETATM   24  O3  UNL     1      23.224  16.885  62.809  1.00  0.00    -0.391 OA
ATOM     25  H3  UNL     1      23.670  17.028  63.636  1.00  0.00     0.210 HD
ENDBRANCH   6  24
BRANCH   7  26
HETATM   26  O4  UNL     1      22.905  14.148  62.747  1.00  0.00    -0.390 OA
ATOM     27  H4  UNL     1      22.679  14.005  63.659  1.00  0.00     0.210 HD
ENDBRANCH   7  26
BRANCH   8  28
HETATM   28  O5  UNL     1      25.081  12.657  62.179  1.00  0.00    -0.391 OA
ATOM     29  H5  UNL     1      25.195  12.073  61.438  1.00  0.00     0.210 HD
ENDBRANCH   8  28
ENDBRANCH   3   4
TORSDOF 11
ENDMDL
MODEL 5
REMARK VINA RESULT: -6.884663231      1.670      1.896
REMARK  11 active torsions:
REMARK  status: ('A' for Active; 'I' for Inactive)
REMARK    1  A    between atoms: C3_3  and  N1_4 
REMARK    2  A    between atoms: N1_4  and  C4_5 
REMARK    3  A    between atoms: C4_5  and  C5_6 
REMARK    4  A    between atoms: C5_6  and  N2_7 
REMARK    5  A    between atoms: N2_7  and  C8_10 
REMARK    6  A    between atoms: C8_10  and  C9_11 
REMARK    7  A    between atoms: C11_13  and  O1_14 
REMARK    8  A    between atoms: C12_16  and  O2_17 
REMARK    9  A    between atoms: C14_20  and  O3_21 
REMARK   10  A    between atoms: C15_23  and  O4_24 
REMARK   11  A    between atoms: C16_26  and  O5_27 
ROOT
HETATM    1  C1  UNL     1      30.340  21.341  65.275  1.00  0.00     0.013 C 
HETATM    2  C2  UNL     1      29.489  20.589  65.669  1.00  0.00    -0.089 C 
HETATM    3  C3  UNL     1      28.474  19.676  66.169  1.00  0.00     0.330 C 
ENDROOT
BRANCH   3   4
HETATM    4  N1  UNL     1      27.469  19.435  65.139  1.00  0.00    -0.051 N 
HETATM    5  C13 UNL     1      26.492  18.497  65.556  1.00  0.00     0.273 C 
HETATM    6  C14 UNL     1      25.099  18.938  65.737  1.00  0.00     0.175 C 
HETATM    7  C15 UNL     1      24.690  20.017  64.770  1.00  0.00     0.178 C 
HETATM    8  C16 UNL     1      25.688  21.158  65.014  1.00  0.00     0.175 C 
HETATM    9  C17 UNL     1      27.006  20.665  64.567  1.00  0.00     0.273 C 
BRANCH   4  10
HETATM   10  C4  UNL     1      28.219  18.772  64.044  1.00  0.00     0.266 C 
BRANCH  10  11
HETATM   11  C5  UNL     1      27.688  19.133  62.731  1.00  0.00     0.264 C 
BRANCH  11  12
HETATM   12  N2  UNL     1      28.467  18.625  61.584  1.00  0.00    -0.072 N 
HETATM   13  C6  UNL     1      28.162  19.329  60.386  1.00  0.00     0.272 C 
HETATM   14  C7  UNL     1      29.855  19.001  61.944  1.00  0.00     0.272 C 
BRANCH  12  15
HETATM   15  C8  UNL     1      28.272  17.241  61.623  1.00  0.00     0.248 C 
BRANCH  15  16
HETATM   16  C9  UNL     1      27.636  16.472  60.557  1.00  0.00     0.072 A 
HETATM   17  C10 UNL     1      27.723  15.028  60.472  1.00  0.00     0.017 A 
HETATM   18  C11 UNL     1      26.422  14.952  60.300  1.00  0.00     0.069 A 
HETATM   19  C12 UNL     1      26.184  16.412  60.370  1.00  0.00     0.183 A 
BRANCH  18  20
HETATM   20  O1  UNL     1      25.576  13.838  60.117  1.00  0.00    -0.363 OA
ATOM     21  H1  UNL     1      25.326  13.369  59.330  1.00  0.00     0.217 HD
ENDBRANCH  18  20
BRANCH  19  22
HETATM   22  O2  UNL     1      25.717  16.859  59.112  1.00  0.00    -0.388 OA
ATOM     23  H2  UNL     1      25.081  17.565  59.142  1.00  0.00     0.210 HD
ENDBRANCH  19  22
ENDBRANCH  15  16
ENDBRANCH  12  15
ENDBRANCH  11  12
ENDBRANCH  10  11
ENDBRANCH   4  10
BRANCH   6  24
HETATM   24  O3  UNL     1      24.211  17.861  65.509  1.00  0.00    -0.391 OA
ATOM     25  H3  UNL     1      24.489  17.361  64.750  1.00  0.00     0.210 HD
ENDBRANCH   6  24
BRANCH   7  26
HETATM   26  O4  UNL     1      23.395  20.431  64.939  1.00  0.00    -0.390 OA
ATOM     27  H4  UNL     1      22.938  20.576  64.118  1.00  0.00     0.210 HD
ENDBRANCH   7  26
BRANCH   8  28
HETATM   28  O5  UNL     1      25.290  22.194  64.172  1.00  0.00    -0.391 OA
ATOM     29  H5  UNL     1      26.007  22.321  63.562  1.00  0.00     0.210 HD
ENDBRANCH   8  28
ENDBRANCH   3   4
TORSDOF 11
ENDMDL
