MODEL 1
REMARK VINA RESULT: -8.187308160      0.000      0.000
REMARK  4 active torsions:
REMARK  status: ('A' for Active; 'I' for Inactive)
REMARK    1  A    between atoms: C7_7  and  N1_8 
REMARK    2  A    between atoms: C7_7  and  N2_12 
REMARK       I    between atoms: N2_12  and  C8_14 
REMARK    3  A    between atoms: C8_14  and  C9_16 
REMARK    4  A    between atoms: C10_17  and  N3_18 
REMARK       I    between atoms: N3_18  and  C11_20 
ROOT
HETATM    1  N2  UNL     1      15.959  18.286  15.443  1.00  0.00    -0.324 N 
ATOM      2  H2  UNL     1      15.209  17.828  14.924  1.00  0.00     0.165 HD
HETATM    3  C8  UNL     1      16.160  18.029  16.797  1.00  0.00     0.257 C 
HETATM    4  O1  UNL     1      17.141  18.658  17.319  1.00  0.00    -0.267 OA
ENDROOT
BRANCH   3   5
HETATM    5  C9  UNL     1      15.373  17.120  17.660  1.00  0.00     0.073 A 
HETATM    6  C10 UNL     1      16.009  16.523  18.759  1.00  0.00     0.095 A 
HETATM    7  S1  UNL     1      14.767  15.611  19.499  1.00  0.00    -0.075 SA
HETATM    8  C12 UNL     1      13.497  15.969  18.462  1.00  0.00    -0.008 A 
HETATM    9  C13 UNL     1      14.056  16.818  17.527  1.00  0.00    -0.026 A 
HETATM   10  C17 UNL     1      12.042  15.596  18.315  1.00  0.00     0.047 C 
HETATM   11  C14 UNL     1      12.969  17.269  16.570  1.00  0.00     0.041 C 
HETATM   12  C15 UNL     1      12.355  16.062  15.897  1.00  0.00     0.005 C 
HETATM   13  C16 UNL     1      11.794  15.095  16.917  1.00  0.00     0.005 C 
BRANCH   6  14
HETATM   14  N3  UNL     1      17.379  16.592  19.201  1.00  0.00    -0.294 N 
HETATM   15  C11 UNL     1      17.603  17.196  20.502  1.00  0.00     0.288 C 
HETATM   16  O2  UNL     1      16.649  17.613  21.163  1.00  0.00    -0.629 OA
HETATM   17  O3  UNL     1      18.882  17.292  20.982  1.00  0.00    -0.629 OA
ATOM     18  H3  UNL     1      18.148  16.237  18.632  1.00  0.00     0.172 HD
ENDBRANCH   6  14
ENDBRANCH   3   5
BRANCH   1  19
HETATM   19  C7  UNL     1      16.875  19.248  14.784  1.00  0.00     0.205 C 
HETATM   20  C2  UNL     1      16.220  19.815  13.545  1.00  0.00     0.004 C 
HETATM   21  C1  UNL     1      14.915  20.505  13.838  1.00  0.00     0.019 C 
HETATM   22  C3  UNL     1      17.175  20.761  12.897  1.00  0.00     0.019 C 
HETATM   23  C4  UNL     1      16.056  18.602  12.686  1.00  0.00     0.013 C 
HETATM   24  C5  UNL     1      17.306  17.826  12.936  1.00  0.00     0.005 C 
HETATM   25  C6  UNL     1      17.975  18.428  14.156  1.00  0.00     0.062 C 
BRANCH  19  26
HETATM   26  N1  UNL     1      17.346  20.197  15.720  1.00  0.00    -0.052 N 
ATOM     27  H13 UNL     1      18.224  20.602  15.392  1.00  0.00     0.277 HD
ATOM     28  H12 UNL     1      16.748  21.024  15.707  1.00  0.00     0.277 HD
ATOM     29  H11 UNL     1      17.454  19.861  16.676  1.00  0.00     0.277 HD
ENDBRANCH  19  26
ENDBRANCH   1  19
TORSDOF 4
ENDMDL
MODEL 2
REMARK VINA RESULT: -7.977243913      2.627      4.558
REMARK  4 active torsions:
REMARK  status: ('A' for Active; 'I' for Inactive)
REMARK    1  A    between atoms: C7_7  and  N1_8 
REMARK    2  A    between atoms: C7_7  and  N2_12 
REMARK       I    between atoms: N2_12  and  C8_14 
REMARK    3  A    between atoms: C8_14  and  C9_16 
REMARK    4  A    between atoms: C10_17  and  N3_18 
REMARK       I    between atoms: N3_18  and  C11_20 
ROOT
HETATM    1  N2  UNL     1      15.037  18.078  16.106  1.00  0.00    -0.324 N 
ATOM      2  H2  UNL     1      15.421  18.955  16.457  1.00  0.00     0.165 HD
HETATM    3  C8  UNL     1      14.939  16.955  16.924  1.00  0.00     0.257 C 
HETATM    4  O1  UNL     1      14.429  15.929  16.362  1.00  0.00    -0.267 OA
ENDROOT
BRANCH   3   5
HETATM    5  C9  UNL     1      15.352  16.843  18.341  1.00  0.00     0.073 A 
HETATM    6  C10 UNL     1      14.454  16.274  19.257  1.00  0.00     0.095 A 
HETATM    7  S1  UNL     1      15.317  16.291  20.733  1.00  0.00    -0.075 SA
HETATM    8  C12 UNL     1      16.752  16.988  20.213  1.00  0.00    -0.008 A 
HETATM    9  C13 UNL     1      16.551  17.206  18.865  1.00  0.00    -0.026 A 
HETATM   10  C17 UNL     1      18.067  17.412  20.822  1.00  0.00     0.047 C 
HETATM   11  C14 UNL     1      17.825  17.773  18.269  1.00  0.00     0.041 C 
HETATM   12  C15 UNL     1      18.181  19.064  18.973  1.00  0.00     0.005 C 
HETATM   13  C16 UNL     1      18.343  18.846  20.462  1.00  0.00     0.005 C 
BRANCH   6  14
HETATM   14  N3  UNL     1      13.105  15.798  19.076  1.00  0.00    -0.294 N 
HETATM   15  C11 UNL     1      12.932  14.356  19.058  1.00  0.00     0.288 C 
HETATM   16  O2  UNL     1      13.909  13.614  19.194  1.00  0.00    -0.629 OA
HETATM   17  O3  UNL     1      11.676  13.838  18.889  1.00  0.00    -0.629 OA
ATOM     18  H3  UNL     1      12.318  16.437  18.967  1.00  0.00     0.172 HD
ENDBRANCH   6  14
ENDBRANCH   3   5
BRANCH   1  19
HETATM   19  C7  UNL     1      14.563  17.950  14.706  1.00  0.00     0.205 C 
HETATM   20  C2  UNL     1      14.529  19.311  14.050  1.00  0.00     0.004 C 
HETATM   21  C1  UNL     1      15.870  19.995  14.051  1.00  0.00     0.019 C 
HETATM   22  C3  UNL     1      14.030  19.150  12.653  1.00  0.00     0.019 C 
HETATM   23  C4  UNL     1      13.507  20.035  14.866  1.00  0.00     0.013 C 
HETATM   24  C5  UNL     1      12.478  18.990  15.143  1.00  0.00     0.005 C 
HETATM   25  C6  UNL     1      13.087  17.651  14.781  1.00  0.00     0.062 C 
BRANCH  19  26
HETATM   26  N1  UNL     1      15.305  16.958  14.025  1.00  0.00    -0.052 N 
ATOM     27  H13 UNL     1      16.245  17.301  13.828  1.00  0.00     0.277 HD
ATOM     28  H12 UNL     1      15.520  16.188  14.660  1.00  0.00     0.277 HD
ATOM     29  H11 UNL     1      14.881  16.595  13.172  1.00  0.00     0.277 HD
ENDBRANCH  19  26
ENDBRANCH   1  19
TORSDOF 4
ENDMDL
MODEL 3
REMARK VINA RESULT: -7.618869700      2.651      4.465
REMARK  4 active torsions:
REMARK  status: ('A' for Active; 'I' for Inactive)
REMARK    1  A    between atoms: C7_7  and  N1_8 
REMARK    2  A    between atoms: C7_7  and  N2_12 
REMARK       I    between atoms: N2_12  and  C8_14 
REMARK    3  A    between atoms: C8_14  and  C9_16 
REMARK    4  A    between atoms: C10_17  and  N3_18 
REMARK       I    between atoms: N3_18  and  C11_20 
ROOT
HETATM    1  N2  UNL     1      16.227  18.000  14.968  1.00  0.00    -0.324 N 
ATOM      2  H2  UNL     1      16.892  18.545  15.516  1.00  0.00     0.165 HD
HETATM    3  C8  UNL     1      15.255  17.216  15.584  1.00  0.00     0.257 C 
HETATM    4  O1  UNL     1      14.480  16.597  14.781  1.00  0.00    -0.267 OA
ENDROOT
BRANCH   3   5
HETATM    5  C9  UNL     1      15.037  17.043  17.038  1.00  0.00     0.073 A 
HETATM    6  C10 UNL     1      13.734  16.794  17.495  1.00  0.00     0.095 A 
HETATM    7  S1  UNL     1      13.926  16.615  19.185  1.00  0.00    -0.075 SA
HETATM    8  C12 UNL     1      15.584  16.844  19.307  1.00  0.00    -0.008 A 
HETATM    9  C13 UNL     1      15.990  17.060  18.005  1.00  0.00    -0.026 A 
HETATM   10  C17 UNL     1      16.623  16.889  20.402  1.00  0.00     0.047 C 
HETATM   11  C14 UNL     1      17.500  17.208  17.986  1.00  0.00     0.041 C 
HETATM   12  C15 UNL     1      17.905  18.365  18.872  1.00  0.00     0.005 C 
HETATM   13  C16 UNL     1      17.410  18.166  20.289  1.00  0.00     0.005 C 
BRANCH   6  14
HETATM   14  N3  UNL     1      12.486  16.725  16.778  1.00  0.00    -0.294 N 
HETATM   15  C11 UNL     1      11.801  15.445  16.808  1.00  0.00     0.288 C 
HETATM   16  O2  UNL     1      12.291  14.495  17.424  1.00  0.00    -0.629 OA
HETATM   17  O3  UNL     1      10.609  15.311  16.146  1.00  0.00    -0.629 OA
ATOM     18  H3  UNL     1      12.106  17.529  16.278  1.00  0.00     0.172 HD
ENDBRANCH   6  14
ENDBRANCH   3   5
BRANCH   1  19
HETATM   19  C7  UNL     1      16.258  18.013  13.485  1.00  0.00     0.205 C 
HETATM   20  C2  UNL     1      17.292  19.003  13.001  1.00  0.00     0.004 C 
HETATM   21  C1  UNL     1      18.674  18.705  13.517  1.00  0.00     0.019 C 
HETATM   22  C3  UNL     1      17.283  19.006  11.509  1.00  0.00     0.019 C 
HETATM   23  C4  UNL     1      16.752  20.303  13.508  1.00  0.00     0.013 C 
HETATM   24  C5  UNL     1      15.278  20.165  13.317  1.00  0.00     0.005 C 
HETATM   25  C6  UNL     1      14.994  18.704  13.037  1.00  0.00     0.062 C 
BRANCH  19  26
HETATM   26  N1  UNL     1      16.387  16.697  12.985  1.00  0.00    -0.052 N 
ATOM     27  H13 UNL     1      16.153  16.023  13.715  1.00  0.00     0.277 HD
ATOM     28  H12 UNL     1      15.642  16.505  12.314  1.00  0.00     0.277 HD
ATOM     29  H11 UNL     1      17.291  16.465  12.575  1.00  0.00     0.277 HD
ENDBRANCH  19  26
ENDBRANCH   1  19
TORSDOF 4
ENDMDL
MODEL 4
REMARK VINA RESULT: -7.521862807      2.751      4.505
REMARK  4 active torsions:
REMARK  status: ('A' for Active; 'I' for Inactive)
REMARK    1  A    between atoms: C7_7  and  N1_8 
REMARK    2  A    between atoms: C7_7  and  N2_12 
REMARK       I    between atoms: N2_12  and  C8_14 
REMARK    3  A    between atoms: C8_14  and  C9_16 
REMARK    4  A    between atoms: C10_17  and  N3_18 
REMARK       I    between atoms: N3_18  and  C11_20 
ROOT
HETATM    1  N2  UNL     1      15.883  17.976  14.336  1.00  0.00    -0.324 N 
ATOM      2  H2  UNL     1      16.422  17.111  14.381  1.00  0.00     0.165 HD
HETATM    3  C8  UNL     1      15.063  18.370  15.391  1.00  0.00     0.257 C 
HETATM    4  O1  UNL     1      14.456  19.478  15.210  1.00  0.00    -0.267 OA
ENDROOT
BRANCH   3   5
HETATM    5  C9  UNL     1      14.840  17.651  16.666  1.00  0.00     0.073 A 
HETATM    6  C10 UNL     1      13.550  17.179  16.951  1.00  0.00     0.095 A 
HETATM    7  S1  UNL     1      13.734  16.388  18.456  1.00  0.00    -0.075 SA
HETATM    8  C12 UNL     1      15.372  16.644  18.712  1.00  0.00    -0.008 A 
HETATM    9  C13 UNL     1      15.779  17.356  17.601  1.00  0.00    -0.026 A 
HETATM   10  C17 UNL     1      16.394  16.331  19.779  1.00  0.00     0.047 C 
HETATM   11  C14 UNL     1      17.276  17.582  17.691  1.00  0.00     0.041 C 
HETATM   12  C15 UNL     1      17.597  18.341  18.959  1.00  0.00     0.005 C 
HETATM   13  C16 UNL     1      17.100  17.598  20.180  1.00  0.00     0.005 C 
BRANCH   6  14
HETATM   14  N3  UNL     1      12.317  17.316  16.218  1.00  0.00    -0.294 N 
HETATM   15  C11 UNL     1      11.739  16.088  15.702  1.00  0.00     0.288 C 
HETATM   16  O2  UNL     1      12.301  15.008  15.902  1.00  0.00    -0.629 OA
HETATM   17  O3  UNL     1      10.568  16.149  14.995  1.00  0.00    -0.629 OA
ATOM     18  H3  UNL     1      11.876  18.224  16.070  1.00  0.00     0.172 HD
ENDBRANCH   6  14
ENDBRANCH   3   5
BRANCH   1  19
HETATM   19  C7  UNL     1      15.943  18.860  13.147  1.00  0.00     0.205 C 
HETATM   20  C2  UNL     1      16.915  18.297  12.136  1.00  0.00     0.004 C 
HETATM   21  C1  UNL     1      16.556  16.904  11.693  1.00  0.00     0.019 C 
HETATM   22  C3  UNL     1      16.967  19.219  10.964  1.00  0.00     0.019 C 
HETATM   23  C4  UNL     1      18.214  18.354  12.876  1.00  0.00     0.013 C 
HETATM   24  C5  UNL     1      18.129  19.639  13.630  1.00  0.00     0.005 C 
HETATM   25  C6  UNL     1      16.687  20.100  13.574  1.00  0.00     0.062 C 
BRANCH  19  26
HETATM   26  N1  UNL     1      14.640  19.124  12.665  1.00  0.00    -0.052 N 
ATOM     27  H13 UNL     1      14.156  18.246  12.473  1.00  0.00     0.277 HD
ATOM     28  H12 UNL     1      14.058  19.492  13.419  1.00  0.00     0.277 HD
ATOM     29  H11 UNL     1      14.584  19.737  11.852  1.00  0.00     0.277 HD
ENDBRANCH  19  26
ENDBRANCH   1  19
TORSDOF 4
ENDMDL
MODEL 5
REMARK VINA RESULT: -7.477968905      2.624      4.387
REMARK  4 active torsions:
REMARK  status: ('A' for Active; 'I' for Inactive)
REMARK    1  A    between atoms: C7_7  and  N1_8 
REMARK    2  A    between atoms: C7_7  and  N2_12 
REMARK       I    between atoms: N2_12  and  C8_14 
REMARK    3  A    between atoms: C8_14  and  C9_16 
REMARK    4  A    between atoms: C10_17  and  N3_18 
REMARK       I    between atoms: N3_18  and  C11_20 
ROOT
HETATM    1  N2  UNL     1      15.866  18.543  15.304  1.00  0.00    -0.324 N 
ATOM      2  H2  UNL     1      16.020  19.328  15.938  1.00  0.00     0.165 HD
HETATM    3  C8  UNL     1      15.268  17.365  15.746  1.00  0.00     0.257 C 
HETATM    4  O1  UNL     1      15.123  16.471  14.848  1.00  0.00    -0.267 OA
ENDROOT
BRANCH   3   5
HETATM    5  C9  UNL     1      14.794  17.064  17.116  1.00  0.00     0.073 A 
HETATM    6  C10 UNL     1      13.416  16.909  17.328  1.00  0.00     0.095 A 
HETATM    7  S1  UNL     1      13.303  16.534  18.992  1.00  0.00    -0.075 SA
HETATM    8  C12 UNL     1      14.930  16.571  19.401  1.00  0.00    -0.008 A 
HETATM    9  C13 UNL     1      15.568  16.879  18.216  1.00  0.00    -0.026 A 
HETATM   10  C17 UNL     1      15.769  16.390  20.644  1.00  0.00     0.047 C 
HETATM   11  C14 UNL     1      17.066  16.867  18.454  1.00  0.00     0.041 C 
HETATM   12  C15 UNL     1      17.415  17.875  19.527  1.00  0.00     0.005 C 
HETATM   13  C16 UNL     1      16.672  17.582  20.812  1.00  0.00     0.005 C 
BRANCH   6  14
HETATM   14  N3  UNL     1      12.306  17.048  16.420  1.00  0.00    -0.294 N 
HETATM   15  C11 UNL     1      11.686  15.814  15.972  1.00  0.00     0.288 C 
HETATM   16  O2  UNL     1      12.113  14.727  16.370  1.00  0.00    -0.629 OA
HETATM   17  O3  UNL     1      10.625  15.876  15.108  1.00  0.00    -0.629 OA
ATOM     18  H3  UNL     1      11.974  17.962  16.110  1.00  0.00     0.172 HD
ENDBRANCH   6  14
ENDBRANCH   3   5
BRANCH   1  19
HETATM   19  C7  UNL     1      16.268  18.614  13.878  1.00  0.00     0.205 C 
HETATM   20  C2  UNL     1      16.561  20.047  13.498  1.00  0.00     0.004 C 
HETATM   21  C1  UNL     1      17.641  20.668  14.343  1.00  0.00     0.019 C 
HETATM   22  C3  UNL     1      16.942  20.086  12.056  1.00  0.00     0.019 C 
HETATM   23  C4  UNL     1      15.230  20.706  13.682  1.00  0.00     0.013 C 
HETATM   24  C5  UNL     1      14.264  19.679  13.193  1.00  0.00     0.005 C 
HETATM   25  C6  UNL     1      15.019  18.371  13.069  1.00  0.00     0.062 C 
BRANCH  19  26
HETATM   26  N1  UNL     1      17.301  17.685  13.613  1.00  0.00    -0.052 N 
ATOM     27  H13 UNL     1      18.174  18.179  13.430  1.00  0.00     0.277 HD
ATOM     28  H12 UNL     1      17.548  17.187  14.468  1.00  0.00     0.277 HD
ATOM     29  H11 UNL     1      17.115  17.019  12.864  1.00  0.00     0.277 HD
ENDBRANCH  19  26
ENDBRANCH   1  19
TORSDOF 4
ENDMDL
