MODEL 1
REMARK VINA RESULT: -8.632667102      0.000      0.000
REMARK  6 active torsions:
REMARK  status: ('A' for Active; 'I' for Inactive)
REMARK    1  A    between atoms: C5_5  and  N1_6 
REMARK    2  A    between atoms: N1_6  and  C6_8 
REMARK    3  A    between atoms: C8_14  and  N4_15 
REMARK    4  A    between atoms: C14_21  and  C15_22 
REMARK    5  A    between atoms: C15_22  and  O1_23 
REMARK    6  A    between atoms: N5_25  and  O2_27 
ROOT
HETATM    1  C6  UNL     1      16.221  18.978  15.490  1.00  0.00     0.136 A 
HETATM    2  N2  UNL     1      17.230  19.441  16.234  1.00  0.00    -0.284 N 
ATOM      3  H2  UNL     1      17.862  20.189  15.950  1.00  0.00     0.188 HD
HETATM    4  N3  UNL     1      17.296  18.799  17.385  1.00  0.00    -0.295 N 
ATOM      5  H3  UNL     1      17.987  18.985  18.112  1.00  0.00     0.187 HD
HETATM    6  C7  UNL     1      16.310  17.850  17.473  1.00  0.00     0.097 A 
HETATM    7  C8  UNL     1      15.857  16.915  18.333  1.00  0.00     0.082 A 
HETATM    8  C14 UNL     1      14.779  16.170  17.952  1.00  0.00     0.087 A 
HETATM    9  S1  UNL     1      14.424  16.801  16.386  1.00  0.00    -0.077 SA
HETATM   10  C16 UNL     1      15.649  17.976  16.282  1.00  0.00     0.081 A 
ENDROOT
BRANCH   1  11
HETATM   11  N1  UNL     1      15.810  19.321  14.317  1.00  0.00    -0.369 N 
ATOM     12  H1  UNL     1      15.341  20.214  14.162  1.00  0.00     0.161 HD
BRANCH  11  13
HETATM   13  C5  UNL     1      16.036  18.403  13.236  1.00  0.00     0.083 C 
HETATM   14  C4  UNL     1      15.751  19.011  11.885  1.00  0.00     0.025 C 
HETATM   15  C3  UNL     1      16.594  18.206  10.941  1.00  0.00     0.006 C 
HETATM   16  C2  UNL     1      17.489  17.326  11.751  1.00  0.00    -0.017 C 
HETATM   17  C1  UNL     1      18.860  17.152  11.183  1.00  0.00     0.010 C 
HETATM   18  C17 UNL     1      17.512  18.041  13.099  1.00  0.00     0.029 C 
ENDBRANCH  11  13
ENDBRANCH   1  11
BRANCH   7  19
HETATM   19  N4  UNL     1      16.467  16.676  19.629  1.00  0.00    -0.378 N 
HETATM   20  C9  UNL     1      17.895  16.642  19.812  1.00  0.00     0.123 C 
HETATM   21  C10 UNL     1      18.292  17.396  21.093  1.00  0.00     0.020 C 
HETATM   22  C11 UNL     1      17.482  16.912  22.258  1.00  0.00     0.003 C 
HETATM   23  C12 UNL     1      16.026  17.219  21.977  1.00  0.00     0.020 C 
HETATM   24  C13 UNL     1      15.541  16.499  20.732  1.00  0.00     0.123 C 
ENDBRANCH   7  19
BRANCH   8  25
HETATM   25  C15 UNL     1      14.052  15.088  18.616  1.00  0.00     0.179 C 
HETATM   26  N5  UNL     1      12.874  15.307  19.064  1.00  0.00    -0.246 N 
ATOM     27  H5  UNL     1      12.361  14.557  19.529  1.00  0.00     0.196 HD
BRANCH  25  28
HETATM   28  O1  UNL     1      14.564  13.819  18.795  1.00  0.00    -0.344 OA
ATOM     29  H1  UNL     1      14.243  13.209  19.448  1.00  0.00     0.219 HD
ENDBRANCH  25  28
BRANCH  26  30
HETATM   30  O2  UNL     1      12.302  16.530  18.926  1.00  0.00    -0.288 OA
ATOM     31  H2  UNL     1      11.497  16.632  18.434  1.00  0.00     0.244 HD
ENDBRANCH  26  30
ENDBRANCH   8  25
TORSDOF 6
ENDMDL
MODEL 2
REMARK VINA RESULT: -8.579821290      2.348      6.702
REMARK  6 active torsions:
REMARK  status: ('A' for Active; 'I' for Inactive)
REMARK    1  A    between atoms: C5_5  and  N1_6 
REMARK    2  A    between atoms: N1_6  and  C6_8 
REMARK    3  A    between atoms: C8_14  and  N4_15 
REMARK    4  A    between atoms: C14_21  and  C15_22 
REMARK    5  A    between atoms: C15_22  and  O1_23 
REMARK    6  A    between atoms: N5_25  and  O2_27 
ROOT
HETATM    1  C6  UNL     1      17.233  17.725  17.975  1.00  0.00     0.136 A 
HETATM    2  N2  UNL     1      17.278  18.756  17.126  1.00  0.00    -0.284 N 
ATOM      3  H2  UNL     1      18.045  19.426  17.070  1.00  0.00     0.188 HD
HETATM    4  N3  UNL     1      16.196  18.787  16.370  1.00  0.00    -0.295 N 
ATOM      5  H3  UNL     1      16.014  19.486  15.650  1.00  0.00     0.187 HD
HETATM    6  C7  UNL     1      15.350  17.753  16.684  1.00  0.00     0.097 A 
HETATM    7  C8  UNL     1      14.157  17.252  16.307  1.00  0.00     0.082 A 
HETATM    8  C14 UNL     1      13.704  16.138  16.952  1.00  0.00     0.087 A 
HETATM    9  S1  UNL     1      14.970  15.817  18.079  1.00  0.00    -0.077 SA
HETATM   10  C16 UNL     1      16.014  17.102  17.686  1.00  0.00     0.081 A 
ENDROOT
BRANCH   1  11
HETATM   11  N1  UNL     1      18.072  17.334  18.873  1.00  0.00    -0.369 N 
ATOM     12  H1  UNL     1      19.076  17.475  18.754  1.00  0.00     0.161 HD
BRANCH  11  13
HETATM   13  C5  UNL     1      17.545  16.693  20.045  1.00  0.00     0.083 C 
HETATM   14  C4  UNL     1      18.623  16.245  21.000  1.00  0.00     0.025 C 
HETATM   15  C3  UNL     1      17.934  16.204  22.331  1.00  0.00     0.006 C 
HETATM   16  C2  UNL     1      16.581  16.818  22.174  1.00  0.00    -0.017 C 
HETATM   17  C1  UNL     1      16.135  17.634  23.344  1.00  0.00     0.010 C 
HETATM   18  C17 UNL     1      16.755  17.665  20.916  1.00  0.00     0.029 C 
ENDBRANCH  11  13
ENDBRANCH   1  11
BRANCH   7  19
HETATM   19  N4  UNL     1      13.348  17.847  15.258  1.00  0.00    -0.378 N 
HETATM   20  C9  UNL     1      12.144  18.585  15.541  1.00  0.00     0.123 C 
HETATM   21  C10 UNL     1      12.074  19.854  14.674  1.00  0.00     0.020 C 
HETATM   22  C11 UNL     1      12.298  19.516  13.231  1.00  0.00     0.003 C 
HETATM   23  C12 UNL     1      13.693  18.942  13.094  1.00  0.00     0.020 C 
HETATM   24  C13 UNL     1      13.848  17.671  13.908  1.00  0.00     0.123 C 
ENDBRANCH   7  19
BRANCH   8  25
HETATM   25  C15 UNL     1      12.476  15.355  16.809  1.00  0.00     0.179 C 
HETATM   26  N5  UNL     1      11.595  15.395  17.735  1.00  0.00    -0.246 N 
ATOM     27  H5  UNL     1      10.737  14.851  17.642  1.00  0.00     0.196 HD
BRANCH  25  28
HETATM   28  O1  UNL     1      12.201  14.557  15.717  1.00  0.00    -0.344 OA
ATOM     29  H1  UNL     1      12.200  14.872  14.821  1.00  0.00     0.219 HD
ENDBRANCH  25  28
BRANCH  26  30
HETATM   30  O2  UNL     1      11.794  16.158  18.841  1.00  0.00    -0.288 OA
ATOM     31  H2  UNL     1      12.037  17.072  18.758  1.00  0.00     0.244 HD
ENDBRANCH  26  30
ENDBRANCH   8  25
TORSDOF 6
ENDMDL
MODEL 3
REMARK VINA RESULT: -8.469118431      0.607      1.017
REMARK  6 active torsions:
REMARK  status: ('A' for Active; 'I' for Inactive)
REMARK    1  A    between atoms: C5_5  and  N1_6 
REMARK    2  A    between atoms: N1_6  and  C6_8 
REMARK    3  A    between atoms: C8_14  and  N4_15 
REMARK    4  A    between atoms: C14_21  and  C15_22 
REMARK    5  A    between atoms: C15_22  and  O1_23 
REMARK    6  A    between atoms: N5_25  and  O2_27 
ROOT
HETATM    1  C6  UNL     1      16.089  18.802  15.540  1.00  0.00     0.136 A 
HETATM    2  N2  UNL     1      17.070  19.309  16.293  1.00  0.00    -0.284 N 
ATOM      3  H2  UNL     1      17.683  20.073  16.008  1.00  0.00     0.188 HD
HETATM    4  N3  UNL     1      17.136  18.688  17.456  1.00  0.00    -0.295 N 
ATOM      5  H3  UNL     1      17.808  18.907  18.191  1.00  0.00     0.187 HD
HETATM    6  C7  UNL     1      16.179  17.708  17.542  1.00  0.00     0.097 A 
HETATM    7  C8  UNL     1      15.741  16.773  18.408  1.00  0.00     0.082 A 
HETATM    8  C14 UNL     1      14.695  15.987  18.021  1.00  0.00     0.087 A 
HETATM    9  S1  UNL     1      14.348  16.583  16.439  1.00  0.00    -0.077 SA
HETATM   10  C16 UNL     1      15.536  17.795  16.338  1.00  0.00     0.081 A 
ENDROOT
BRANCH   1  11
HETATM   11  N1  UNL     1      15.689  19.114  14.355  1.00  0.00    -0.369 N 
ATOM     12  H1  UNL     1      14.802  19.597  14.207  1.00  0.00     0.161 HD
BRANCH  11  13
HETATM   13  C5  UNL     1      16.534  18.757  13.250  1.00  0.00     0.083 C 
HETATM   14  C4  UNL     1      16.285  17.354  12.753  1.00  0.00     0.025 C 
HETATM   15  C3  UNL     1      16.738  17.390  11.325  1.00  0.00     0.006 C 
HETATM   16  C2  UNL     1      17.024  18.811  10.962  1.00  0.00    -0.017 C 
HETATM   17  C1  UNL     1      16.637  19.181   9.566  1.00  0.00     0.010 C 
HETATM   18  C17 UNL     1      16.215  19.579  12.004  1.00  0.00     0.029 C 
ENDBRANCH  11  13
ENDBRANCH   1  11
BRANCH   7  19
HETATM   19  N4  UNL     1      16.336  16.573  19.719  1.00  0.00    -0.378 N 
HETATM   20  C9  UNL     1      17.761  16.592  19.927  1.00  0.00     0.123 C 
HETATM   21  C10 UNL     1      18.108  17.377  21.203  1.00  0.00     0.020 C 
HETATM   22  C11 UNL     1      17.295  16.882  22.361  1.00  0.00     0.003 C 
HETATM   23  C12 UNL     1      15.834  17.135  22.050  1.00  0.00     0.020 C 
HETATM   24  C13 UNL     1      15.397  16.380  20.807  1.00  0.00     0.123 C 
ENDBRANCH   7  19
BRANCH   8  25
HETATM   25  C15 UNL     1      13.991  14.894  18.690  1.00  0.00     0.179 C 
HETATM   26  N5  UNL     1      12.797  15.079  19.109  1.00  0.00    -0.246 N 
ATOM     27  H5  UNL     1      12.300  14.320  19.576  1.00  0.00     0.196 HD
BRANCH  25  28
HETATM   28  O1  UNL     1      14.543  13.647  18.903  1.00  0.00    -0.344 OA
ATOM     29  H1  UNL     1      15.145  13.452  19.612  1.00  0.00     0.219 HD
ENDBRANCH  25  28
BRANCH  26  30
HETATM   30  O2  UNL     1      12.187  16.279  18.936  1.00  0.00    -0.288 OA
ATOM     31  H2  UNL     1      11.432  16.515  19.461  1.00  0.00     0.244 HD
ENDBRANCH  26  30
ENDBRANCH   8  25
TORSDOF 6
ENDMDL
MODEL 4
REMARK VINA RESULT: -8.407985958      2.022      7.107
REMARK  6 active torsions:
REMARK  status: ('A' for Active; 'I' for Inactive)
REMARK    1  A    between atoms: C5_5  and  N1_6 
REMARK    2  A    between atoms: N1_6  and  C6_8 
REMARK    3  A    between atoms: C8_14  and  N4_15 
REMARK    4  A    between atoms: C14_21  and  C15_22 
REMARK    5  A    between atoms: C15_22  and  O1_23 
REMARK    6  A    between atoms: N5_25  and  O2_27 
ROOT
HETATM    1  C6  UNL     1      17.196  17.312  18.329  1.00  0.00     0.136 A 
HETATM    2  N2  UNL     1      17.875  18.193  17.588  1.00  0.00    -0.284 N 
ATOM      3  H2  UNL     1      18.787  18.576  17.835  1.00  0.00     0.188 HD
HETATM    4  N3  UNL     1      17.205  18.498  16.492  1.00  0.00    -0.295 N 
ATOM      5  H3  UNL     1      17.530  19.149  15.778  1.00  0.00     0.187 HD
HETATM    6  C7  UNL     1      16.013  17.820  16.443  1.00  0.00     0.097 A 
HETATM    7  C8  UNL     1      14.936  17.692  15.643  1.00  0.00     0.082 A 
HETATM    8  C14 UNL     1      13.944  16.845  16.043  1.00  0.00     0.087 A 
HETATM    9  S1  UNL     1      14.549  16.242  17.542  1.00  0.00    -0.077 SA
HETATM   10  C16 UNL     1      16.025  17.086  17.597  1.00  0.00     0.081 A 
ENDROOT
BRANCH   1  11
HETATM   11  N1  UNL     1      17.485  16.758  19.457  1.00  0.00    -0.369 N 
ATOM     12  H1  UNL     1      18.185  16.019  19.518  1.00  0.00     0.161 HD
BRANCH  11  13
HETATM   13  C5  UNL     1      16.787  17.219  20.624  1.00  0.00     0.083 C 
HETATM   14  C4  UNL     1      15.576  16.379  20.949  1.00  0.00     0.025 C 
HETATM   15  C3  UNL     1      15.380  16.581  22.421  1.00  0.00     0.006 C 
HETATM   16  C2  UNL     1      16.562  17.325  22.952  1.00  0.00    -0.017 C 
HETATM   17  C1  UNL     1      17.002  16.893  24.313  1.00  0.00     0.010 C 
HETATM   18  C17 UNL     1      17.622  17.045  21.889  1.00  0.00     0.029 C 
ENDBRANCH  11  13
ENDBRANCH   1  11
BRANCH   7  19
HETATM   19  N4  UNL     1      14.794  18.416  14.391  1.00  0.00    -0.378 N 
HETATM   20  C9  UNL     1      14.118  19.685  14.309  1.00  0.00     0.123 C 
HETATM   21  C10 UNL     1      14.899  20.654  13.406  1.00  0.00     0.020 C 
HETATM   22  C11 UNL     1      15.214  20.006  12.091  1.00  0.00     0.003 C 
HETATM   23  C12 UNL     1      16.103  18.809  12.359  1.00  0.00     0.020 C 
HETATM   24  C13 UNL     1      15.402  17.786  13.235  1.00  0.00     0.123 C 
ENDBRANCH   7  19
BRANCH   8  25
HETATM   25  C15 UNL     1      12.661  16.484  15.439  1.00  0.00     0.179 C 
HETATM   26  N5  UNL     1      12.605  15.496  14.629  1.00  0.00    -0.246 N 
ATOM     27  H5  UNL     1      11.713  15.239  14.204  1.00  0.00     0.196 HD
BRANCH  25  28
HETATM   28  O1  UNL     1      11.482  17.155  15.691  1.00  0.00    -0.344 OA
ATOM     29  H1  UNL     1      11.233  17.963  15.258  1.00  0.00     0.219 HD
ENDBRANCH  25  28
BRANCH  26  30
HETATM   30  O2  UNL     1      13.724  14.786  14.331  1.00  0.00    -0.288 OA
ATOM     31  H2  UNL     1      14.369  15.137  13.729  1.00  0.00     0.244 HD
ENDBRANCH  26  30
ENDBRANCH   8  25
TORSDOF 6
ENDMDL
MODEL 5
REMARK VINA RESULT: -8.242774645      0.629      1.195
REMARK  6 active torsions:
REMARK  status: ('A' for Active; 'I' for Inactive)
REMARK    1  A    between atoms: C5_5  and  N1_6 
REMARK    2  A    between atoms: N1_6  and  C6_8 
REMARK    3  A    between atoms: C8_14  and  N4_15 
REMARK    4  A    between atoms: C14_21  and  C15_22 
REMARK    5  A    between atoms: C15_22  and  O1_23 
REMARK    6  A    between atoms: N5_25  and  O2_27 
ROOT
HETATM    1  C6  UNL     1      16.265  18.840  14.969  1.00  0.00     0.136 A 
HETATM    2  N2  UNL     1      17.123  19.544  15.713  1.00  0.00    -0.284 N 
ATOM      3  H2  UNL     1      17.697  20.311  15.364  1.00  0.00     0.188 HD
HETATM    4  N3  UNL     1      17.126  19.110  16.960  1.00  0.00    -0.295 N 
ATOM      5  H3  UNL     1      17.703  19.498  17.706  1.00  0.00     0.187 HD
HETATM    6  C7  UNL     1      16.248  18.068  17.117  1.00  0.00     0.097 A 
HETATM    7  C8  UNL     1      15.805  17.234  18.079  1.00  0.00     0.082 A 
HETATM    8  C14 UNL     1      14.868  16.304  17.733  1.00  0.00     0.087 A 
HETATM    9  S1  UNL     1      14.629  16.623  16.054  1.00  0.00    -0.077 SA
HETATM   10  C16 UNL     1      15.720  17.914  15.865  1.00  0.00     0.081 A 
ENDROOT
BRANCH   1  11
HETATM   11  N1  UNL     1      15.957  18.933  13.720  1.00  0.00    -0.369 N 
ATOM     12  H1  UNL     1      15.312  19.650  13.387  1.00  0.00     0.161 HD
BRANCH  11  13
HETATM   13  C5  UNL     1      16.555  17.993  12.814  1.00  0.00     0.083 C 
HETATM   14  C4  UNL     1      16.283  18.323  11.367  1.00  0.00     0.025 C 
HETATM   15  C3  UNL     1      17.421  17.683  10.630  1.00  0.00     0.006 C 
HETATM   16  C2  UNL     1      18.416  17.202  11.635  1.00  0.00    -0.017 C 
HETATM   17  C1  UNL     1      19.842  17.360  11.216  1.00  0.00     0.010 C 
HETATM   18  C17 UNL     1      18.079  18.054  12.856  1.00  0.00     0.029 C 
ENDBRANCH  11  13
ENDBRANCH   1  11
BRANCH   7  19
HETATM   19  N4  UNL     1      16.283  17.288  19.450  1.00  0.00    -0.378 N 
HETATM   20  C9  UNL     1      15.404  17.118  20.578  1.00  0.00     0.123 C 
HETATM   21  C10 UNL     1      16.059  16.220  21.641  1.00  0.00     0.020 C 
HETATM   22  C11 UNL     1      17.437  16.713  21.967  1.00  0.00     0.003 C 
HETATM   23  C12 UNL     1      18.276  16.624  20.709  1.00  0.00     0.020 C 
HETATM   24  C13 UNL     1      17.710  17.498  19.605  1.00  0.00     0.123 C 
ENDBRANCH   7  19
BRANCH   8  25
HETATM   25  C15 UNL     1      14.193  15.259  18.503  1.00  0.00     0.179 C 
HETATM   26  N5  UNL     1      13.029  15.485  18.981  1.00  0.00    -0.246 N 
ATOM     27  H5  UNL     1      12.553  14.761  19.519  1.00  0.00     0.196 HD
BRANCH  25  28
HETATM   28  O1  UNL     1      14.743  14.018  18.754  1.00  0.00    -0.344 OA
ATOM     29  H1  UNL     1      14.812  13.638  19.622  1.00  0.00     0.219 HD
ENDBRANCH  25  28
BRANCH  26  30
HETATM   30  O2  UNL     1      12.422  16.682  18.776  1.00  0.00    -0.288 OA
ATOM     31  H2  UNL     1      12.533  17.143  17.954  1.00  0.00     0.244 HD
ENDBRANCH  26  30
ENDBRANCH   8  25
TORSDOF 6
ENDMDL
