MODEL 1
REMARK VINA RESULT: -8.167581645      0.000      0.000
REMARK  14 active torsions:
REMARK  status: ('A' for Active; 'I' for Inactive)
REMARK    1  A    between atoms: C4_7  and  C5_8 
REMARK    2  A    between atoms: C5_8  and  C6_9 
REMARK    3  A    between atoms: C5_8  and  C16_40 
REMARK    4  A    between atoms: C6_9  and  N2_10 
REMARK    5  A    between atoms: N4_17  and  C9_18 
REMARK    6  A    between atoms: C9_18  and  C10_19 
REMARK    7  A    between atoms: C10_19  and  O4_20 
REMARK    8  A    between atoms: C10_19  and  N5_22 
REMARK    9  A    between atoms: N5_22  and  C11_25 
REMARK   10  A    between atoms: N6_32  and  O7_34 
REMARK       I    between atoms: C16_40  and  N8_42 
REMARK   11  A    between atoms: N8_42  and  C17_44 
REMARK   12  A    between atoms: C17_44  and  O10_45 
REMARK   13  A    between atoms: C17_44  and  C18_47 
REMARK   14  A    between atoms: C20_54  and  O12_55 
ROOT
HETATM    1  N2  UNL     1      21.032 -10.889  -8.573  1.00  0.00    -0.250 N 
HETATM    2  C7  UNL     1      21.079  -9.603  -8.227  1.00  0.00     0.334 A 
HETATM    3  O2  UNL     1      20.176  -8.773  -8.500  1.00  0.00    -0.246 OA
HETATM    4  N3  UNL     1      22.145  -9.111  -7.539  1.00  0.00    -0.260 N 
ATOM      5  H3  UNL     1      22.181  -8.127  -7.274  1.00  0.00     0.175 HD
HETATM    6  C8  UNL     1      23.148  -9.943  -7.214  1.00  0.00     0.334 A 
HETATM    7  O3  UNL     1      24.118  -9.431  -6.571  1.00  0.00    -0.246 OA
HETATM    8  N4  UNL     1      23.151 -11.247  -7.539  1.00  0.00    -0.247 N 
HETATM    9  C15 UNL     1      22.056 -11.684  -8.229  1.00  0.00     0.336 A 
HETATM   10  O8  UNL     1      22.041 -12.921  -8.546  1.00  0.00    -0.246 OA
ENDROOT
BRANCH   1  11
HETATM   11  C6  UNL     1      19.914 -11.423  -9.281  1.00  0.00     0.153 C 
BRANCH  11  12
HETATM   12  C5  UNL     1      18.995 -12.256  -8.475  1.00  0.00     0.109 C 
BRANCH  12  13
HETATM   13  C4  UNL     1      17.567 -12.053  -8.928  1.00  0.00     0.094 C 
HETATM   14  C1  UNL     1      17.149 -13.291  -9.665  1.00  0.00     0.222 C 
HETATM   15  O1  UNL     1      17.141 -13.511 -10.900  1.00  0.00    -0.273 OA
HETATM   16  N1  UNL     1      16.748 -14.195  -8.614  1.00  0.00    -0.361 N 
HETATM   17  C2  UNL     1      16.130 -13.445  -7.542  1.00  0.00     0.123 C 
ATOM     18  H1  UNL     1      16.881 -15.207  -8.625  1.00  0.00     0.162 HD
HETATM   19  C3  UNL     1      16.616 -12.036  -7.739  1.00  0.00     0.034 C 
ENDBRANCH  12  13
BRANCH  12  20
HETATM   20  C16 UNL     1      19.121 -12.163  -7.011  1.00  0.00     0.226 C 
HETATM   21  O9  UNL     1      18.745 -11.136  -6.401  1.00  0.00    -0.273 OA
HETATM   22  N8  UNL     1      19.676 -13.226  -6.207  1.00  0.00    -0.329 N 
ATOM     23  H8  UNL     1      19.999 -14.084  -6.653  1.00  0.00     0.165 HD
BRANCH  22  24
HETATM   24  C17 UNL     1      19.775 -13.076  -4.775  1.00  0.00     0.276 C 
BRANCH  24  25
HETATM   25  O10 UNL     1      20.965 -12.355  -4.460  1.00  0.00    -0.371 OA
ATOM     26  H10 UNL     1      20.750 -11.638  -3.876  1.00  0.00     0.212 HD
ENDBRANCH  24  25
BRANCH  24  27
HETATM   27  C18 UNL     1      19.798 -14.326  -4.009  1.00  0.00     0.113 A 
HETATM   28  N9  UNL     1      19.135 -15.480  -4.330  1.00  0.00    -0.304 N 
HETATM   29  C19 UNL     1      19.416 -16.370  -3.404  1.00  0.00     0.326 A 
ATOM     30  H9  UNL     1      18.533 -15.623  -5.141  1.00  0.00     0.170 HD
HETATM   31  O11 UNL     1      18.997 -17.559  -3.345  1.00  0.00    -0.247 OA
HETATM   32  N10 UNL     1      20.238 -15.863  -2.477  1.00  0.00    -0.287 N 
HETATM   33  C20 UNL     1      20.475 -14.584  -2.856  1.00  0.00     0.171 A 
ATOM     34  H10 UNL     1      20.608 -16.340  -1.655  1.00  0.00     0.172 HD
BRANCH  33  35
HETATM   35  O12 UNL     1      21.308 -13.722  -2.115  1.00  0.00    -0.344 OA
ATOM     36  H12 UNL     1      21.376 -13.631  -1.172  1.00  0.00     0.219 HD
ENDBRANCH  33  35
ENDBRANCH  24  27
ENDBRANCH  22  24
ENDBRANCH  12  20
ENDBRANCH  11  12
ENDBRANCH   1  11
BRANCH   8  37
HETATM   37  C9  UNL     1      24.224 -12.125  -7.191  1.00  0.00     0.200 C 
BRANCH  37  38
HETATM   38  C10 UNL     1      24.174 -12.700  -5.810  1.00  0.00     0.339 C 
BRANCH  38  39
HETATM   39  O4  UNL     1      25.508 -12.839  -5.387  1.00  0.00    -0.368 OA
ATOM     40  H4  UNL     1      25.754 -13.740  -5.563  1.00  0.00     0.212 HD
ENDBRANCH  38  39
BRANCH  38  41
HETATM   41  N5  UNL     1      23.419 -13.903  -5.774  1.00  0.00    -0.026 N 
ATOM     42  H52 UNL     1      22.991 -14.029  -4.856  1.00  0.00     0.282 HD
ATOM     43  H51 UNL     1      22.579 -13.814  -6.346  1.00  0.00     0.282 HD
BRANCH  41  44
HETATM   44  C11 UNL     1      24.164 -15.085  -6.150  1.00  0.00     0.302 C 
HETATM   45  C12 UNL     1      23.541 -15.918  -7.217  1.00  0.00     0.195 C 
HETATM   46  S1  UNL     1      22.156 -16.830  -6.640  1.00  0.00     0.154 S 
HETATM   47  O5  UNL     1      20.866 -16.086  -6.657  1.00  0.00    -0.227 OA
HETATM   48  O6  UNL     1      21.966 -18.016  -7.579  1.00  0.00    -0.227 OA
HETATM   49  C13 UNL     1      22.535 -17.470  -5.030  1.00  0.00     0.218 C 
HETATM   50  C14 UNL     1      23.546 -16.678  -4.331  1.00  0.00     0.113 C 
HETATM   51  N6  UNL     1      23.545 -16.698  -3.019  1.00  0.00    -0.256 N 
HETATM   52  N7  UNL     1      24.523 -15.893  -5.010  1.00  0.00    -0.349 N 
ATOM     53  H6  UNL     1      24.244 -16.151  -2.516  1.00  0.00     0.195 HD
ATOM     54  H7  UNL     1      25.490 -15.904  -4.685  1.00  0.00     0.163 HD
BRANCH  51  55
HETATM   55  O7  UNL     1      22.641 -17.424  -2.310  1.00  0.00    -0.288 OA
ATOM     56  H7  UNL     1      21.744 -17.134  -2.190  1.00  0.00     0.244 HD
ENDBRANCH  51  55
ENDBRANCH  41  44
ENDBRANCH  38  41
ENDBRANCH  37  38
ENDBRANCH   8  37
TORSDOF 14
ENDMDL
MODEL 2
REMARK VINA RESULT: -7.841111239      2.216      5.848
REMARK  14 active torsions:
REMARK  status: ('A' for Active; 'I' for Inactive)
REMARK    1  A    between atoms: C4_7  and  C5_8 
REMARK    2  A    between atoms: C5_8  and  C6_9 
REMARK    3  A    between atoms: C5_8  and  C16_40 
REMARK    4  A    between atoms: C6_9  and  N2_10 
REMARK    5  A    between atoms: N4_17  and  C9_18 
REMARK    6  A    between atoms: C9_18  and  C10_19 
REMARK    7  A    between atoms: C10_19  and  O4_20 
REMARK    8  A    between atoms: C10_19  and  N5_22 
REMARK    9  A    between atoms: N5_22  and  C11_25 
REMARK   10  A    between atoms: N6_32  and  O7_34 
REMARK       I    between atoms: C16_40  and  N8_42 
REMARK   11  A    between atoms: N8_42  and  C17_44 
REMARK   12  A    between atoms: C17_44  and  O10_45 
REMARK   13  A    between atoms: C17_44  and  C18_47 
REMARK   14  A    between atoms: C20_54  and  O12_55 
ROOT
HETATM    1  N2  UNL     1      19.105 -11.545  -7.481  1.00  0.00    -0.250 N 
HETATM    2  C7  UNL     1      18.070 -12.169  -8.041  1.00  0.00     0.334 A 
HETATM    3  O2  UNL     1      17.580 -11.851  -9.154  1.00  0.00    -0.246 OA
HETATM    4  N3  UNL     1      17.472 -13.218  -7.411  1.00  0.00    -0.260 N 
ATOM      5  H3  UNL     1      16.680 -13.696  -7.840  1.00  0.00     0.175 HD
HETATM    6  C8  UNL     1      17.944 -13.612  -6.217  1.00  0.00     0.334 A 
HETATM    7  O3  UNL     1      17.350 -14.597  -5.674  1.00  0.00    -0.246 OA
HETATM    8  N4  UNL     1      18.984 -13.016  -5.609  1.00  0.00    -0.247 N 
HETATM    9  C15 UNL     1      19.543 -11.970  -6.287  1.00  0.00     0.336 A 
HETATM   10  O8  UNL     1      20.532 -11.392  -5.724  1.00  0.00    -0.246 OA
ENDROOT
BRANCH   1  11
HETATM   11  C6  UNL     1      19.751 -10.453  -8.136  1.00  0.00     0.153 C 
BRANCH  11  12
HETATM   12  C5  UNL     1      21.052 -10.774  -8.762  1.00  0.00     0.109 C 
BRANCH  12  13
HETATM   13  C4  UNL     1      21.588  -9.572  -9.507  1.00  0.00     0.094 C 
HETATM   14  C1  UNL     1      21.360  -8.369  -8.641  1.00  0.00     0.222 C 
HETATM   15  O1  UNL     1      20.423  -7.535  -8.677  1.00  0.00    -0.273 OA
HETATM   16  N1  UNL     1      22.485  -8.381  -7.737  1.00  0.00    -0.361 N 
HETATM   17  C2  UNL     1      23.656  -8.875  -8.428  1.00  0.00     0.123 C 
ATOM     18  H1  UNL     1      22.458  -8.087  -6.760  1.00  0.00     0.162 HD
HETATM   19  C3  UNL     1      23.106  -9.627  -9.609  1.00  0.00     0.034 C 
ENDBRANCH  12  13
BRANCH  12  20
HETATM   20  C16 UNL     1      21.117 -11.996  -9.580  1.00  0.00     0.226 C 
HETATM   21  O9  UNL     1      21.832 -12.962  -9.229  1.00  0.00    -0.273 OA
HETATM   22  N8  UNL     1      20.377 -12.152 -10.809  1.00  0.00    -0.329 N 
ATOM     23  H8  UNL     1      19.779 -11.396 -11.141  1.00  0.00     0.165 HD
BRANCH  22  24
HETATM   24  C17 UNL     1      20.482 -13.375 -11.568  1.00  0.00     0.276 C 
BRANCH  24  25
HETATM   25  O10 UNL     1      20.628 -13.056 -12.951  1.00  0.00    -0.371 OA
ATOM     26  H10 UNL     1      21.296 -13.614 -13.331  1.00  0.00     0.212 HD
ENDBRANCH  24  25
BRANCH  24  27
HETATM   27  C18 UNL     1      19.347 -14.295 -11.444  1.00  0.00     0.113 A 
HETATM   28  N9  UNL     1      18.468 -14.628 -12.439  1.00  0.00    -0.304 N 
HETATM   29  C19 UNL     1      17.604 -15.482 -11.936  1.00  0.00     0.326 A 
ATOM     30  H9  UNL     1      18.481 -14.278 -13.397  1.00  0.00     0.170 HD
HETATM   31  O11 UNL     1      16.636 -16.025 -12.539  1.00  0.00    -0.247 OA
HETATM   32  N10 UNL     1      17.866 -15.735 -10.648  1.00  0.00    -0.287 N 
HETATM   33  C20 UNL     1      18.956 -14.992 -10.342  1.00  0.00     0.171 A 
ATOM     34  H10 UNL     1      17.351 -16.359 -10.026  1.00  0.00     0.172 HD
BRANCH  33  35
HETATM   35  O12 UNL     1      19.533 -14.997  -9.056  1.00  0.00    -0.344 OA
ATOM     36  H12 UNL     1      19.190 -14.626  -8.251  1.00  0.00     0.219 HD
ENDBRANCH  33  35
ENDBRANCH  24  27
ENDBRANCH  22  24
ENDBRANCH  12  20
ENDBRANCH  11  12
ENDBRANCH   1  11
BRANCH   8  37
HETATM   37  C9  UNL     1      19.478 -13.441  -4.336  1.00  0.00     0.200 C 
BRANCH  37  38
HETATM   38  C10 UNL     1      20.418 -14.606  -4.358  1.00  0.00     0.339 C 
BRANCH  38  39
HETATM   39  O4  UNL     1      20.274 -15.257  -3.120  1.00  0.00    -0.368 OA
ATOM     40  H4  UNL     1      20.775 -14.753  -2.490  1.00  0.00     0.212 HD
ENDBRANCH  38  39
BRANCH  38  41
HETATM   41  N5  UNL     1      21.746 -14.198  -4.656  1.00  0.00    -0.026 N 
ATOM     42  H52 UNL     1      21.872 -13.208  -4.443  1.00  0.00     0.282 HD
ATOM     43  H51 UNL     1      22.402 -14.604  -3.988  1.00  0.00     0.282 HD
BRANCH  41  44
HETATM   44  C11 UNL     1      22.164 -14.481  -6.012  1.00  0.00     0.302 C 
HETATM   45  C12 UNL     1      22.717 -15.845  -6.236  1.00  0.00     0.195 C 
HETATM   46  S1  UNL     1      24.331 -16.039  -5.571  1.00  0.00     0.154 S 
HETATM   47  O5  UNL     1      24.375 -16.405  -4.129  1.00  0.00    -0.227 OA
HETATM   48  O6  UNL     1      24.999 -17.190  -6.315  1.00  0.00    -0.227 OA
HETATM   49  C13 UNL     1      25.259 -14.566  -5.912  1.00  0.00     0.218 C 
HETATM   50  C14 UNL     1      24.408 -13.391  -6.091  1.00  0.00     0.113 C 
HETATM   51  N6  UNL     1      24.922 -12.212  -5.831  1.00  0.00    -0.256 N 
HETATM   52  N7  UNL     1      23.055 -13.472  -6.533  1.00  0.00    -0.349 N 
ATOM     53  H6  UNL     1      24.341 -11.382  -5.951  1.00  0.00     0.195 HD
ATOM     54  H7  UNL     1      22.713 -12.809  -7.227  1.00  0.00     0.163 HD
BRANCH  51  55
HETATM   55  O7  UNL     1      26.205 -12.063  -5.406  1.00  0.00    -0.288 OA
ATOM     56  H7  UNL     1      26.857 -11.608  -5.925  1.00  0.00     0.244 HD
ENDBRANCH  51  55
ENDBRANCH  41  44
ENDBRANCH  38  41
ENDBRANCH  37  38
ENDBRANCH   8  37
TORSDOF 14
ENDMDL
MODEL 3
REMARK VINA RESULT: -7.756914095      2.179      7.132
REMARK  14 active torsions:
REMARK  status: ('A' for Active; 'I' for Inactive)
REMARK    1  A    between atoms: C4_7  and  C5_8 
REMARK    2  A    between atoms: C5_8  and  C6_9 
REMARK    3  A    between atoms: C5_8  and  C16_40 
REMARK    4  A    between atoms: C6_9  and  N2_10 
REMARK    5  A    between atoms: N4_17  and  C9_18 
REMARK    6  A    between atoms: C9_18  and  C10_19 
REMARK    7  A    between atoms: C10_19  and  O4_20 
REMARK    8  A    between atoms: C10_19  and  N5_22 
REMARK    9  A    between atoms: N5_22  and  C11_25 
REMARK   10  A    between atoms: N6_32  and  O7_34 
REMARK       I    between atoms: C16_40  and  N8_42 
REMARK   11  A    between atoms: N8_42  and  C17_44 
REMARK   12  A    between atoms: C17_44  and  O10_45 
REMARK   13  A    between atoms: C17_44  and  C18_47 
REMARK   14  A    between atoms: C20_54  and  O12_55 
ROOT
HETATM    1  N2  UNL     1      19.463 -13.145  -5.147  1.00  0.00    -0.250 N 
HETATM    2  C7  UNL     1      19.724 -11.959  -5.696  1.00  0.00     0.334 A 
HETATM    3  O2  UNL     1      20.809 -11.344  -5.546  1.00  0.00    -0.246 OA
HETATM    4  N3  UNL     1      18.794 -11.336  -6.471  1.00  0.00    -0.260 N 
ATOM      5  H3  UNL     1      18.993 -10.429  -6.891  1.00  0.00     0.175 HD
HETATM    6  C8  UNL     1      17.610 -11.937  -6.673  1.00  0.00     0.334 A 
HETATM    7  O3  UNL     1      16.779 -11.312  -7.405  1.00  0.00    -0.246 OA
HETATM    8  N4  UNL     1      17.295 -13.132  -6.143  1.00  0.00    -0.247 N 
HETATM    9  C15 UNL     1      18.267 -13.708  -5.374  1.00  0.00     0.336 A 
HETATM   10  O8  UNL     1      17.985 -14.844  -4.861  1.00  0.00    -0.246 OA
ENDROOT
BRANCH   1  11
HETATM   11  C6  UNL     1      20.432 -13.817  -4.344  1.00  0.00     0.153 C 
BRANCH  11  12
HETATM   12  C5  UNL     1      21.269 -14.805  -5.060  1.00  0.00     0.109 C 
BRANCH  12  13
HETATM   13  C4  UNL     1      21.781 -15.855  -4.100  1.00  0.00     0.094 C 
HETATM   14  C1  UNL     1      20.674 -16.843  -3.882  1.00  0.00     0.222 C 
HETATM   15  O1  UNL     1      19.837 -16.900  -2.949  1.00  0.00    -0.273 OA
HETATM   16  N1  UNL     1      20.787 -17.736  -5.010  1.00  0.00    -0.361 N 
HETATM   17  C2  UNL     1      22.182 -17.899  -5.359  1.00  0.00     0.123 C 
ATOM     18  H1  UNL     1      20.004 -18.184  -5.487  1.00  0.00     0.162 HD
HETATM   19  C3  UNL     1      22.863 -16.705  -4.750  1.00  0.00     0.034 C 
ENDBRANCH  12  13
BRANCH  12  20
HETATM   20  C16 UNL     1      22.345 -14.275  -5.914  1.00  0.00     0.226 C 
HETATM   21  O9  UNL     1      22.470 -14.663  -7.098  1.00  0.00    -0.273 OA
HETATM   22  N8  UNL     1      23.300 -13.299  -5.448  1.00  0.00    -0.329 N 
ATOM     23  H8  UNL     1      23.245 -12.949  -4.492  1.00  0.00     0.165 HD
BRANCH  22  24
HETATM   24  C17 UNL     1      24.335 -12.817  -6.333  1.00  0.00     0.276 C 
BRANCH  24  25
HETATM   25  O10 UNL     1      25.457 -12.401  -5.557  1.00  0.00    -0.371 OA
ATOM     26  H10 UNL     1      25.282 -11.543  -5.190  1.00  0.00     0.212 HD
ENDBRANCH  24  25
BRANCH  24  27
HETATM   27  C18 UNL     1      23.954 -11.696  -7.199  1.00  0.00     0.113 A 
HETATM   28  N9  UNL     1      23.204 -11.780  -8.341  1.00  0.00    -0.304 N 
HETATM   29  C19 UNL     1      23.078 -10.563  -8.821  1.00  0.00     0.326 A 
ATOM     30  H9  UNL     1      22.814 -12.631  -8.744  1.00  0.00     0.170 HD
HETATM   31  O11 UNL     1      22.454 -10.222  -9.865  1.00  0.00    -0.247 OA
HETATM   32  N10 UNL     1      23.710  -9.668  -8.052  1.00  0.00    -0.287 N 
HETATM   33  C20 UNL     1      24.258 -10.379  -7.038  1.00  0.00     0.171 A 
ATOM     34  H10 UNL     1      23.768  -8.661  -8.199  1.00  0.00     0.172 HD
BRANCH  33  35
HETATM   35  O12 UNL     1      25.013  -9.770  -6.014  1.00  0.00    -0.344 OA
ATOM     36  H12 UNL     1      24.829  -8.967  -5.541  1.00  0.00     0.219 HD
ENDBRANCH  33  35
ENDBRANCH  24  27
ENDBRANCH  22  24
ENDBRANCH  12  20
ENDBRANCH  11  12
ENDBRANCH   1  11
BRANCH   8  37
HETATM   37  C9  UNL     1      16.031 -13.762  -6.361  1.00  0.00     0.200 C 
BRANCH  37  38
HETATM   38  C10 UNL     1      15.950 -14.662  -7.554  1.00  0.00     0.339 C 
BRANCH  38  39
HETATM   39  O4  UNL     1      16.198 -15.966  -7.089  1.00  0.00    -0.368 OA
ATOM     40  H4  UNL     1      15.386 -16.273  -6.704  1.00  0.00     0.212 HD
ENDBRANCH  38  39
BRANCH  38  41
HETATM   41  N5  UNL     1      16.822 -14.233  -8.591  1.00  0.00    -0.026 N 
ATOM     42  H52 UNL     1      16.292 -14.008  -9.433  1.00  0.00     0.282 HD
ATOM     43  H51 UNL     1      17.206 -13.313  -8.376  1.00  0.00     0.282 HD
BRANCH  41  44
HETATM   44  C11 UNL     1      17.885 -15.166  -8.897  1.00  0.00     0.302 C 
HETATM   45  C12 UNL     1      19.266 -14.641  -8.708  1.00  0.00     0.195 C 
HETATM   46  S1  UNL     1      19.737 -13.507  -9.964  1.00  0.00     0.154 S 
HETATM   47  O5  UNL     1      19.315 -12.099  -9.727  1.00  0.00    -0.227 OA
HETATM   48  O6  UNL     1      21.261 -13.485 -10.013  1.00  0.00    -0.227 OA
HETATM   49  C13 UNL     1      19.156 -14.123 -11.523  1.00  0.00     0.218 C 
HETATM   50  C14 UNL     1      18.000 -15.008 -11.385  1.00  0.00     0.113 C 
HETATM   51  N6  UNL     1      17.177 -15.108 -12.402  1.00  0.00    -0.256 N 
HETATM   52  N7  UNL     1      17.734 -15.760 -10.204  1.00  0.00    -0.349 N 
ATOM     53  H6  UNL     1      16.366 -15.721 -12.322  1.00  0.00     0.195 HD
ATOM     54  H7  UNL     1      17.434 -16.731 -10.284  1.00  0.00     0.163 HD
BRANCH  51  55
HETATM   55  O7  UNL     1      17.371 -14.419 -13.557  1.00  0.00    -0.288 OA
ATOM     56  H7  UNL     1      18.034 -14.672 -14.189  1.00  0.00     0.244 HD
ENDBRANCH  51  55
ENDBRANCH  41  44
ENDBRANCH  38  41
ENDBRANCH  37  38
ENDBRANCH   8  37
TORSDOF 14
ENDMDL
MODEL 4
REMARK VINA RESULT: -7.677202309      2.173      3.911
REMARK  14 active torsions:
REMARK  status: ('A' for Active; 'I' for Inactive)
REMARK    1  A    between atoms: C4_7  and  C5_8 
REMARK    2  A    between atoms: C5_8  and  C6_9 
REMARK    3  A    between atoms: C5_8  and  C16_40 
REMARK    4  A    between atoms: C6_9  and  N2_10 
REMARK    5  A    between atoms: N4_17  and  C9_18 
REMARK    6  A    between atoms: C9_18  and  C10_19 
REMARK    7  A    between atoms: C10_19  and  O4_20 
REMARK    8  A    between atoms: C10_19  and  N5_22 
REMARK    9  A    between atoms: N5_22  and  C11_25 
REMARK   10  A    between atoms: N6_32  and  O7_34 
REMARK       I    between atoms: C16_40  and  N8_42 
REMARK   11  A    between atoms: N8_42  and  C17_44 
REMARK   12  A    between atoms: C17_44  and  O10_45 
REMARK   13  A    between atoms: C17_44  and  C18_47 
REMARK   14  A    between atoms: C20_54  and  O12_55 
ROOT
HETATM    1  N2  UNL     1      23.534 -10.794  -8.544  1.00  0.00    -0.250 N 
HETATM    2  C7  UNL     1      23.793  -9.771  -7.732  1.00  0.00     0.334 A 
HETATM    3  O2  UNL     1      23.353  -8.608  -7.910  1.00  0.00    -0.246 OA
HETATM    4  N3  UNL     1      24.576  -9.943  -6.632  1.00  0.00    -0.260 N 
ATOM      5  H3  UNL     1      24.775  -9.160  -6.010  1.00  0.00     0.175 HD
HETATM    6  C8  UNL     1      25.083 -11.161  -6.379  1.00  0.00     0.334 A 
HETATM    7  O3  UNL     1      25.806 -11.266  -5.339  1.00  0.00    -0.246 OA
HETATM    8  N4  UNL     1      24.852 -12.226  -7.166  1.00  0.00    -0.247 N 
HETATM    9  C15 UNL     1      24.061 -11.994  -8.255  1.00  0.00     0.336 A 
HETATM   10  O8  UNL     1      23.831 -12.994  -9.014  1.00  0.00    -0.246 OA
ENDROOT
BRANCH   1  11
HETATM   11  C6  UNL     1      22.702 -10.633  -9.693  1.00  0.00     0.153 C 
BRANCH  11  12
HETATM   12  C5  UNL     1      21.483 -11.471  -9.712  1.00  0.00     0.109 C 
BRANCH  12  13
HETATM   13  C4  UNL     1      20.988 -11.647 -11.130  1.00  0.00     0.094 C 
HETATM   14  C1  UNL     1      22.155 -12.090 -11.962  1.00  0.00     0.222 C 
HETATM   15  O1  UNL     1      22.917 -11.403 -12.685  1.00  0.00    -0.273 OA
HETATM   16  N1  UNL     1      22.208 -13.515 -11.743  1.00  0.00    -0.361 N 
HETATM   17  C2  UNL     1      20.865 -14.032 -11.597  1.00  0.00     0.123 C 
ATOM     18  H1  UNL     1      23.062 -14.072 -11.697  1.00  0.00     0.162 HD
HETATM   19  C3  UNL     1      20.037 -12.831 -11.232  1.00  0.00     0.034 C 
ENDBRANCH  12  13
BRANCH  12  20
HETATM   20  C16 UNL     1      20.395 -11.087  -8.798  1.00  0.00     0.226 C 
HETATM   21  O9  UNL     1      20.143  -9.881  -8.577  1.00  0.00    -0.273 OA
HETATM   22  N8  UNL     1      19.572 -12.056  -8.115  1.00  0.00    -0.329 N 
ATOM     23  H8  UNL     1      19.735 -13.052  -8.258  1.00  0.00     0.165 HD
BRANCH  22  24
HETATM   24  C17 UNL     1      18.520 -11.618  -7.229  1.00  0.00     0.276 C 
BRANCH  24  25
HETATM   25  O10 UNL     1      19.078 -11.322  -5.950  1.00  0.00    -0.371 OA
ATOM     26  H10 UNL     1      18.374 -11.201  -5.323  1.00  0.00     0.212 HD
ENDBRANCH  24  25
BRANCH  24  27
HETATM   27  C18 UNL     1      17.427 -12.574  -7.025  1.00  0.00     0.113 A 
HETATM   28  N9  UNL     1      16.457 -12.494  -6.062  1.00  0.00    -0.304 N 
HETATM   29  C19 UNL     1      15.662 -13.530  -6.213  1.00  0.00     0.326 A 
ATOM     30  H9  UNL     1      16.367 -11.763  -5.356  1.00  0.00     0.170 HD
HETATM   31  O11 UNL     1      14.646 -13.813  -5.519  1.00  0.00    -0.247 OA
HETATM   32  N10 UNL     1      16.057 -14.300  -7.234  1.00  0.00    -0.287 N 
HETATM   33  C20 UNL     1      17.161 -13.701  -7.741  1.00  0.00     0.171 A 
ATOM     34  H10 UNL     1      15.617 -15.160  -7.563  1.00  0.00     0.172 HD
BRANCH  33  35
HETATM   35  O12 UNL     1      17.866 -14.230  -8.841  1.00  0.00    -0.344 OA
ATOM     36  H12 UNL     1      17.522 -14.680  -9.603  1.00  0.00     0.219 HD
ENDBRANCH  33  35
ENDBRANCH  24  27
ENDBRANCH  22  24
ENDBRANCH  12  20
ENDBRANCH  11  12
ENDBRANCH   1  11
BRANCH   8  37
HETATM   37  C9  UNL     1      25.398 -13.519  -6.891  1.00  0.00     0.200 C 
BRANCH  37  38
HETATM   38  C10 UNL     1      24.584 -14.390  -5.986  1.00  0.00     0.339 C 
BRANCH  38  39
HETATM   39  O4  UNL     1      25.484 -14.972  -5.077  1.00  0.00    -0.368 OA
ATOM     40  H4  UNL     1      25.285 -14.602  -4.225  1.00  0.00     0.212 HD
ENDBRANCH  38  39
BRANCH  38  41
HETATM   41  N5  UNL     1      23.806 -15.324  -6.722  1.00  0.00    -0.026 N 
ATOM     42  H52 UNL     1      23.260 -14.847  -7.439  1.00  0.00     0.282 HD
ATOM     43  H51 UNL     1      24.406 -15.899  -7.314  1.00  0.00     0.282 HD
BRANCH  41  44
HETATM   44  C11 UNL     1      22.951 -16.159  -5.907  1.00  0.00     0.302 C 
HETATM   45  C12 UNL     1      21.809 -16.792  -6.623  1.00  0.00     0.195 C 
HETATM   46  S1  UNL     1      20.531 -15.648  -7.004  1.00  0.00     0.154 S 
HETATM   47  O5  UNL     1      20.727 -14.888  -8.268  1.00  0.00    -0.227 OA
HETATM   48  O6  UNL     1      19.244 -16.444  -7.190  1.00  0.00    -0.227 OA
HETATM   49  C13 UNL     1      20.305 -14.575  -5.609  1.00  0.00     0.218 C 
HETATM   50  C14 UNL     1      21.506 -14.463  -4.782  1.00  0.00     0.113 C 
HETATM   51  N6  UNL     1      21.666 -13.370  -4.073  1.00  0.00    -0.256 N 
HETATM   52  N7  UNL     1      22.499 -15.482  -4.714  1.00  0.00    -0.349 N 
ATOM     53  H6  UNL     1      22.498 -13.277  -3.490  1.00  0.00     0.195 HD
ATOM     54  H7  UNL     1      22.896 -15.738  -3.810  1.00  0.00     0.163 HD
BRANCH  51  55
HETATM   55  O7  UNL     1      20.757 -12.360  -4.092  1.00  0.00    -0.288 OA
ATOM     56  H7  UNL     1      20.948 -11.504  -3.727  1.00  0.00     0.244 HD
ENDBRANCH  51  55
ENDBRANCH  41  44
ENDBRANCH  38  41
ENDBRANCH  37  38
ENDBRANCH   8  37
TORSDOF 14
ENDMDL
MODEL 5
REMARK VINA RESULT: -7.642162755      2.148      5.541
REMARK  14 active torsions:
REMARK  status: ('A' for Active; 'I' for Inactive)
REMARK    1  A    between atoms: C4_7  and  C5_8 
REMARK    2  A    between atoms: C5_8  and  C6_9 
REMARK    3  A    between atoms: C5_8  and  C16_40 
REMARK    4  A    between atoms: C6_9  and  N2_10 
REMARK    5  A    between atoms: N4_17  and  C9_18 
REMARK    6  A    between atoms: C9_18  and  C10_19 
REMARK    7  A    between atoms: C10_19  and  O4_20 
REMARK    8  A    between atoms: C10_19  and  N5_22 
REMARK    9  A    between atoms: N5_22  and  C11_25 
REMARK   10  A    between atoms: N6_32  and  O7_34 
REMARK       I    between atoms: C16_40  and  N8_42 
REMARK   11  A    between atoms: N8_42  and  C17_44 
REMARK   12  A    between atoms: C17_44  and  O10_45 
REMARK   13  A    between atoms: C17_44  and  C18_47 
REMARK   14  A    between atoms: C20_54  and  O12_55 
ROOT
HETATM    1  N2  UNL     1      19.063 -11.564  -7.580  1.00  0.00    -0.250 N 
HETATM    2  C7  UNL     1      18.120 -12.287  -8.182  1.00  0.00     0.334 A 
HETATM    3  O2  UNL     1      17.694 -12.054  -9.341  1.00  0.00    -0.246 OA
HETATM    4  N3  UNL     1      17.553 -13.349  -7.547  1.00  0.00    -0.260 N 
ATOM      5  H3  UNL     1      16.831 -13.903  -8.008  1.00  0.00     0.175 HD
HETATM    6  C8  UNL     1      17.960 -13.656  -6.305  1.00  0.00     0.334 A 
HETATM    7  O3  UNL     1      17.398 -14.657  -5.759  1.00  0.00    -0.246 OA
HETATM    8  N4  UNL     1      18.907 -12.959  -5.652  1.00  0.00    -0.247 N 
HETATM    9  C15 UNL     1      19.439 -11.904  -6.338  1.00  0.00     0.336 A 
HETATM   10  O8  UNL     1      20.340 -11.231  -5.734  1.00  0.00    -0.246 OA
ENDROOT
BRANCH   1  11
HETATM   11  C6  UNL     1      19.677 -10.457  -8.238  1.00  0.00     0.153 C 
BRANCH  11  12
HETATM   12  C5  UNL     1      21.013 -10.727  -8.815  1.00  0.00     0.109 C 
BRANCH  12  13
HETATM   13  C4  UNL     1      21.522  -9.512  -9.557  1.00  0.00     0.094 C 
HETATM   14  C1  UNL     1      21.286  -8.318  -8.680  1.00  0.00     0.222 C 
HETATM   15  O1  UNL     1      20.336  -7.498  -8.698  1.00  0.00    -0.273 OA
HETATM   16  N1  UNL     1      22.421  -8.321  -7.789  1.00  0.00    -0.361 N 
HETATM   17  C2  UNL     1      23.591  -8.791  -8.498  1.00  0.00     0.123 C 
ATOM     18  H1  UNL     1      22.401  -8.035  -6.809  1.00  0.00     0.162 HD
HETATM   19  C3  UNL     1      23.038  -9.543  -9.678  1.00  0.00     0.034 C 
ENDBRANCH  12  13
BRANCH  12  20
HETATM   20  C16 UNL     1      21.158 -11.955  -9.615  1.00  0.00     0.226 C 
HETATM   21  O9  UNL     1      21.908 -12.881  -9.231  1.00  0.00    -0.273 OA
HETATM   22  N8  UNL     1      20.462 -12.160 -10.862  1.00  0.00    -0.329 N 
ATOM     23  H8  UNL     1      19.839 -11.437 -11.221  1.00  0.00     0.165 HD
BRANCH  22  24
HETATM   24  C17 UNL     1      20.646 -13.386 -11.602  1.00  0.00     0.276 C 
BRANCH  24  25
HETATM   25  O10 UNL     1      20.796 -13.078 -12.987  1.00  0.00    -0.371 OA
ATOM     26  H10 UNL     1      21.249 -13.794 -13.418  1.00  0.00     0.212 HD
ENDBRANCH  24  25
BRANCH  24  27
HETATM   27  C18 UNL     1      19.563 -14.367 -11.481  1.00  0.00     0.113 A 
HETATM   28  N9  UNL     1      18.694 -14.733 -12.473  1.00  0.00    -0.304 N 
HETATM   29  C19 UNL     1      17.881 -15.637 -11.974  1.00  0.00     0.326 A 
ATOM     30  H9  UNL     1      18.681 -14.370 -13.427  1.00  0.00     0.170 HD
HETATM   31  O11 UNL     1      16.937 -16.222 -12.577  1.00  0.00    -0.247 OA
HETATM   32  N10 UNL     1      18.166 -15.892 -10.692  1.00  0.00    -0.287 N 
HETATM   33  C20 UNL     1      19.218 -15.096 -10.384  1.00  0.00     0.171 A 
ATOM     34  H10 UNL     1      17.690 -16.550 -10.074  1.00  0.00     0.172 HD
BRANCH  33  35
HETATM   35  O12 UNL     1      19.805 -15.087  -9.103  1.00  0.00    -0.344 OA
ATOM     36  H12 UNL     1      19.742 -15.742  -8.418  1.00  0.00     0.219 HD
ENDBRANCH  33  35
ENDBRANCH  24  27
ENDBRANCH  22  24
ENDBRANCH  12  20
ENDBRANCH  11  12
ENDBRANCH   1  11
BRANCH   8  37
HETATM   37  C9  UNL     1      19.332 -13.291  -4.328  1.00  0.00     0.200 C 
BRANCH  37  38
HETATM   38  C10 UNL     1      20.733 -13.803  -4.203  1.00  0.00     0.339 C 
BRANCH  38  39
HETATM   39  O4  UNL     1      21.494 -12.753  -3.660  1.00  0.00    -0.368 OA
ATOM     40  H4  UNL     1      22.263 -13.151  -3.270  1.00  0.00     0.212 HD
ENDBRANCH  38  39
BRANCH  38  41
HETATM   41  N5  UNL     1      21.219 -14.299  -5.443  1.00  0.00    -0.026 N 
ATOM     42  H52 UNL     1      20.473 -14.770  -5.956  1.00  0.00     0.282 HD
ATOM     43  H51 UNL     1      21.412 -13.530  -6.084  1.00  0.00     0.282 HD
BRANCH  41  44
HETATM   44  C11 UNL     1      22.374 -15.162  -5.325  1.00  0.00     0.302 C 
HETATM   45  C12 UNL     1      22.536 -16.162  -6.418  1.00  0.00     0.195 C 
HETATM   46  S1  UNL     1      21.388 -17.485  -6.299  1.00  0.00     0.154 S 
HETATM   47  O5  UNL     1      20.062 -17.220  -6.922  1.00  0.00    -0.227 OA
HETATM   48  O6  UNL     1      21.976 -18.671  -7.056  1.00  0.00    -0.227 OA
HETATM   49  C13 UNL     1      21.242 -17.951  -4.594  1.00  0.00     0.218 C 
HETATM   50  C14 UNL     1      21.577 -16.861  -3.680  1.00  0.00     0.113 C 
HETATM   51  N6  UNL     1      21.039 -16.873  -2.483  1.00  0.00    -0.256 N 
HETATM   52  N7  UNL     1      22.457 -15.796  -4.031  1.00  0.00    -0.349 N 
ATOM     53  H6  UNL     1      21.263 -16.119  -1.833  1.00  0.00     0.195 HD
ATOM     54  H7  UNL     1      23.155 -15.478  -3.359  1.00  0.00     0.163 HD
BRANCH  51  55
HETATM   55  O7  UNL     1      20.192 -17.858  -2.084  1.00  0.00    -0.288 OA
ATOM     56  H7  UNL     1      19.468 -17.690  -1.492  1.00  0.00     0.244 HD
ENDBRANCH  51  55
ENDBRANCH  41  44
ENDBRANCH  38  41
ENDBRANCH  37  38
ENDBRANCH   8  37
TORSDOF 14
ENDMDL
