MODEL 1
REMARK VINA RESULT: -8.080453973      0.000      0.000
REMARK  14 active torsions:
REMARK  status: ('A' for Active; 'I' for Inactive)
REMARK    1  A    between atoms: C2_2  and  C3_3 
REMARK    2  A    between atoms: C4_4  and  C5_5 
REMARK    3  A    between atoms: C5_5  and  O2_7 
REMARK    4  A    between atoms: O2_7  and  C6_8 
REMARK    5  A    between atoms: C7_9  and  O3_10 
REMARK    6  A    between atoms: C8_12  and  O4_13 
REMARK    7  A    between atoms: O4_13  and  C9_14 
REMARK    8  A    between atoms: C10_16  and  S1_17 
REMARK    9  A    between atoms: C12_19  and  O6_20 
REMARK   10  A    between atoms: C13_22  and  O7_23 
REMARK   11  A    between atoms: C14_25  and  O8_26 
REMARK   12  A    between atoms: C15_28  and  O9_29 
REMARK   13  A    between atoms: C16_31  and  O10_32 
REMARK   14  A    between atoms: C17_34  and  C18_35 
ROOT
HETATM    1  C6  UNL     1      11.942  51.866  20.924  1.00  0.00     0.170 C 
HETATM    2  C7  UNL     1      12.077  51.916  22.461  1.00  0.00     0.179 C 
HETATM    3  C8  UNL     1      13.307  51.322  22.966  1.00  0.00     0.187 C 
HETATM    4  C15 UNL     1      14.514  51.899  22.274  1.00  0.00     0.179 C 
HETATM    5  C16 UNL     1      14.100  52.938  21.286  1.00  0.00     0.156 C 
HETATM    6  C17 UNL     1      13.221  52.307  20.260  1.00  0.00     0.052 C 
ENDROOT
BRANCH   3   7
HETATM    7  O4  UNL     1      13.477  50.011  23.066  1.00  0.00    -0.348 OA
BRANCH   7   8
HETATM    8  C9  UNL     1      14.022  49.347  24.071  1.00  0.00     0.293 C 
HETATM    9  O5  UNL     1      14.402  48.087  23.568  1.00  0.00    -0.340 OA
HETATM   10  C10 UNL     1      13.291  47.536  22.937  1.00  0.00     0.217 C 
HETATM   11  C12 UNL     1      12.276  47.059  23.955  1.00  0.00     0.188 C 
HETATM   12  C13 UNL     1      12.667  47.597  25.292  1.00  0.00     0.183 C 
HETATM   13  C14 UNL     1      13.116  49.044  25.245  1.00  0.00     0.204 C 
BRANCH  10  14
HETATM   14  S1  UNL     1      13.813  46.189  21.857  1.00  0.00    -0.139 SA
HETATM   15  C11 UNL     1      13.325  44.566  22.473  1.00  0.00     0.092 C 
ENDBRANCH  10  14
BRANCH  11  16
HETATM   16  O6  UNL     1      10.980  47.433  23.615  1.00  0.00    -0.389 OA
ATOM     17  H6  UNL     1      10.347  47.159  24.269  1.00  0.00     0.210 HD
ENDBRANCH  11  16
BRANCH  12  18
HETATM   18  O7  UNL     1      13.696  46.764  25.788  1.00  0.00    -0.390 OA
ATOM     19  H7  UNL     1      14.481  46.970  25.294  1.00  0.00     0.210 HD
ENDBRANCH  12  18
BRANCH  13  20
HETATM   20  O8  UNL     1      13.772  49.275  26.477  1.00  0.00    -0.388 OA
ATOM     21  H8  UNL     1      13.165  49.576  27.143  1.00  0.00     0.210 HD
ENDBRANCH  13  20
ENDBRANCH   7   8
ENDBRANCH   3   7
BRANCH   2  22
HETATM   22  O3  UNL     1      10.890  51.343  22.928  1.00  0.00    -0.390 OA
ATOM     23  H3  UNL     1      10.838  51.622  23.835  1.00  0.00     0.210 HD
ENDBRANCH   2  22
BRANCH   4  24
HETATM   24  O9  UNL     1      15.461  52.401  23.183  1.00  0.00    -0.390 OA
ATOM     25  H9  UNL     1      15.949  53.135  22.828  1.00  0.00     0.210 HD
ENDBRANCH   4  24
BRANCH   1  26
HETATM   26  O2  UNL     1      10.805  52.593  20.524  1.00  0.00    -0.309 OA
BRANCH  26  27
HETATM   27  C5  UNL     1      10.148  52.422  19.299  1.00  0.00     0.283 C 
HETATM   28  O1  UNL     1       9.440  51.413  19.227  1.00  0.00    -0.260 OA
BRANCH  27  29
HETATM   29  C4  UNL     1      10.294  53.358  18.215  1.00  0.00     0.082 C 
HETATM   30  C3  UNL     1       9.355  54.039  17.641  1.00  0.00     0.005 C 
BRANCH  30  31
HETATM   31  C2  UNL     1       7.948  54.049  17.919  1.00  0.00    -0.010 C 
HETATM   32  C1  UNL     1       7.109  54.849  17.245  1.00  0.00     0.011 C 
ENDBRANCH  30  31
ENDBRANCH  27  29
ENDBRANCH  26  27
ENDBRANCH   1  26
BRANCH   5  33
HETATM   33  O10 UNL     1      15.197  53.607  20.731  1.00  0.00    -0.392 OA
ATOM     34  H10 UNL     1      15.424  54.390  21.217  1.00  0.00     0.210 HD
ENDBRANCH   5  33
BRANCH   6  35
HETATM   35  C18 UNL     1      13.807  51.159  19.536  1.00  0.00    -0.013 C 
HETATM   36  C19 UNL     1      12.896  49.949  19.512  1.00  0.00     0.010 C 
HETATM   37  C20 UNL     1      14.180  51.435  18.101  1.00  0.00     0.010 C 
ENDBRANCH   6  35
TORSDOF 14
ENDMDL
MODEL 2
REMARK VINA RESULT: -8.024928410      1.024      1.078
REMARK  14 active torsions:
REMARK  status: ('A' for Active; 'I' for Inactive)
REMARK    1  A    between atoms: C2_2  and  C3_3 
REMARK    2  A    between atoms: C4_4  and  C5_5 
REMARK    3  A    between atoms: C5_5  and  O2_7 
REMARK    4  A    between atoms: O2_7  and  C6_8 
REMARK    5  A    between atoms: C7_9  and  O3_10 
REMARK    6  A    between atoms: C8_12  and  O4_13 
REMARK    7  A    between atoms: O4_13  and  C9_14 
REMARK    8  A    between atoms: C10_16  and  S1_17 
REMARK    9  A    between atoms: C12_19  and  O6_20 
REMARK   10  A    between atoms: C13_22  and  O7_23 
REMARK   11  A    between atoms: C14_25  and  O8_26 
REMARK   12  A    between atoms: C15_28  and  O9_29 
REMARK   13  A    between atoms: C16_31  and  O10_32 
REMARK   14  A    between atoms: C17_34  and  C18_35 
ROOT
HETATM    1  C6  UNL     1      12.185  51.546  21.282  1.00  0.00     0.170 C 
HETATM    2  C7  UNL     1      11.984  51.041  22.726  1.00  0.00     0.179 C 
HETATM    3  C8  UNL     1      13.160  50.400  23.297  1.00  0.00     0.187 C 
HETATM    4  C15 UNL     1      14.375  51.281  23.171  1.00  0.00     0.179 C 
HETATM    5  C16 UNL     1      14.014  52.574  22.520  1.00  0.00     0.156 C 
HETATM    6  C17 UNL     1      13.485  52.297  21.154  1.00  0.00     0.052 C 
ENDROOT
BRANCH   3   7
HETATM    7  O4  UNL     1      13.516  49.161  22.990  1.00  0.00    -0.348 OA
BRANCH   7   8
HETATM    8  C9  UNL     1      14.010  48.242  23.803  1.00  0.00     0.293 C 
HETATM    9  O5  UNL     1      14.015  47.027  23.091  1.00  0.00    -0.340 OA
HETATM   10  C10 UNL     1      12.735  46.837  22.579  1.00  0.00     0.217 C 
HETATM   11  C12 UNL     1      11.771  46.434  23.676  1.00  0.00     0.188 C 
HETATM   12  C13 UNL     1      12.443  46.655  24.992  1.00  0.00     0.183 C 
HETATM   13  C14 UNL     1      13.212  47.959  25.058  1.00  0.00     0.204 C 
BRANCH  10  14
HETATM   14  S1  UNL     1      12.783  45.599  21.268  1.00  0.00    -0.139 SA
HETATM   15  C11 UNL     1      14.342  44.694  21.215  1.00  0.00     0.092 C 
ENDBRANCH  10  14
BRANCH  11  16
HETATM   16  O6  UNL     1      10.569  47.129  23.596  1.00  0.00    -0.389 OA
ATOM     17  H6  UNL     1      10.583  47.789  22.913  1.00  0.00     0.210 HD
ENDBRANCH  11  16
BRANCH  12  18
HETATM   18  O7  UNL     1      13.298  45.551  25.209  1.00  0.00    -0.390 OA
ATOM     19  H7  UNL     1      12.866  44.788  24.842  1.00  0.00     0.210 HD
ENDBRANCH  12  18
BRANCH  13  20
HETATM   20  O8  UNL     1      14.053  47.842  26.190  1.00  0.00    -0.388 OA
ATOM     21  H8  UNL     1      13.919  47.015  26.638  1.00  0.00     0.210 HD
ENDBRANCH  13  20
ENDBRANCH   7   8
ENDBRANCH   3   7
BRANCH   2  22
HETATM   22  O3  UNL     1      10.834  50.248  22.655  1.00  0.00    -0.390 OA
ATOM     23  H3  UNL     1      11.100  49.419  23.036  1.00  0.00     0.210 HD
ENDBRANCH   2  22
BRANCH   4  24
HETATM   24  O9  UNL     1      15.016  51.487  24.405  1.00  0.00    -0.390 OA
ATOM     25  H9  UNL     1      14.605  52.175  24.915  1.00  0.00     0.210 HD
ENDBRANCH   4  24
BRANCH   1  26
HETATM   26  O2  UNL     1      11.054  52.279  20.875  1.00  0.00    -0.309 OA
BRANCH  26  27
HETATM   27  C5  UNL     1      10.471  52.192  19.604  1.00  0.00     0.283 C 
HETATM   28  O1  UNL     1       9.695  51.243  19.455  1.00  0.00    -0.260 OA
BRANCH  27  29
HETATM   29  C4  UNL     1      10.759  53.143  18.562  1.00  0.00     0.082 C 
HETATM   30  C3  UNL     1       9.904  53.803  17.851  1.00  0.00     0.005 C 
BRANCH  30  31
HETATM   31  C2  UNL     1       8.470  53.772  17.903  1.00  0.00    -0.010 C 
HETATM   32  C1  UNL     1       7.736  54.823  17.513  1.00  0.00     0.011 C 
ENDBRANCH  30  31
ENDBRANCH  27  29
ENDBRANCH  26  27
ENDBRANCH   1  26
BRANCH   5  33
HETATM   33  O10 UNL     1      15.080  53.482  22.520  1.00  0.00    -0.392 OA
ATOM     34  H10 UNL     1      15.089  54.025  23.299  1.00  0.00     0.210 HD
ENDBRANCH   5  33
BRANCH   6  35
HETATM   35  C18 UNL     1      14.389  51.542  20.259  1.00  0.00    -0.013 C 
HETATM   36  C19 UNL     1      13.701  50.384  19.566  1.00  0.00     0.010 C 
HETATM   37  C20 UNL     1      15.038  52.360  19.172  1.00  0.00     0.010 C 
ENDBRANCH   6  35
TORSDOF 14
ENDMDL
MODEL 3
REMARK VINA RESULT: -7.919040734      1.364      1.763
REMARK  14 active torsions:
REMARK  status: ('A' for Active; 'I' for Inactive)
REMARK    1  A    between atoms: C2_2  and  C3_3 
REMARK    2  A    between atoms: C4_4  and  C5_5 
REMARK    3  A    between atoms: C5_5  and  O2_7 
REMARK    4  A    between atoms: O2_7  and  C6_8 
REMARK    5  A    between atoms: C7_9  and  O3_10 
REMARK    6  A    between atoms: C8_12  and  O4_13 
REMARK    7  A    between atoms: O4_13  and  C9_14 
REMARK    8  A    between atoms: C10_16  and  S1_17 
REMARK    9  A    between atoms: C12_19  and  O6_20 
REMARK   10  A    between atoms: C13_22  and  O7_23 
REMARK   11  A    between atoms: C14_25  and  O8_26 
REMARK   12  A    between atoms: C15_28  and  O9_29 
REMARK   13  A    between atoms: C16_31  and  O10_32 
REMARK   14  A    between atoms: C17_34  and  C18_35 
ROOT
HETATM    1  C6  UNL     1      12.209  51.548  21.462  1.00  0.00     0.170 C 
HETATM    2  C7  UNL     1      12.002  51.008  22.893  1.00  0.00     0.179 C 
HETATM    3  C8  UNL     1      13.173  50.345  23.450  1.00  0.00     0.187 C 
HETATM    4  C15 UNL     1      14.394  51.222  23.349  1.00  0.00     0.179 C 
HETATM    5  C16 UNL     1      14.042  52.533  22.729  1.00  0.00     0.156 C 
HETATM    6  C17 UNL     1      13.514  52.293  21.356  1.00  0.00     0.052 C 
ENDROOT
BRANCH   3   7
HETATM    7  O4  UNL     1      13.522  49.112  23.113  1.00  0.00    -0.348 OA
BRANCH   7   8
HETATM    8  C9  UNL     1      14.017  48.174  23.902  1.00  0.00     0.293 C 
HETATM    9  O5  UNL     1      13.991  46.970  23.171  1.00  0.00    -0.340 OA
HETATM   10  C10 UNL     1      12.699  46.807  22.680  1.00  0.00     0.217 C 
HETATM   11  C12 UNL     1      11.750  46.400  23.788  1.00  0.00     0.188 C 
HETATM   12  C13 UNL     1      12.449  46.590  25.095  1.00  0.00     0.183 C 
HETATM   13  C14 UNL     1      13.239  47.882  25.167  1.00  0.00     0.204 C 
BRANCH  10  14
HETATM   14  S1  UNL     1      12.706  45.590  21.348  1.00  0.00    -0.139 SA
HETATM   15  C11 UNL     1      14.297  44.763  21.161  1.00  0.00     0.092 C 
ENDBRANCH  10  14
BRANCH  11  16
HETATM   16  O6  UNL     1      10.557  47.114  23.742  1.00  0.00    -0.389 OA
ATOM     17  H6  UNL     1       9.877  46.705  24.264  1.00  0.00     0.210 HD
ENDBRANCH  11  16
BRANCH  12  18
HETATM   18  O7  UNL     1      13.292  45.470  25.278  1.00  0.00    -0.390 OA
ATOM     19  H7  UNL     1      13.371  45.333  26.214  1.00  0.00     0.210 HD
ENDBRANCH  12  18
BRANCH  13  20
HETATM   20  O8  UNL     1      14.098  47.735  26.281  1.00  0.00    -0.388 OA
ATOM     21  H8  UNL     1      13.609  47.694  27.094  1.00  0.00     0.210 HD
ENDBRANCH  13  20
ENDBRANCH   7   8
ENDBRANCH   3   7
BRANCH   2  22
HETATM   22  O3  UNL     1      10.848  50.224  22.800  1.00  0.00    -0.390 OA
ATOM     23  H3  UNL     1      10.334  50.474  23.560  1.00  0.00     0.210 HD
ENDBRANCH   2  22
BRANCH   4  24
HETATM   24  O9  UNL     1      15.033  51.393  24.589  1.00  0.00    -0.390 OA
ATOM     25  H9  UNL     1      15.966  51.217  24.541  1.00  0.00     0.210 HD
ENDBRANCH   4  24
BRANCH   1  26
HETATM   26  O2  UNL     1      11.083  52.298  21.072  1.00  0.00    -0.309 OA
BRANCH  26  27
HETATM   27  C5  UNL     1      10.198  51.922  20.053  1.00  0.00     0.283 C 
HETATM   28  O1  UNL     1       9.818  50.748  20.105  1.00  0.00    -0.260 OA
BRANCH  27  29
HETATM   29  C4  UNL     1       9.770  52.842  19.032  1.00  0.00     0.082 C 
HETATM   30  C3  UNL     1      10.479  53.303  18.052  1.00  0.00     0.005 C 
BRANCH  30  31
HETATM   31  C2  UNL     1      11.848  53.032  17.722  1.00  0.00    -0.010 C 
HETATM   32  C1  UNL     1      12.211  51.878  17.144  1.00  0.00     0.011 C 
ENDBRANCH  30  31
ENDBRANCH  27  29
ENDBRANCH  26  27
ENDBRANCH   1  26
BRANCH   5  33
HETATM   33  O10 UNL     1      15.113  53.435  22.754  1.00  0.00    -0.392 OA
ATOM     34  H10 UNL     1      14.907  54.249  22.311  1.00  0.00     0.210 HD
ENDBRANCH   5  33
BRANCH   6  35
HETATM   35  C18 UNL     1      14.415  51.556  20.444  1.00  0.00    -0.013 C 
HETATM   36  C19 UNL     1      13.732  50.395  19.750  1.00  0.00     0.010 C 
HETATM   37  C20 UNL     1      15.042  52.390  19.356  1.00  0.00     0.010 C 
ENDBRANCH   6  35
TORSDOF 14
ENDMDL
MODEL 4
REMARK VINA RESULT: -7.836805174      1.473      1.780
REMARK  14 active torsions:
REMARK  status: ('A' for Active; 'I' for Inactive)
REMARK    1  A    between atoms: C2_2  and  C3_3 
REMARK    2  A    between atoms: C4_4  and  C5_5 
REMARK    3  A    between atoms: C5_5  and  O2_7 
REMARK    4  A    between atoms: O2_7  and  C6_8 
REMARK    5  A    between atoms: C7_9  and  O3_10 
REMARK    6  A    between atoms: C8_12  and  O4_13 
REMARK    7  A    between atoms: O4_13  and  C9_14 
REMARK    8  A    between atoms: C10_16  and  S1_17 
REMARK    9  A    between atoms: C12_19  and  O6_20 
REMARK   10  A    between atoms: C13_22  and  O7_23 
REMARK   11  A    between atoms: C14_25  and  O8_26 
REMARK   12  A    between atoms: C15_28  and  O9_29 
REMARK   13  A    between atoms: C16_31  and  O10_32 
REMARK   14  A    between atoms: C17_34  and  C18_35 
ROOT
HETATM    1  C6  UNL     1      11.505  50.378  20.756  1.00  0.00     0.170 C 
HETATM    2  C7  UNL     1      11.283  50.264  22.280  1.00  0.00     0.179 C 
HETATM    3  C8  UNL     1      12.515  50.197  23.054  1.00  0.00     0.187 C 
HETATM    4  C15 UNL     1      13.440  51.332  22.702  1.00  0.00     0.179 C 
HETATM    5  C16 UNL     1      12.812  52.217  21.677  1.00  0.00     0.156 C 
HETATM    6  C17 UNL     1      12.549  51.419  20.446  1.00  0.00     0.052 C 
ENDROOT
BRANCH   3   7
HETATM    7  O4  UNL     1      13.238  49.091  23.149  1.00  0.00    -0.348 OA
BRANCH   7   8
HETATM    8  C9  UNL     1      13.803  48.591  24.236  1.00  0.00     0.293 C 
HETATM    9  O5  UNL     1      13.940  47.205  24.025  1.00  0.00    -0.340 OA
HETATM   10  C10 UNL     1      12.695  46.716  23.642  1.00  0.00     0.217 C 
HETATM   11  C12 UNL     1      11.754  46.655  24.827  1.00  0.00     0.188 C 
HETATM   12  C13 UNL     1      12.375  47.412  25.956  1.00  0.00     0.183 C 
HETATM   13  C14 UNL     1      13.012  48.716  25.520  1.00  0.00     0.204 C 
BRANCH  10  14
HETATM   14  S1  UNL     1      12.890  45.091  22.881  1.00  0.00    -0.139 SA
HETATM   15  C11 UNL     1      13.271  43.797  24.079  1.00  0.00     0.092 C 
ENDBRANCH  10  14
BRANCH  11  16
HETATM   16  O6  UNL     1      10.491  47.150  24.517  1.00  0.00    -0.389 OA
ATOM     17  H6  UNL     1       9.887  46.458  24.275  1.00  0.00     0.210 HD
ENDBRANCH  11  16
BRANCH  12  18
HETATM   18  O7  UNL     1      13.329  46.556  26.550  1.00  0.00    -0.390 OA
ATOM     19  H7  UNL     1      12.952  46.242  27.364  1.00  0.00     0.210 HD
ENDBRANCH  12  18
BRANCH  13  20
HETATM   20  O8  UNL     1      13.837  49.110  26.600  1.00  0.00    -0.388 OA
ATOM     21  H8  UNL     1      14.756  49.090  26.360  1.00  0.00     0.210 HD
ENDBRANCH  13  20
ENDBRANCH   7   8
ENDBRANCH   3   7
BRANCH   2  22
HETATM   22  O3  UNL     1      10.419  49.173  22.419  1.00  0.00    -0.390 OA
ATOM     23  H3  UNL     1       9.913  49.375  23.198  1.00  0.00     0.210 HD
ENDBRANCH   2  22
BRANCH   4  24
HETATM   24  O9  UNL     1      13.846  52.061  23.833  1.00  0.00    -0.390 OA
ATOM     25  H9  UNL     1      14.320  51.524  24.457  1.00  0.00     0.210 HD
ENDBRANCH   4  24
BRANCH   1  26
HETATM   26  O2  UNL     1      10.272  50.588  20.113  1.00  0.00    -0.309 OA
BRANCH  26  27
HETATM   27  C5  UNL     1       9.910  50.010  18.889  1.00  0.00     0.283 C 
HETATM   28  O1  UNL     1       9.020  49.157  18.963  1.00  0.00    -0.260 OA
BRANCH  27  29
HETATM   29  C4  UNL     1      10.534  50.389  17.648  1.00  0.00     0.082 C 
HETATM   30  C3  UNL     1      10.690  51.589  17.189  1.00  0.00     0.005 C 
BRANCH  30  31
HETATM   31  C2  UNL     1      10.296  52.838  17.774  1.00  0.00    -0.010 C 
HETATM   32  C1  UNL     1      11.166  53.848  17.915  1.00  0.00     0.011 C 
ENDBRANCH  30  31
ENDBRANCH  27  29
ENDBRANCH  26  27
ENDBRANCH   1  26
BRANCH   5  33
HETATM   33  O10 UNL     1      13.573  53.367  21.433  1.00  0.00    -0.392 OA
ATOM     34  H10 UNL     1      14.457  53.292  21.773  1.00  0.00     0.210 HD
ENDBRANCH   5  33
BRANCH   6  35
HETATM   35  C18 UNL     1      13.728  50.755  19.851  1.00  0.00    -0.013 C 
HETATM   36  C19 UNL     1      13.491  49.288  19.553  1.00  0.00     0.010 C 
HETATM   37  C20 UNL     1      14.227  51.371  18.569  1.00  0.00     0.010 C 
ENDBRANCH   6  35
TORSDOF 14
ENDMDL
MODEL 5
REMARK VINA RESULT: -7.722983136      2.007      2.785
REMARK  14 active torsions:
REMARK  status: ('A' for Active; 'I' for Inactive)
REMARK    1  A    between atoms: C2_2  and  C3_3 
REMARK    2  A    between atoms: C4_4  and  C5_5 
REMARK    3  A    between atoms: C5_5  and  O2_7 
REMARK    4  A    between atoms: O2_7  and  C6_8 
REMARK    5  A    between atoms: C7_9  and  O3_10 
REMARK    6  A    between atoms: C8_12  and  O4_13 
REMARK    7  A    between atoms: O4_13  and  C9_14 
REMARK    8  A    between atoms: C10_16  and  S1_17 
REMARK    9  A    between atoms: C12_19  and  O6_20 
REMARK   10  A    between atoms: C13_22  and  O7_23 
REMARK   11  A    between atoms: C14_25  and  O8_26 
REMARK   12  A    between atoms: C15_28  and  O9_29 
REMARK   13  A    between atoms: C16_31  and  O10_32 
REMARK   14  A    between atoms: C17_34  and  C18_35 
ROOT
HETATM    1  C6  UNL     1      11.230  51.190  21.692  1.00  0.00     0.170 C 
HETATM    2  C7  UNL     1      11.283  51.604  23.178  1.00  0.00     0.179 C 
HETATM    3  C8  UNL     1      12.177  50.788  23.988  1.00  0.00     0.187 C 
HETATM    4  C15 UNL     1      13.550  50.713  23.374  1.00  0.00     0.179 C 
HETATM    5  C16 UNL     1      13.605  51.522  22.122  1.00  0.00     0.156 C 
HETATM    6  C17 UNL     1      12.618  50.975  21.148  1.00  0.00     0.052 C 
ENDROOT
BRANCH   3   7
HETATM    7  O4  UNL     1      11.848  49.577  24.412  1.00  0.00    -0.348 OA
BRANCH   7   8
HETATM    8  C9  UNL     1      12.598  48.488  24.393  1.00  0.00     0.293 C 
HETATM    9  O5  UNL     1      11.829  47.472  23.795  1.00  0.00    -0.340 OA
HETATM   10  C10 UNL     1      10.609  47.423  24.463  1.00  0.00     0.217 C 
HETATM   11  C12 UNL     1      10.770  46.787  25.829  1.00  0.00     0.188 C 
HETATM   12  C13 UNL     1      12.230  46.687  26.128  1.00  0.00     0.183 C 
HETATM   13  C14 UNL     1      13.005  47.931  25.740  1.00  0.00     0.204 C 
BRANCH  10  14
HETATM   14  S1  UNL     1       9.405  46.523  23.464  1.00  0.00    -0.139 SA
HETATM   15  C11 UNL     1       7.701  46.971  23.847  1.00  0.00     0.092 C 
ENDBRANCH  10  14
BRANCH  11  16
HETATM   16  O6  UNL     1      10.096  47.497  26.818  1.00  0.00    -0.389 OA
ATOM     17  H6  UNL     1      10.655  47.692  27.560  1.00  0.00     0.210 HD
ENDBRANCH  11  16
BRANCH  12  18
HETATM   18  O7  UNL     1      12.715  45.553  25.439  1.00  0.00    -0.390 OA
ATOM     19  H7  UNL     1      13.379  45.155  25.992  1.00  0.00     0.210 HD
ENDBRANCH  12  18
BRANCH  13  20
HETATM   20  O8  UNL     1      14.366  47.543  25.751  1.00  0.00    -0.388 OA
ATOM     21  H8  UNL     1      14.470  46.649  26.054  1.00  0.00     0.210 HD
ENDBRANCH  13  20
ENDBRANCH   7   8
ENDBRANCH   3   7
BRANCH   2  22
HETATM   22  O3  UNL     1       9.943  51.617  23.579  1.00  0.00    -0.390 OA
ATOM     23  H3  UNL     1       9.673  50.708  23.517  1.00  0.00     0.210 HD
ENDBRANCH   2  22
BRANCH   4  24
HETATM   24  O9  UNL     1      14.560  51.089  24.276  1.00  0.00    -0.390 OA
ATOM     25  H9  UNL     1      15.352  51.373  23.833  1.00  0.00     0.210 HD
ENDBRANCH   4  24
BRANCH   1  26
HETATM   26  O2  UNL     1      10.465  52.123  20.968  1.00  0.00    -0.309 OA
BRANCH  26  27
HETATM   27  C5  UNL     1      10.297  52.097  19.577  1.00  0.00     0.283 C 
HETATM   28  O1  UNL     1       9.709  51.101  19.145  1.00  0.00    -0.260 OA
BRANCH  27  29
HETATM   29  C4  UNL     1      10.775  53.157  18.728  1.00  0.00     0.082 C 
HETATM   30  C3  UNL     1      11.730  53.087  17.858  1.00  0.00     0.005 C 
BRANCH  30  31
HETATM   31  C2  UNL     1      12.553  51.965  17.508  1.00  0.00    -0.010 C 
HETATM   32  C1  UNL     1      13.834  52.126  17.146  1.00  0.00     0.011 C 
ENDBRANCH  30  31
ENDBRANCH  27  29
ENDBRANCH  26  27
ENDBRANCH   1  26
BRANCH   5  33
HETATM   33  O10 UNL     1      14.902  51.603  21.600  1.00  0.00    -0.392 OA
ATOM     34  H10 UNL     1      14.959  52.209  20.871  1.00  0.00     0.210 HD
ENDBRANCH   5  33
BRANCH   6  35
HETATM   35  C18 UNL     1      12.784  49.546  20.805  1.00  0.00    -0.013 C 
HETATM   36  C19 UNL     1      11.465  48.806  20.708  1.00  0.00     0.010 C 
HETATM   37  C20 UNL     1      13.513  49.281  19.513  1.00  0.00     0.010 C 
ENDBRANCH   6  35
TORSDOF 14
ENDMDL
