MODEL 1
REMARK VINA RESULT: -6.625496939      0.000      0.000
REMARK  11 active torsions:
REMARK  status: ('A' for Active; 'I' for Inactive)
REMARK    1  A    between atoms: C5_6  and  N2_7 
REMARK    2  A    between atoms: N2_7  and  C6_9 
REMARK    3  A    between atoms: C6_9  and  C7_10 
REMARK    4  A    between atoms: C7_10  and  C8_11 
REMARK    5  A    between atoms: C8_11  and  N3_12 
REMARK    6  A    between atoms: N3_12  and  C9_14 
REMARK    7  A    between atoms: C13_18  and  C14_19 
REMARK    8  A    between atoms: C14_19  and  N4_20 
REMARK    9  A    between atoms: N4_20  and  C15_23 
REMARK   10  A    between atoms: C15_23  and  C16_24 
REMARK   11  A    between atoms: C16_24  and  C17_25 
ROOT
HETATM    1  N1  UNL     1     190.814 119.863  31.372  1.00  0.00    -0.191 NA
HETATM    2  C1  UNL     1     190.911 121.011  31.477  1.00  0.00     0.099 C 
HETATM    3  C2  UNL     1     191.016 122.452  31.632  1.00  0.00     0.044 A 
HETATM    4  C3  UNL     1     190.975 123.003  32.895  1.00  0.00     0.025 A 
HETATM    5  C4  UNL     1     191.079 124.390  33.100  1.00  0.00     0.030 A 
HETATM    6  C5  UNL     1     191.226 125.249  32.027  1.00  0.00     0.028 A 
HETATM    7  C24 UNL     1     191.268 124.682  30.762  1.00  0.00     0.030 A 
HETATM    8  C25 UNL     1     191.165 123.302  30.563  1.00  0.00     0.025 A 
ENDROOT
BRANCH   6   9
HETATM    9  N2  UNL     1     191.330 126.660  32.249  1.00  0.00    -0.390 N 
ATOM     10  H2  UNL     1     191.727 127.277  31.541  1.00  0.00     0.159 HD
BRANCH   9  11
HETATM   11  C6  UNL     1     190.851 127.179  33.509  1.00  0.00     0.121 C 
BRANCH  11  12
HETATM   12  C7  UNL     1     189.453 127.738  33.246  1.00  0.00     0.039 C 
BRANCH  12  13
HETATM   13  C8  UNL     1     188.451 126.903  33.971  1.00  0.00     0.121 C 
BRANCH  13  14
HETATM   14  N3  UNL     1     187.290 126.485  33.256  1.00  0.00    -0.390 N 
ATOM     15  H3  UNL     1     186.402 126.977  33.351  1.00  0.00     0.159 HD
BRANCH  14  16
HETATM   16  C9  UNL     1     187.420 125.346  32.400  1.00  0.00     0.028 A 
HETATM   17  C10 UNL     1     187.529 125.535  31.016  1.00  0.00     0.029 A 
HETATM   18  C11 UNL     1     187.593 124.460  30.154  1.00  0.00     0.003 A 
HETATM   19  C12 UNL     1     187.550 123.175  30.669  1.00  0.00     0.009 A 
HETATM   20  C13 UNL     1     187.443 122.972  32.031  1.00  0.00    -0.031 A 
HETATM   21  C23 UNL     1     187.383 124.040  32.893  1.00  0.00     0.038 A 
BRANCH  20  22
HETATM   22  C14 UNL     1     187.269 121.602  32.546  1.00  0.00     0.270 C 
BRANCH  22  23
HETATM   23  N4  UNL     1     186.468 120.789  31.661  1.00  0.00    -0.071 N 
ATOM     24  H42 UNL     1     186.561 121.083  30.689  1.00  0.00     0.277 HD
ATOM     25  H41 UNL     1     186.843 119.844  31.570  1.00  0.00     0.277 HD
BRANCH  23  26
HETATM   26  C15 UNL     1     185.128 120.778  32.075  1.00  0.00     0.237 C 
BRANCH  26  27
HETATM   27  C16 UNL     1     184.149 121.512  31.246  1.00  0.00     0.066 C 
BRANCH  27  28
HETATM   28  C17 UNL     1     183.952 122.896  31.634  1.00  0.00    -0.057 A 
HETATM   29  C18 UNL     1     183.937 123.835  30.578  1.00  0.00     0.007 A 
HETATM   30  C19 UNL     1     183.791 125.145  30.803  1.00  0.00     0.001 A 
HETATM   31  C20 UNL     1     183.651 125.576  32.109  1.00  0.00     0.000 A 
HETATM   32  C21 UNL     1     183.656 124.677  33.159  1.00  0.00     0.001 A 
HETATM   33  C22 UNL     1     183.809 123.331  32.914  1.00  0.00     0.007 A 
ENDBRANCH  27  28
ENDBRANCH  26  27
ENDBRANCH  23  26
ENDBRANCH  22  23
ENDBRANCH  20  22
ENDBRANCH  14  16
ENDBRANCH  13  14
ENDBRANCH  12  13
ENDBRANCH  11  12
ENDBRANCH   9  11
ENDBRANCH   6   9
TORSDOF 11
ENDMDL
MODEL 2
REMARK VINA RESULT: -6.615274023      2.776      5.175
REMARK  11 active torsions:
REMARK  status: ('A' for Active; 'I' for Inactive)
REMARK    1  A    between atoms: C5_6  and  N2_7 
REMARK    2  A    between atoms: N2_7  and  C6_9 
REMARK    3  A    between atoms: C6_9  and  C7_10 
REMARK    4  A    between atoms: C7_10  and  C8_11 
REMARK    5  A    between atoms: C8_11  and  N3_12 
REMARK    6  A    between atoms: N3_12  and  C9_14 
REMARK    7  A    between atoms: C13_18  and  C14_19 
REMARK    8  A    between atoms: C14_19  and  N4_20 
REMARK    9  A    between atoms: N4_20  and  C15_23 
REMARK   10  A    between atoms: C15_23  and  C16_24 
REMARK   11  A    between atoms: C16_24  and  C17_25 
ROOT
HETATM    1  N1  UNL     1     184.556 125.232  25.189  1.00  0.00    -0.191 NA
HETATM    2  C1  UNL     1     184.422 125.874  26.142  1.00  0.00     0.099 C 
HETATM    3  C2  UNL     1     184.278 126.669  27.350  1.00  0.00     0.044 A 
HETATM    4  C3  UNL     1     185.404 127.148  27.985  1.00  0.00     0.025 A 
HETATM    5  C4  UNL     1     185.319 127.926  29.152  1.00  0.00     0.030 A 
HETATM    6  C5  UNL     1     184.089 128.237  29.701  1.00  0.00     0.028 A 
HETATM    7  C24 UNL     1     182.964 127.751  29.051  1.00  0.00     0.030 A 
HETATM    8  C25 UNL     1     183.053 126.977  27.891  1.00  0.00     0.025 A 
ENDROOT
BRANCH   6   9
HETATM    9  N2  UNL     1     184.016 129.030  30.891  1.00  0.00    -0.390 N 
ATOM     10  H2  UNL     1     183.126 129.397  31.226  1.00  0.00     0.159 HD
BRANCH   9  11
HETATM   11  C6  UNL     1     185.247 129.292  31.601  1.00  0.00     0.121 C 
BRANCH  11  12
HETATM   12  C7  UNL     1     185.349 128.234  32.698  1.00  0.00     0.039 C 
BRANCH  12  13
HETATM   13  C8  UNL     1     186.730 127.669  32.702  1.00  0.00     0.121 C 
BRANCH  13  14
HETATM   14  N3  UNL     1     186.909 126.348  33.209  1.00  0.00    -0.390 N 
ATOM     15  H3  UNL     1     186.792 126.140  34.200  1.00  0.00     0.159 HD
BRANCH  14  16
HETATM   16  C9  UNL     1     187.258 125.326  32.271  1.00  0.00     0.028 A 
HETATM   17  C10 UNL     1     187.359 125.645  30.911  1.00  0.00     0.029 A 
HETATM   18  C11 UNL     1     187.632 124.673  29.971  1.00  0.00     0.003 A 
HETATM   19  C12 UNL     1     187.809 123.363  30.381  1.00  0.00     0.009 A 
HETATM   20  C13 UNL     1     187.713 123.032  31.719  1.00  0.00    -0.031 A 
HETATM   21  C23 UNL     1     187.445 123.997  32.659  1.00  0.00     0.038 A 
BRANCH  20  22
HETATM   22  C14 UNL     1     187.777 121.614  32.119  1.00  0.00     0.270 C 
BRANCH  22  23
HETATM   23  N4  UNL     1     186.552 121.172  32.744  1.00  0.00    -0.071 N 
ATOM     24  H42 UNL     1     186.725 120.467  33.459  1.00  0.00     0.277 HD
ATOM     25  H41 UNL     1     186.147 121.897  33.337  1.00  0.00     0.277 HD
BRANCH  23  26
HETATM   26  C15 UNL     1     185.639 120.721  31.779  1.00  0.00     0.237 C 
BRANCH  26  27
HETATM   27  C16 UNL     1     184.226 121.126  31.930  1.00  0.00     0.066 C 
BRANCH  27  28
HETATM   28  C17 UNL     1     184.010 122.560  31.923  1.00  0.00    -0.057 A 
HETATM   29  C18 UNL     1     184.038 123.181  30.653  1.00  0.00     0.007 A 
HETATM   30  C19 UNL     1     183.880 124.501  30.510  1.00  0.00     0.001 A 
HETATM   31  C20 UNL     1     183.684 125.265  31.645  1.00  0.00     0.000 A 
HETATM   32  C21 UNL     1     183.647 124.682  32.898  1.00  0.00     0.001 A 
HETATM   33  C22 UNL     1     183.812 123.322  33.032  1.00  0.00     0.007 A 
ENDBRANCH  27  28
ENDBRANCH  26  27
ENDBRANCH  23  26
ENDBRANCH  22  23
ENDBRANCH  20  22
ENDBRANCH  14  16
ENDBRANCH  13  14
ENDBRANCH  12  13
ENDBRANCH  11  12
ENDBRANCH   9  11
ENDBRANCH   6   9
TORSDOF 11
ENDMDL
MODEL 3
REMARK VINA RESULT: -6.594090568      2.005      4.371
REMARK  11 active torsions:
REMARK  status: ('A' for Active; 'I' for Inactive)
REMARK    1  A    between atoms: C5_6  and  N2_7 
REMARK    2  A    between atoms: N2_7  and  C6_9 
REMARK    3  A    between atoms: C6_9  and  C7_10 
REMARK    4  A    between atoms: C7_10  and  C8_11 
REMARK    5  A    between atoms: C8_11  and  N3_12 
REMARK    6  A    between atoms: N3_12  and  C9_14 
REMARK    7  A    between atoms: C13_18  and  C14_19 
REMARK    8  A    between atoms: C14_19  and  N4_20 
REMARK    9  A    between atoms: N4_20  and  C15_23 
REMARK   10  A    between atoms: C15_23  and  C16_24 
REMARK   11  A    between atoms: C16_24  and  C17_25 
ROOT
HETATM    1  N1  UNL     1     194.885 125.570  28.680  1.00  0.00    -0.191 NA
HETATM    2  C1  UNL     1     194.187 124.760  29.122  1.00  0.00     0.099 C 
HETATM    3  C2  UNL     1     193.325 123.723  29.664  1.00  0.00     0.044 A 
HETATM    4  C3  UNL     1     193.854 122.482  29.949  1.00  0.00     0.025 A 
HETATM    5  C4  UNL     1     193.065 121.447  30.481  1.00  0.00     0.030 A 
HETATM    6  C5  UNL     1     191.721 121.649  30.734  1.00  0.00     0.028 A 
HETATM    7  C24 UNL     1     191.202 122.902  30.444  1.00  0.00     0.030 A 
HETATM    8  C25 UNL     1     191.990 123.929  29.917  1.00  0.00     0.025 A 
ENDROOT
BRANCH   6   9
HETATM    9  N2  UNL     1     190.928 120.586  31.274  1.00  0.00    -0.390 N 
ATOM     10  H2  UNL     1     191.154 119.610  31.083  1.00  0.00     0.159 HD
BRANCH   9  11
HETATM   11  C6  UNL     1     189.796 120.943  32.098  1.00  0.00     0.121 C 
BRANCH  11  12
HETATM   12  C7  UNL     1     188.545 120.560  31.307  1.00  0.00     0.039 C 
BRANCH  12  13
HETATM   13  C8  UNL     1     187.481 121.575  31.559  1.00  0.00     0.121 C 
BRANCH  13  14
HETATM   14  N3  UNL     1     187.713 122.545  32.579  1.00  0.00    -0.390 N 
ATOM     15  H3  UNL     1     188.001 122.269  33.517  1.00  0.00     0.159 HD
BRANCH  14  16
HETATM   16  C9  UNL     1     187.526 123.920  32.233  1.00  0.00     0.028 A 
HETATM   17  C10 UNL     1     187.372 124.871  33.250  1.00  0.00     0.029 A 
HETATM   18  C11 UNL     1     187.127 126.196  32.954  1.00  0.00     0.003 A 
HETATM   19  C12 UNL     1     187.034 126.589  31.630  1.00  0.00     0.009 A 
HETATM   20  C13 UNL     1     187.184 125.663  30.615  1.00  0.00    -0.031 A 
HETATM   21  C23 UNL     1     187.431 124.344  30.905  1.00  0.00     0.038 A 
BRANCH  20  22
HETATM   22  C14 UNL     1     186.953 126.078  29.219  1.00  0.00     0.270 C 
BRANCH  22  23
HETATM   23  N4  UNL     1     185.727 126.828  29.073  1.00  0.00    -0.071 N 
ATOM     24  H42 UNL     1     185.528 127.392  29.898  1.00  0.00     0.277 HD
ATOM     25  H41 UNL     1     185.822 127.581  28.392  1.00  0.00     0.277 HD
BRANCH  23  26
HETATM   26  C15 UNL     1     184.660 125.974  28.757  1.00  0.00     0.237 C 
BRANCH  26  27
HETATM   27  C16 UNL     1     183.503 125.956  29.676  1.00  0.00     0.066 C 
BRANCH  27  28
HETATM   28  C17 UNL     1     183.631 125.028  30.784  1.00  0.00    -0.057 A 
HETATM   29  C18 UNL     1     183.471 125.584  32.074  1.00  0.00     0.007 A 
HETATM   30  C19 UNL     1     183.592 124.843  33.181  1.00  0.00     0.001 A 
HETATM   31  C20 UNL     1     183.881 123.498  33.042  1.00  0.00     0.000 A 
HETATM   32  C21 UNL     1     184.037 122.929  31.792  1.00  0.00     0.001 A 
HETATM   33  C22 UNL     1     183.911 123.703  30.660  1.00  0.00     0.007 A 
ENDBRANCH  27  28
ENDBRANCH  26  27
ENDBRANCH  23  26
ENDBRANCH  22  23
ENDBRANCH  20  22
ENDBRANCH  14  16
ENDBRANCH  13  14
ENDBRANCH  12  13
ENDBRANCH  11  12
ENDBRANCH   9  11
ENDBRANCH   6   9
TORSDOF 11
ENDMDL
MODEL 4
REMARK VINA RESULT: -6.504445041      2.303      5.337
REMARK  11 active torsions:
REMARK  status: ('A' for Active; 'I' for Inactive)
REMARK    1  A    between atoms: C5_6  and  N2_7 
REMARK    2  A    between atoms: N2_7  and  C6_9 
REMARK    3  A    between atoms: C6_9  and  C7_10 
REMARK    4  A    between atoms: C7_10  and  C8_11 
REMARK    5  A    between atoms: C8_11  and  N3_12 
REMARK    6  A    between atoms: N3_12  and  C9_14 
REMARK    7  A    between atoms: C13_18  and  C14_19 
REMARK    8  A    between atoms: C14_19  and  N4_20 
REMARK    9  A    between atoms: N4_20  and  C15_23 
REMARK   10  A    between atoms: C15_23  and  C16_24 
REMARK   11  A    between atoms: C16_24  and  C17_25 
ROOT
HETATM    1  N1  UNL     1     193.491 121.834  30.506  1.00  0.00    -0.191 NA
HETATM    2  C1  UNL     1     192.400 121.705  30.870  1.00  0.00     0.099 C 
HETATM    3  C2  UNL     1     191.040 121.542  31.353  1.00  0.00     0.044 A 
HETATM    4  C3  UNL     1     190.688 122.067  32.579  1.00  0.00     0.025 A 
HETATM    5  C4  UNL     1     189.384 121.943  33.089  1.00  0.00     0.030 A 
HETATM    6  C5  UNL     1     188.407 121.283  32.366  1.00  0.00     0.028 A 
HETATM    7  C24 UNL     1     188.774 120.762  31.134  1.00  0.00     0.030 A 
HETATM    8  C25 UNL     1     190.072 120.888  30.630  1.00  0.00     0.025 A 
ENDROOT
BRANCH   6   9
HETATM    9  N2  UNL     1     187.084 121.162  32.898  1.00  0.00    -0.390 N 
ATOM     10  H2  UNL     1     186.639 121.939  33.386  1.00  0.00     0.159 HD
BRANCH   9  11
HETATM   11  C6  UNL     1     186.399 119.903  32.719  1.00  0.00     0.121 C 
BRANCH  11  12
HETATM   12  C7  UNL     1     185.153 120.200  31.885  1.00  0.00     0.039 C 
BRANCH  12  13
HETATM   13  C8  UNL     1     184.837 121.655  31.986  1.00  0.00     0.121 C 
BRANCH  13  14
HETATM   14  N3  UNL     1     184.422 122.330  30.801  1.00  0.00    -0.390 N 
ATOM     15  H3  UNL     1     184.370 121.846  29.905  1.00  0.00     0.159 HD
BRANCH  14  16
HETATM   16  C9  UNL     1     184.080 123.715  30.917  1.00  0.00     0.028 A 
HETATM   17  C10 UNL     1     183.854 124.263  32.187  1.00  0.00     0.029 A 
HETATM   18  C11 UNL     1     183.461 125.577  32.334  1.00  0.00     0.003 A 
HETATM   19  C12 UNL     1     183.291 126.364  31.208  1.00  0.00     0.009 A 
HETATM   20  C13 UNL     1     183.512 125.839  29.949  1.00  0.00    -0.031 A 
HETATM   21  C23 UNL     1     183.906 124.532  29.798  1.00  0.00     0.038 A 
BRANCH  20  22
HETATM   22  C14 UNL     1     183.201 126.655  28.761  1.00  0.00     0.270 C 
BRANCH  22  23
HETATM   23  N4  UNL     1     184.174 127.702  28.555  1.00  0.00    -0.071 N 
ATOM     24  H42 UNL     1     183.820 128.431  27.936  1.00  0.00     0.277 HD
ATOM     25  H41 UNL     1     184.307 128.266  29.395  1.00  0.00     0.277 HD
BRANCH  23  26
HETATM   26  C15 UNL     1     185.385 127.168  28.090  1.00  0.00     0.237 C 
BRANCH  26  27
HETATM   27  C16 UNL     1     186.621 127.548  28.806  1.00  0.00     0.066 C 
BRANCH  27  28
HETATM   28  C17 UNL     1     186.945 126.696  29.935  1.00  0.00    -0.057 A 
HETATM   29  C18 UNL     1     187.371 125.387  29.617  1.00  0.00     0.007 A 
HETATM   30  C19 UNL     1     187.674 124.494  30.565  1.00  0.00     0.001 A 
HETATM   31  C20 UNL     1     187.561 124.878  31.888  1.00  0.00     0.000 A 
HETATM   32  C21 UNL     1     187.151 126.154  32.226  1.00  0.00     0.001 A 
HETATM   33  C22 UNL     1     186.842 127.064  31.240  1.00  0.00     0.007 A 
ENDBRANCH  27  28
ENDBRANCH  26  27
ENDBRANCH  23  26
ENDBRANCH  22  23
ENDBRANCH  20  22
ENDBRANCH  14  16
ENDBRANCH  13  14
ENDBRANCH  12  13
ENDBRANCH  11  12
ENDBRANCH   9  11
ENDBRANCH   6   9
TORSDOF 11
ENDMDL
MODEL 5
REMARK VINA RESULT: -6.399568359      1.575      5.893
REMARK  11 active torsions:
REMARK  status: ('A' for Active; 'I' for Inactive)
REMARK    1  A    between atoms: C5_6  and  N2_7 
REMARK    2  A    between atoms: N2_7  and  C6_9 
REMARK    3  A    between atoms: C6_9  and  C7_10 
REMARK    4  A    between atoms: C7_10  and  C8_11 
REMARK    5  A    between atoms: C8_11  and  N3_12 
REMARK    6  A    between atoms: N3_12  and  C9_14 
REMARK    7  A    between atoms: C13_18  and  C14_19 
REMARK    8  A    between atoms: C14_19  and  N4_20 
REMARK    9  A    between atoms: N4_20  and  C15_23 
REMARK   10  A    between atoms: C15_23  and  C16_24 
REMARK   11  A    between atoms: C16_24  and  C17_25 
ROOT
HETATM    1  N1  UNL     1     183.839 119.963  31.725  1.00  0.00    -0.191 NA
HETATM    2  C1  UNL     1     183.876 121.119  31.704  1.00  0.00     0.099 C 
HETATM    3  C2  UNL     1     183.901 122.572  31.698  1.00  0.00     0.044 A 
HETATM    4  C3  UNL     1     183.649 123.260  32.866  1.00  0.00     0.025 A 
HETATM    5  C4  UNL     1     183.668 124.664  32.915  1.00  0.00     0.030 A 
HETATM    6  C5  UNL     1     183.944 125.403  31.779  1.00  0.00     0.028 A 
HETATM    7  C24 UNL     1     184.198 124.699  30.612  1.00  0.00     0.030 A 
HETATM    8  C25 UNL     1     184.178 123.302  30.567  1.00  0.00     0.025 A 
ENDROOT
BRANCH   6   9
HETATM    9  N2  UNL     1     183.960 126.833  31.843  1.00  0.00    -0.390 N 
ATOM     10  H2  UNL     1     183.103 127.362  32.005  1.00  0.00     0.159 HD
BRANCH   9  11
HETATM   11  C6  UNL     1     185.229 127.501  31.668  1.00  0.00     0.121 C 
BRANCH  11  12
HETATM   12  C7  UNL     1     185.917 127.488  33.033  1.00  0.00     0.039 C 
BRANCH  12  13
HETATM   13  C8  UNL     1     187.255 126.841  32.896  1.00  0.00     0.121 C 
BRANCH  13  14
HETATM   14  N3  UNL     1     187.473 125.992  31.772  1.00  0.00    -0.390 N 
ATOM     15  H3  UNL     1     187.562 126.372  30.829  1.00  0.00     0.159 HD
BRANCH  14  16
HETATM   16  C9  UNL     1     187.563 124.586  32.017  1.00  0.00     0.028 A 
HETATM   17  C10 UNL     1     187.111 124.070  33.239  1.00  0.00     0.029 A 
HETATM   18  C11 UNL     1     187.239 122.729  33.535  1.00  0.00     0.003 A 
HETATM   19  C12 UNL     1     187.823 121.882  32.608  1.00  0.00     0.009 A 
HETATM   20  C13 UNL     1     188.273 122.375  31.399  1.00  0.00    -0.031 A 
HETATM   21  C23 UNL     1     188.144 123.709  31.098  1.00  0.00     0.038 A 
BRANCH  20  22
HETATM   22  C14 UNL     1     189.005 121.482  30.482  1.00  0.00     0.270 C 
BRANCH  22  23
HETATM   23  N4  UNL     1     190.314 121.999  30.154  1.00  0.00    -0.071 N 
ATOM     24  H42 UNL     1     190.631 121.675  29.241  1.00  0.00     0.277 HD
ATOM     25  H41 UNL     1     190.288 123.001  29.961  1.00  0.00     0.277 HD
BRANCH  23  26
HETATM   26  C15 UNL     1     191.236 121.688  31.165  1.00  0.00     0.237 C 
BRANCH  26  27
HETATM   27  C16 UNL     1     192.047 122.794  31.716  1.00  0.00     0.066 C 
BRANCH  27  28
HETATM   28  C17 UNL     1     191.418 123.510  32.810  1.00  0.00    -0.057 A 
HETATM   29  C18 UNL     1     191.280 124.906  32.633  1.00  0.00     0.007 A 
HETATM   30  C19 UNL     1     190.743 125.686  33.577  1.00  0.00     0.001 A 
HETATM   31  C20 UNL     1     190.316 125.095  34.752  1.00  0.00     0.000 A 
HETATM   32  C21 UNL     1     190.435 123.732  34.947  1.00  0.00     0.001 A 
HETATM   33  C22 UNL     1     190.991 122.940  33.968  1.00  0.00     0.007 A 
ENDBRANCH  27  28
ENDBRANCH  26  27
ENDBRANCH  23  26
ENDBRANCH  22  23
ENDBRANCH  20  22
ENDBRANCH  14  16
ENDBRANCH  13  14
ENDBRANCH  12  13
ENDBRANCH  11  12
ENDBRANCH   9  11
ENDBRANCH   6   9
TORSDOF 11
ENDMDL
