MODEL 1
REMARK VINA RESULT: -7.502636514      0.000      0.000
REMARK  13 active torsions:
REMARK  status: ('A' for Active; 'I' for Inactive)
REMARK    1  A    between atoms: N1_1  and  N2_4 
REMARK    2  A    between atoms: C1_6  and  C2_7 
REMARK    3  A    between atoms: C1_6  and  N5_18 
REMARK    4  A    between atoms: C2_7  and  C3_8 
REMARK    5  A    between atoms: C3_8  and  C4_9 
REMARK    6  A    between atoms: N4_11  and  C5_13 
REMARK    7  A    between atoms: C5_13  and  C6_14 
REMARK    8  A    between atoms: C6_14  and  C7_15 
REMARK    9  A    between atoms: N5_18  and  C8_20 
REMARK   10  A    between atoms: C8_20  and  C9_21 
REMARK   11  A    between atoms: C8_20  and  C18_35 
REMARK   12  A    between atoms: C10_22  and  C11_23 
REMARK   13  A    between atoms: C13_25  and  N6_26 
REMARK       I    between atoms: N6_26  and  C14_28 
ROOT
HETATM    1  N5  UNL     1      17.666 -12.590  20.800  1.00  0.00    -0.368 N 
ATOM      2  H5  UNL     1      18.194 -11.778  21.124  1.00  0.00     0.161 HD
ENDROOT
BRANCH   1   3
HETATM    3  C1  UNL     1      16.337 -12.388  20.350  1.00  0.00     0.092 C 
HETATM    4  N2  UNL     1      16.133 -12.400  19.079  1.00  0.00    -0.296 N 
ATOM      5  H2  UNL     1      16.943 -12.561  18.480  1.00  0.00     0.187 HD
BRANCH   4   6
HETATM    6  N1  UNL     1      14.918 -12.215  18.458  1.00  0.00    -0.344 N 
ATOM      7  H12 UNL     1      14.481 -11.303  18.592  1.00  0.00     0.176 HD
ATOM      8  H11 UNL     1      14.432 -12.904  17.885  1.00  0.00     0.176 HD
ENDBRANCH   4   6
BRANCH   3   9
HETATM    9  C2  UNL     1      15.209 -12.162  21.251  1.00  0.00     0.084 C 
BRANCH   9  10
HETATM   10  C3  UNL     1      14.549 -13.377  21.800  1.00  0.00     0.080 C 
BRANCH  10  11
HETATM   11  C4  UNL     1      13.209 -13.641  21.218  1.00  0.00     0.089 C 
HETATM   12  N3  UNL     1      13.058 -14.339  20.000  1.00  0.00    -0.088 NA
HETATM   13  N4  UNL     1      12.116 -13.246  21.781  1.00  0.00    -0.382 N 
ATOM     14  H4  UNL     1      11.246 -13.477  21.301  1.00  0.00     0.160 HD
BRANCH  13  15
HETATM   15  C5  UNL     1      11.999 -12.522  23.002  1.00  0.00     0.126 C 
BRANCH  15  16
HETATM   16  C6  UNL     1      11.853 -11.037  22.677  1.00  0.00     0.090 C 
BRANCH  16  17
HETATM   17  C7  UNL     1      11.684 -10.230  23.933  1.00  0.00     0.354 C 
HETATM   18  F1  UNL     1      11.690 -11.119  24.999  1.00  0.00    -0.214 F 
HETATM   19  F2  UNL     1      12.733  -9.362  24.114  1.00  0.00    -0.214 F 
ENDBRANCH  16  17
ENDBRANCH  15  16
ENDBRANCH  13  15
ENDBRANCH  10  11
ENDBRANCH   9  10
ENDBRANCH   3   9
ENDBRANCH   1   3
BRANCH   1  20
HETATM   20  C8  UNL     1      18.310 -13.869  20.826  1.00  0.00     0.134 C 
BRANCH  20  21
HETATM   21  C9  UNL     1      18.035 -14.634  22.097  1.00  0.00    -0.003 C 
HETATM   22  C10 UNL     1      18.629 -14.363  23.218  1.00  0.00    -0.022 C 
BRANCH  22  23
HETATM   23  C11 UNL     1      18.463 -15.024  24.532  1.00  0.00     0.028 C 
HETATM   24  C12 UNL     1      17.805 -16.347  24.267  1.00  0.00     0.035 C 
HETATM   25  C13 UNL     1      17.899 -17.350  25.370  1.00  0.00     0.086 C 
HETATM   26  C15 UNL     1      18.264 -16.743  26.685  1.00  0.00     0.027 C 
HETATM   27  C16 UNL     1      19.461 -15.864  26.631  1.00  0.00     0.023 C 
HETATM   28  C17 UNL     1      19.723 -15.215  25.297  1.00  0.00     0.090 C 
HETATM   29 CL1  UNL     1      20.426 -13.598  25.708  1.00  0.00    -0.124 Cl
BRANCH  25  30
HETATM   30  N6  UNL     1      18.904 -18.363  25.028  1.00  0.00    -0.341 N 
HETATM   31  C14 UNL     1      18.505 -19.629  24.548  1.00  0.00     0.329 C 
HETATM   32  N7  UNL     1      19.479 -20.597  24.222  1.00  0.00    -0.040 NA
HETATM   33  O1  UNL     1      17.296 -19.893  24.411  1.00  0.00    -0.251 OA
ATOM     34  H6  UNL     1      19.896 -18.152  25.138  1.00  0.00     0.164 HD
ENDBRANCH  25  30
ENDBRANCH  22  23
ENDBRANCH  20  21
BRANCH  20  35
HETATM   35  C18 UNL     1      19.788 -13.833  20.546  1.00  0.00     0.251 C 
HETATM   36  F3  UNL     1      20.017 -13.310  19.305  1.00  0.00    -0.253 F 
ENDBRANCH  20  35
ENDBRANCH   1  20
TORSDOF 13
ENDMDL
MODEL 2
REMARK VINA RESULT: -7.409827095      3.978      7.958
REMARK  13 active torsions:
REMARK  status: ('A' for Active; 'I' for Inactive)
REMARK    1  A    between atoms: N1_1  and  N2_4 
REMARK    2  A    between atoms: C1_6  and  C2_7 
REMARK    3  A    between atoms: C1_6  and  N5_18 
REMARK    4  A    between atoms: C2_7  and  C3_8 
REMARK    5  A    between atoms: C3_8  and  C4_9 
REMARK    6  A    between atoms: N4_11  and  C5_13 
REMARK    7  A    between atoms: C5_13  and  C6_14 
REMARK    8  A    between atoms: C6_14  and  C7_15 
REMARK    9  A    between atoms: N5_18  and  C8_20 
REMARK   10  A    between atoms: C8_20  and  C9_21 
REMARK   11  A    between atoms: C8_20  and  C18_35 
REMARK   12  A    between atoms: C10_22  and  C11_23 
REMARK   13  A    between atoms: C13_25  and  N6_26 
REMARK       I    between atoms: N6_26  and  C14_28 
ROOT
HETATM    1  N5  UNL     1      21.864 -14.948  24.251  1.00  0.00    -0.368 N 
ATOM      2  H5  UNL     1      22.105 -14.424  23.410  1.00  0.00     0.161 HD
ENDROOT
BRANCH   1   3
HETATM    3  C1  UNL     1      22.830 -15.838  24.786  1.00  0.00     0.092 C 
HETATM    4  N2  UNL     1      24.040 -15.725  24.358  1.00  0.00    -0.296 N 
ATOM      5  H2  UNL     1      24.223 -14.998  23.668  1.00  0.00     0.187 HD
BRANCH   4   6
HETATM    6  N1  UNL     1      25.107 -16.501  24.753  1.00  0.00    -0.344 N 
ATOM      7  H12 UNL     1      24.902 -17.482  24.943  1.00  0.00     0.176 HD
ATOM      8  H11 UNL     1      26.067 -16.178  24.866  1.00  0.00     0.176 HD
ENDBRANCH   4   6
BRANCH   3   9
HETATM    9  C2  UNL     1      22.516 -16.865  25.776  1.00  0.00     0.084 C 
BRANCH   9  10
HETATM   10  C3  UNL     1      22.245 -18.229  25.246  1.00  0.00     0.080 C 
BRANCH  10  11
HETATM   11  C4  UNL     1      21.468 -18.232  23.981  1.00  0.00     0.089 C 
HETATM   12  N3  UNL     1      22.090 -18.000  22.734  1.00  0.00    -0.088 NA
HETATM   13  N4  UNL     1      20.194 -18.437  23.945  1.00  0.00    -0.382 N 
ATOM     14  H4  UNL     1      19.754 -18.418  23.026  1.00  0.00     0.160 HD
BRANCH  13  15
HETATM   15  C5  UNL     1      19.340 -18.685  25.058  1.00  0.00     0.126 C 
BRANCH  15  16
HETATM   16  C6  UNL     1      18.143 -17.740  24.976  1.00  0.00     0.090 C 
BRANCH  16  17
HETATM   17  C7  UNL     1      17.955 -17.004  26.272  1.00  0.00     0.354 C 
HETATM   18  F1  UNL     1      19.183 -16.985  26.919  1.00  0.00    -0.214 F 
HETATM   19  F2  UNL     1      17.581 -15.701  26.057  1.00  0.00    -0.214 F 
ENDBRANCH  16  17
ENDBRANCH  15  16
ENDBRANCH  13  15
ENDBRANCH  10  11
ENDBRANCH   9  10
ENDBRANCH   3   9
ENDBRANCH   1   3
BRANCH   1  20
HETATM   20  C8  UNL     1      20.568 -14.745  24.827  1.00  0.00     0.134 C 
BRANCH  20  21
HETATM   21  C9  UNL     1      19.508 -14.466  23.791  1.00  0.00    -0.003 C 
HETATM   22  C10 UNL     1      19.479 -15.067  22.641  1.00  0.00    -0.022 C 
BRANCH  22  23
HETATM   23  C11 UNL     1      18.510 -14.896  21.536  1.00  0.00     0.028 C 
HETATM   24  C12 UNL     1      17.161 -15.258  22.087  1.00  0.00     0.035 C 
HETATM   25  C13 UNL     1      15.989 -14.784  21.292  1.00  0.00     0.086 C 
HETATM   26  C15 UNL     1      16.344 -14.396  19.895  1.00  0.00     0.027 C 
HETATM   27  C16 UNL     1      17.491 -13.455  19.806  1.00  0.00     0.023 C 
HETATM   28  C17 UNL     1      18.479 -13.534  20.941  1.00  0.00     0.090 C 
HETATM   29 CL1  UNL     1      20.080 -13.177  20.175  1.00  0.00    -0.124 Cl
BRANCH  25  30
HETATM   30  N6  UNL     1      15.379 -13.627  21.959  1.00  0.00    -0.341 N 
HETATM   31  C14 UNL     1      13.979 -13.450  21.940  1.00  0.00     0.329 C 
HETATM   32  N7  UNL     1      13.403 -12.334  22.584  1.00  0.00    -0.040 NA
HETATM   33  O1  UNL     1      13.251 -14.276  21.358  1.00  0.00    -0.251 OA
ATOM     34  H6  UNL     1      15.970 -12.947  22.438  1.00  0.00     0.164 HD
ENDBRANCH  25  30
ENDBRANCH  22  23
ENDBRANCH  20  21
BRANCH  20  35
HETATM   35  C18 UNL     1      20.522 -13.709  25.917  1.00  0.00     0.251 C 
HETATM   36  F3  UNL     1      20.225 -14.299  27.112  1.00  0.00    -0.253 F 
ENDBRANCH  20  35
ENDBRANCH   1  20
TORSDOF 13
ENDMDL
MODEL 3
REMARK VINA RESULT: -7.377362580      2.155      3.228
REMARK  13 active torsions:
REMARK  status: ('A' for Active; 'I' for Inactive)
REMARK    1  A    between atoms: N1_1  and  N2_4 
REMARK    2  A    between atoms: C1_6  and  C2_7 
REMARK    3  A    between atoms: C1_6  and  N5_18 
REMARK    4  A    between atoms: C2_7  and  C3_8 
REMARK    5  A    between atoms: C3_8  and  C4_9 
REMARK    6  A    between atoms: N4_11  and  C5_13 
REMARK    7  A    between atoms: C5_13  and  C6_14 
REMARK    8  A    between atoms: C6_14  and  C7_15 
REMARK    9  A    between atoms: N5_18  and  C8_20 
REMARK   10  A    between atoms: C8_20  and  C9_21 
REMARK   11  A    between atoms: C8_20  and  C18_35 
REMARK   12  A    between atoms: C10_22  and  C11_23 
REMARK   13  A    between atoms: C13_25  and  N6_26 
REMARK       I    between atoms: N6_26  and  C14_28 
ROOT
HETATM    1  N5  UNL     1      14.088 -13.754  19.216  1.00  0.00    -0.368 N 
ATOM      2  H5  UNL     1      13.514 -13.011  18.816  1.00  0.00     0.161 HD
ENDROOT
BRANCH   1   3
HETATM    3  C1  UNL     1      13.475 -14.661  20.119  1.00  0.00     0.092 C 
HETATM    4  N2  UNL     1      13.377 -15.890  19.748  1.00  0.00    -0.296 N 
ATOM      5  H2  UNL     1      13.753 -16.132  18.832  1.00  0.00     0.187 HD
BRANCH   4   6
HETATM    6  N1  UNL     1      12.809 -16.908  20.482  1.00  0.00    -0.344 N 
ATOM      7  H12 UNL     1      12.812 -16.785  21.495  1.00  0.00     0.176 HD
ATOM      8  H11 UNL     1      12.393 -17.757  20.099  1.00  0.00     0.176 HD
ENDBRANCH   4   6
BRANCH   3   9
HETATM    9  C2  UNL     1      12.951 -14.265  21.424  1.00  0.00     0.084 C 
BRANCH   9  10
HETATM   10  C3  UNL     1      13.599 -13.089  22.065  1.00  0.00     0.080 C 
BRANCH  10  11
HETATM   11  C4  UNL     1      12.965 -11.794  21.711  1.00  0.00     0.089 C 
HETATM   12  N3  UNL     1      13.438 -11.012  20.633  1.00  0.00    -0.088 NA
HETATM   13  N4  UNL     1      11.963 -11.307  22.363  1.00  0.00    -0.382 N 
ATOM     14  H4  UNL     1      11.601 -10.410  22.041  1.00  0.00     0.160 HD
BRANCH  13  15
HETATM   15  C5  UNL     1      11.312 -11.893  23.486  1.00  0.00     0.126 C 
BRANCH  15  16
HETATM   16  C6  UNL     1      11.507 -10.981  24.695  1.00  0.00     0.090 C 
BRANCH  16  17
HETATM   17  C7  UNL     1      11.628  -9.546  24.267  1.00  0.00     0.354 C 
HETATM   18  F1  UNL     1      10.830  -8.792  25.118  1.00  0.00    -0.214 F 
HETATM   19  F2  UNL     1      12.917  -9.092  24.400  1.00  0.00    -0.214 F 
ENDBRANCH  16  17
ENDBRANCH  15  16
ENDBRANCH  13  15
ENDBRANCH  10  11
ENDBRANCH   9  10
ENDBRANCH   3   9
ENDBRANCH   1   3
BRANCH   1  20
HETATM   20  C8  UNL     1      15.466 -13.824  18.835  1.00  0.00     0.134 C 
BRANCH  20  21
HETATM   21  C9  UNL     1      16.360 -14.279  19.962  1.00  0.00    -0.003 C 
HETATM   22  C10 UNL     1      17.183 -13.480  20.568  1.00  0.00    -0.022 C 
BRANCH  22  23
HETATM   23  C11 UNL     1      18.113 -13.784  21.678  1.00  0.00     0.028 C 
HETATM   24  C12 UNL     1      17.330 -14.564  22.694  1.00  0.00     0.035 C 
HETATM   25  C13 UNL     1      18.141 -15.319  23.695  1.00  0.00     0.086 C 
HETATM   26  C15 UNL     1      19.557 -14.851  23.777  1.00  0.00     0.027 C 
HETATM   27  C16 UNL     1      20.240 -14.770  22.460  1.00  0.00     0.023 C 
HETATM   28  C17 UNL     1      19.335 -14.530  21.279  1.00  0.00     0.090 C 
HETATM   29 CL1  UNL     1      20.319 -13.511  20.152  1.00  0.00    -0.124 Cl
BRANCH  25  30
HETATM   30  N6  UNL     1      18.138 -16.747  23.355  1.00  0.00    -0.341 N 
HETATM   31  C14 UNL     1      17.737 -17.706  24.309  1.00  0.00     0.329 C 
HETATM   32  N7  UNL     1      17.738 -19.076  23.971  1.00  0.00    -0.040 NA
HETATM   33  O1  UNL     1      17.382 -17.346  25.447  1.00  0.00    -0.251 OA
ATOM     34  H6  UNL     1      18.427 -17.047  22.423  1.00  0.00     0.164 HD
ENDBRANCH  25  30
ENDBRANCH  22  23
ENDBRANCH  20  21
BRANCH  20  35
HETATM   35  C18 UNL     1      16.009 -12.567  18.210  1.00  0.00     0.251 C 
HETATM   36  F3  UNL     1      17.114 -12.856  17.461  1.00  0.00    -0.253 F 
ENDBRANCH  20  35
ENDBRANCH   1  20
TORSDOF 13
ENDMDL
MODEL 4
REMARK VINA RESULT: -7.363646296      4.031      8.345
REMARK  13 active torsions:
REMARK  status: ('A' for Active; 'I' for Inactive)
REMARK    1  A    between atoms: N1_1  and  N2_4 
REMARK    2  A    between atoms: C1_6  and  C2_7 
REMARK    3  A    between atoms: C1_6  and  N5_18 
REMARK    4  A    between atoms: C2_7  and  C3_8 
REMARK    5  A    between atoms: C3_8  and  C4_9 
REMARK    6  A    between atoms: N4_11  and  C5_13 
REMARK    7  A    between atoms: C5_13  and  C6_14 
REMARK    8  A    between atoms: C6_14  and  C7_15 
REMARK    9  A    between atoms: N5_18  and  C8_20 
REMARK   10  A    between atoms: C8_20  and  C9_21 
REMARK   11  A    between atoms: C8_20  and  C18_35 
REMARK   12  A    between atoms: C10_22  and  C11_23 
REMARK   13  A    between atoms: C13_25  and  N6_26 
REMARK       I    between atoms: N6_26  and  C14_28 
ROOT
HETATM    1  N5  UNL     1      21.725 -14.785  24.128  1.00  0.00    -0.368 N 
ATOM      2  H5  UNL     1      21.844 -14.187  23.310  1.00  0.00     0.161 HD
ENDROOT
BRANCH   1   3
HETATM    3  C1  UNL     1      22.852 -15.501  24.604  1.00  0.00     0.092 C 
HETATM    4  N2  UNL     1      24.002 -15.191  24.114  1.00  0.00    -0.296 N 
ATOM      5  H2  UNL     1      24.026 -14.445  23.420  1.00  0.00     0.187 HD
BRANCH   4   6
HETATM    6  N1  UNL     1      25.202 -15.779  24.446  1.00  0.00    -0.344 N 
ATOM      7  H12 UNL     1      25.243 -16.227  25.362  1.00  0.00     0.176 HD
ATOM      8  H11 UNL     1      26.035 -15.803  23.859  1.00  0.00     0.176 HD
ENDBRANCH   4   6
BRANCH   3   9
HETATM    9  C2  UNL     1      22.765 -16.565  25.602  1.00  0.00     0.084 C 
BRANCH   9  10
HETATM   10  C3  UNL     1      22.191 -17.857  25.140  1.00  0.00     0.080 C 
BRANCH  10  11
HETATM   11  C4  UNL     1      22.478 -18.160  23.715  1.00  0.00     0.089 C 
HETATM   12  N3  UNL     1      23.803 -18.273  23.239  1.00  0.00    -0.088 NA
HETATM   13  N4  UNL     1      21.547 -18.329  22.837  1.00  0.00    -0.382 N 
ATOM     14  H4  UNL     1      21.849 -18.533  21.884  1.00  0.00     0.160 HD
BRANCH  13  15
HETATM   15  C5  UNL     1      20.142 -18.260  23.061  1.00  0.00     0.126 C 
BRANCH  15  16
HETATM   16  C6  UNL     1      19.431 -18.280  21.710  1.00  0.00     0.090 C 
BRANCH  16  17
HETATM   17  C7  UNL     1      17.940 -18.321  21.892  1.00  0.00     0.354 C 
HETATM   18  F1  UNL     1      17.653 -17.684  23.092  1.00  0.00    -0.214 F 
HETATM   19  F2  UNL     1      17.296 -17.631  20.895  1.00  0.00    -0.214 F 
ENDBRANCH  16  17
ENDBRANCH  15  16
ENDBRANCH  13  15
ENDBRANCH  10  11
ENDBRANCH   9  10
ENDBRANCH   3   9
ENDBRANCH   1   3
BRANCH   1  20
HETATM   20  C8  UNL     1      20.428 -14.853  24.732  1.00  0.00     0.134 C 
BRANCH  20  21
HETATM   21  C9  UNL     1      19.310 -14.755  23.724  1.00  0.00    -0.003 C 
HETATM   22  C10 UNL     1      19.526 -14.594  22.455  1.00  0.00    -0.022 C 
BRANCH  22  23
HETATM   23  C11 UNL     1      18.537 -14.481  21.359  1.00  0.00     0.028 C 
HETATM   24  C12 UNL     1      17.180 -14.588  21.992  1.00  0.00     0.035 C 
HETATM   25  C13 UNL     1      16.038 -14.105  21.160  1.00  0.00     0.086 C 
HETATM   26  C15 UNL     1      16.377 -13.984  19.711  1.00  0.00     0.027 C 
HETATM   27  C16 UNL     1      17.620 -13.213  19.447  1.00  0.00     0.023 C 
HETATM   28  C17 UNL     1      18.638 -13.234  20.556  1.00  0.00     0.090 C 
HETATM   29 CL1  UNL     1      20.237 -13.195  19.707  1.00  0.00    -0.124 Cl
BRANCH  25  30
HETATM   30  N6  UNL     1      15.594 -12.794  21.649  1.00  0.00    -0.341 N 
HETATM   31  C14 UNL     1      14.233 -12.428  21.573  1.00  0.00     0.329 C 
HETATM   32  N7  UNL     1      13.817 -11.165  22.045  1.00  0.00    -0.040 NA
HETATM   33  O1  UNL     1      13.399 -13.218  21.091  1.00  0.00    -0.251 OA
ATOM     34  H6  UNL     1      16.273 -12.144  22.045  1.00  0.00     0.164 HD
ENDBRANCH  25  30
ENDBRANCH  22  23
ENDBRANCH  20  21
BRANCH  20  35
HETATM   35  C18 UNL     1      20.208 -13.877  25.856  1.00  0.00     0.251 C 
HETATM   36  F3  UNL     1      20.171 -14.538  27.050  1.00  0.00    -0.253 F 
ENDBRANCH  20  35
ENDBRANCH   1  20
TORSDOF 13
ENDMDL
MODEL 5
REMARK VINA RESULT: -7.329874454      2.212      2.352
REMARK  13 active torsions:
REMARK  status: ('A' for Active; 'I' for Inactive)
REMARK    1  A    between atoms: N1_1  and  N2_4 
REMARK    2  A    between atoms: C1_6  and  C2_7 
REMARK    3  A    between atoms: C1_6  and  N5_18 
REMARK    4  A    between atoms: C2_7  and  C3_8 
REMARK    5  A    between atoms: C3_8  and  C4_9 
REMARK    6  A    between atoms: N4_11  and  C5_13 
REMARK    7  A    between atoms: C5_13  and  C6_14 
REMARK    8  A    between atoms: C6_14  and  C7_15 
REMARK    9  A    between atoms: N5_18  and  C8_20 
REMARK   10  A    between atoms: C8_20  and  C9_21 
REMARK   11  A    between atoms: C8_20  and  C18_35 
REMARK   12  A    between atoms: C10_22  and  C11_23 
REMARK   13  A    between atoms: C13_25  and  N6_26 
REMARK       I    between atoms: N6_26  and  C14_28 
ROOT
HETATM    1  N5  UNL     1      17.414 -12.349  20.904  1.00  0.00    -0.368 N 
ATOM      2  H5  UNL     1      17.738 -11.664  21.587  1.00  0.00     0.161 HD
ENDROOT
BRANCH   1   3
HETATM    3  C1  UNL     1      16.079 -12.248  20.435  1.00  0.00     0.092 C 
HETATM    4  N2  UNL     1      15.892 -12.302  19.163  1.00  0.00    -0.296 N 
ATOM      5  H2  UNL     1      16.717 -12.421  18.576  1.00  0.00     0.187 HD
BRANCH   4   6
HETATM    6  N1  UNL     1      14.675 -12.213  18.525  1.00  0.00    -0.344 N 
ATOM      7  H12 UNL     1      13.914 -11.801  19.066  1.00  0.00     0.176 HD
ATOM      8  H11 UNL     1      14.478 -12.521  17.573  1.00  0.00     0.176 HD
ENDBRANCH   4   6
BRANCH   3   9
HETATM    9  C2  UNL     1      14.928 -12.077  21.319  1.00  0.00     0.084 C 
BRANCH   9  10
HETATM   10  C3  UNL     1      14.335 -13.323  21.876  1.00  0.00     0.080 C 
BRANCH  10  11
HETATM   11  C4  UNL     1      12.963 -13.602  21.382  1.00  0.00     0.089 C 
HETATM   12  N3  UNL     1      12.742 -14.350  20.204  1.00  0.00    -0.088 NA
HETATM   13  N4  UNL     1      11.905 -13.177  21.987  1.00  0.00    -0.382 N 
ATOM     14  H4  UNL     1      11.009 -13.422  21.566  1.00  0.00     0.160 HD
BRANCH  13  15
HETATM   15  C5  UNL     1      11.859 -12.401  23.181  1.00  0.00     0.126 C 
BRANCH  15  16
HETATM   16  C6  UNL     1      11.709 -10.929  22.801  1.00  0.00     0.090 C 
BRANCH  16  17
HETATM   17  C7  UNL     1      11.703 -10.060  24.027  1.00  0.00     0.354 C 
HETATM   18  F1  UNL     1      11.671 -10.903  25.130  1.00  0.00    -0.214 F 
HETATM   19  F2  UNL     1      12.850  -9.310  24.114  1.00  0.00    -0.214 F 
ENDBRANCH  16  17
ENDBRANCH  15  16
ENDBRANCH  13  15
ENDBRANCH  10  11
ENDBRANCH   9  10
ENDBRANCH   3   9
ENDBRANCH   1   3
BRANCH   1  20
HETATM   20  C8  UNL     1      18.332 -13.358  20.470  1.00  0.00     0.134 C 
BRANCH  20  21
HETATM   21  C9  UNL     1      18.377 -14.543  21.402  1.00  0.00    -0.003 C 
HETATM   22  C10 UNL     1      19.465 -14.922  22.000  1.00  0.00    -0.022 C 
BRANCH  22  23
HETATM   23  C11 UNL     1      19.657 -16.057  22.930  1.00  0.00     0.028 C 
HETATM   24  C12 UNL     1      19.943 -17.264  22.084  1.00  0.00     0.035 C 
HETATM   25  C13 UNL     1      20.561 -18.422  22.796  1.00  0.00     0.086 C 
HETATM   26  C15 UNL     1      20.415 -18.345  24.280  1.00  0.00     0.027 C 
HETATM   27  C16 UNL     1      20.844 -17.046  24.860  1.00  0.00     0.023 C 
HETATM   28  C17 UNL     1      20.735 -15.861  23.935  1.00  0.00     0.090 C 
HETATM   29 CL1  UNL     1      20.302 -14.477  25.019  1.00  0.00    -0.124 Cl
BRANCH  25  30
HETATM   30  N6  UNL     1      21.990 -18.494  22.469  1.00  0.00    -0.341 N 
HETATM   31  C14 UNL     1      22.424 -19.188  21.320  1.00  0.00     0.329 C 
HETATM   32  N7  UNL     1      23.801 -19.251  21.014  1.00  0.00    -0.040 NA
HETATM   33  O1  UNL     1      21.596 -19.745  20.575  1.00  0.00    -0.251 OA
ATOM     34  H6  UNL     1      22.673 -18.039  23.075  1.00  0.00     0.164 HD
ENDBRANCH  25  30
ENDBRANCH  22  23
ENDBRANCH  20  21
BRANCH  20  35
HETATM   35  C18 UNL     1      19.724 -12.860  20.188  1.00  0.00     0.251 C 
HETATM   36  F3  UNL     1      20.171 -13.367  19.001  1.00  0.00    -0.253 F 
ENDBRANCH  20  35
ENDBRANCH   1  20
TORSDOF 13
ENDMDL
