MODEL 1
REMARK VINA RESULT: -10.157391593      0.000      0.000
REMARK  12 active torsions:
REMARK  status: ('A' for Active; 'I' for Inactive)
REMARK    1  A    between atoms: C2_2  and  C3_3 
REMARK    2  A    between atoms: C3_3  and  N1_4 
REMARK       I    between atoms: N1_4  and  C4_6 
REMARK    3  A    between atoms: C4_6  and  C5_8 
REMARK    4  A    between atoms: C6_9  and  C7_10 
REMARK       I    between atoms: C7_10  and  N2_12 
REMARK       I    between atoms: N3_15  and  C10_16 
REMARK    5  A    between atoms: C10_16  and  C11_18 
REMARK    6  A    between atoms: C11_18  and  N4_19 
REMARK    7  A    between atoms: C11_18  and  C28_42 
REMARK       I    between atoms: N4_19  and  C12_21 
REMARK    8  A    between atoms: C12_21  and  C13_23 
REMARK    9  A    between atoms: C15_25  and  N5_26 
REMARK       I    between atoms: N5_26  and  C16_28 
REMARK   10  A    between atoms: C16_28  and  C17_30 
REMARK   11  A    between atoms: N6_37  and  C24_38 
REMARK   12  A    between atoms: C24_38  and  C25_39 
ROOT
HETATM    1  C11 UNL     1      10.039 -18.710 -17.858  1.00  0.00     0.180 C 
ENDROOT
BRANCH   1   2
HETATM    2  C10 UNL     1       8.992 -18.633 -16.819  1.00  0.00     0.244 C 
HETATM    3  N3  UNL     1       7.980 -17.621 -16.830  1.00  0.00    -0.332 N 
HETATM    4  C9  UNL     1       7.900 -16.565 -17.791  1.00  0.00     0.147 C 
HETATM    5  C31 UNL     1       6.874 -17.488 -15.897  1.00  0.00     0.255 C 
HETATM    6  C8  UNL     1       7.036 -15.505 -17.144  1.00  0.00     0.147 C 
HETATM    7  N2  UNL     1       6.110 -16.368 -16.389  1.00  0.00    -0.334 N 
HETATM    8  C7  UNL     1       4.734 -16.145 -16.190  1.00  0.00     0.226 C 
HETATM    9  O2  UNL     1       4.053 -16.971 -15.549  1.00  0.00    -0.273 OA
HETATM   10  O3  UNL     1       8.966 -19.467 -15.884  1.00  0.00    -0.271 OA
BRANCH   8  11
HETATM   11  C6  UNL     1       4.117 -14.936 -16.737  1.00  0.00     0.092 C 
HETATM   12  C5  UNL     1       2.877 -15.223 -17.596  1.00  0.00     0.095 C 
HETATM   13  C36 UNL     1       2.352 -13.818 -17.779  1.00  0.00     0.003 C 
HETATM   14  C33 UNL     1       2.505 -13.215 -16.394  1.00  0.00    -0.009 C 
HETATM   15  C35 UNL     1       0.879 -13.616 -17.652  1.00  0.00     0.006 C 
HETATM   16  C32 UNL     1       3.477 -14.079 -15.653  1.00  0.00     0.020 C 
HETATM   17  C34 UNL     1       1.038 -13.537 -16.154  1.00  0.00     0.005 C 
BRANCH  12  18
HETATM   18  C4  UNL     1       3.302 -15.840 -18.882  1.00  0.00     0.223 C 
HETATM   19  N1  UNL     1       3.602 -17.222 -18.918  1.00  0.00    -0.357 N 
ATOM     20  H1  UNL     1       3.520 -17.771 -18.062  1.00  0.00     0.162 HD
HETATM   21  O1  UNL     1       3.405 -15.175 -19.941  1.00  0.00    -0.273 OA
BRANCH  19  22
HETATM   22  C3  UNL     1       4.028 -17.886 -20.149  1.00  0.00     0.149 C 
BRANCH  22  23
HETATM   23  C2  UNL     1       5.446 -18.377 -20.016  1.00  0.00    -0.018 C 
HETATM   24  C1  UNL     1       6.240 -18.352 -21.053  1.00  0.00     0.008 C 
ENDBRANCH  22  23
ENDBRANCH  19  22
ENDBRANCH  12  18
ENDBRANCH   8  11
ENDBRANCH   1   2
BRANCH   1  25
HETATM   25  N4  UNL     1      11.175 -19.509 -17.368  1.00  0.00    -0.346 N 
HETATM   26  C12 UNL     1      12.525 -19.098 -17.564  1.00  0.00     0.252 C 
HETATM   27  O4  UNL     1      12.865 -18.058 -18.152  1.00  0.00    -0.271 OA
ATOM     28  H4  UNL     1      10.989 -20.382 -16.873  1.00  0.00     0.163 HD
BRANCH  26  29
HETATM   29  C13 UNL     1      13.604 -19.993 -17.015  1.00  0.00     0.316 C 
HETATM   30  C14 UNL     1      13.749 -21.164 -17.985  1.00  0.00     0.071 C 
HETATM   31  C15 UNL     1      14.950 -21.954 -17.544  1.00  0.00     0.088 C 
HETATM   32  C22 UNL     1      14.595 -22.542 -16.170  1.00  0.00     0.055 C 
HETATM   33  C23 UNL     1      14.348 -21.393 -15.261  1.00  0.00     0.275 C 
HETATM   34  N6  UNL     1      13.295 -20.463 -15.707  1.00  0.00     0.102 N 
BRANCH  31  35
HETATM   35  N5  UNL     1      15.318 -22.926 -18.502  1.00  0.00    -0.356 N 
HETATM   36  C16 UNL     1      14.446 -24.016 -18.882  1.00  0.00     0.222 C 
HETATM   37  O5  UNL     1      13.337 -24.074 -18.337  1.00  0.00    -0.273 OA
ATOM     38  H5  UNL     1      16.236 -22.856 -18.943  1.00  0.00     0.162 HD
BRANCH  36  39
HETATM   39  C17 UNL     1      14.839 -25.035 -19.882  1.00  0.00     0.078 C 
HETATM   40  C18 UNL     1      15.044 -24.460 -21.247  1.00  0.00     0.014 C 
HETATM   41  C19 UNL     1      16.504 -24.357 -21.523  1.00  0.00     0.001 C 
HETATM   42  C20 UNL     1      17.202 -24.967 -20.340  1.00  0.00     0.001 C 
HETATM   43  C21 UNL     1      16.161 -25.620 -19.476  1.00  0.00     0.014 C 
ENDBRANCH  36  39
ENDBRANCH  31  35
BRANCH  34  44
HETATM   44  C24 UNL     1      13.398 -19.338 -14.755  1.00  0.00     0.278 C 
BRANCH  44  45
HETATM   45  C25 UNL     1      12.263 -19.316 -13.801  1.00  0.00     0.014 A 
HETATM   46  C26 UNL     1      12.438 -18.454 -12.557  1.00  0.00     0.007 A 
HETATM   47  C27 UNL     1      11.605 -17.940 -13.655  1.00  0.00     0.007 A 
ENDBRANCH  44  45
ENDBRANCH  34  44
ENDBRANCH  26  29
ENDBRANCH   1  25
BRANCH   1  48
HETATM   48  C28 UNL     1       9.461 -19.408 -19.078  1.00  0.00     0.009 C 
HETATM   49  C29 UNL     1       9.892 -18.735 -20.345  1.00  0.00     0.012 C 
HETATM   50  C30 UNL     1       9.773 -20.894 -19.094  1.00  0.00     0.012 C 
ENDBRANCH   1  48
TORSDOF 12
ENDMDL
MODEL 2
REMARK VINA RESULT: -9.945975903      2.259     11.589
REMARK  12 active torsions:
REMARK  status: ('A' for Active; 'I' for Inactive)
REMARK    1  A    between atoms: C2_2  and  C3_3 
REMARK    2  A    between atoms: C3_3  and  N1_4 
REMARK       I    between atoms: N1_4  and  C4_6 
REMARK    3  A    between atoms: C4_6  and  C5_8 
REMARK    4  A    between atoms: C6_9  and  C7_10 
REMARK       I    between atoms: C7_10  and  N2_12 
REMARK       I    between atoms: N3_15  and  C10_16 
REMARK    5  A    between atoms: C10_16  and  C11_18 
REMARK    6  A    between atoms: C11_18  and  N4_19 
REMARK    7  A    between atoms: C11_18  and  C28_42 
REMARK       I    between atoms: N4_19  and  C12_21 
REMARK    8  A    between atoms: C12_21  and  C13_23 
REMARK    9  A    between atoms: C15_25  and  N5_26 
REMARK       I    between atoms: N5_26  and  C16_28 
REMARK   10  A    between atoms: C16_28  and  C17_30 
REMARK   11  A    between atoms: N6_37  and  C24_38 
REMARK   12  A    between atoms: C24_38  and  C25_39 
ROOT
HETATM    1  C11 UNL     1      10.657 -18.723 -16.111  1.00  0.00     0.180 C 
ENDROOT
BRANCH   1   2
HETATM    2  C10 UNL     1      10.559 -20.125 -16.566  1.00  0.00     0.244 C 
HETATM    3  N3  UNL     1      11.549 -20.725 -17.408  1.00  0.00    -0.332 N 
HETATM    4  C9  UNL     1      12.688 -20.039 -17.935  1.00  0.00     0.147 C 
HETATM    5  C31 UNL     1      11.582 -22.104 -17.862  1.00  0.00     0.255 C 
HETATM    6  C8  UNL     1      13.140 -20.872 -19.115  1.00  0.00     0.147 C 
HETATM    7  N2  UNL     1      12.812 -22.216 -18.608  1.00  0.00    -0.334 N 
HETATM    8  C7  UNL     1      13.562 -23.391 -18.810  1.00  0.00     0.226 C 
HETATM    9  O2  UNL     1      13.186 -24.467 -18.302  1.00  0.00    -0.273 OA
HETATM   10  O3  UNL     1       9.586 -20.836 -16.220  1.00  0.00    -0.271 OA
BRANCH   8  11
HETATM   11  C6  UNL     1      14.778 -23.336 -19.620  1.00  0.00     0.092 C 
HETATM   12  C5  UNL     1      15.938 -24.153 -19.032  1.00  0.00     0.095 C 
HETATM   13  C36 UNL     1      16.909 -24.102 -20.188  1.00  0.00     0.003 C 
HETATM   14  C33 UNL     1      16.016 -24.338 -21.393  1.00  0.00    -0.009 C 
HETATM   15  C35 UNL     1      17.628 -25.363 -20.533  1.00  0.00     0.006 C 
HETATM   16  C32 UNL     1      14.614 -24.058 -20.951  1.00  0.00     0.020 C 
HETATM   17  C34 UNL     1      16.432 -25.799 -21.343  1.00  0.00     0.005 C 
BRANCH  12  18
HETATM   18  C4  UNL     1      16.462 -23.461 -17.822  1.00  0.00     0.223 C 
HETATM   19  N1  UNL     1      15.570 -23.137 -16.772  1.00  0.00    -0.357 N 
ATOM     20  H1  UNL     1      14.585 -23.385 -16.863  1.00  0.00     0.162 HD
HETATM   21  O1  UNL     1      17.672 -23.153 -17.699  1.00  0.00    -0.273 OA
BRANCH  19  22
HETATM   22  C3  UNL     1      16.022 -22.455 -15.560  1.00  0.00     0.149 C 
BRANCH  22  23
HETATM   23  C2  UNL     1      15.334 -21.123 -15.421  1.00  0.00    -0.018 C 
HETATM   24  C1  UNL     1      15.965 -20.029 -15.760  1.00  0.00     0.008 C 
ENDBRANCH  22  23
ENDBRANCH  19  22
ENDBRANCH  12  18
ENDBRANCH   8  11
ENDBRANCH   1   2
BRANCH   1  25
HETATM   25  N4  UNL     1       9.313 -18.127 -16.029  1.00  0.00    -0.346 N 
HETATM   26  C12 UNL     1       8.670 -17.558 -17.166  1.00  0.00     0.252 C 
HETATM   27  O4  UNL     1       9.168 -17.509 -18.304  1.00  0.00    -0.271 OA
ATOM     28  H4  UNL     1       8.828 -18.121 -15.132  1.00  0.00     0.163 HD
BRANCH  26  29
HETATM   29  C13 UNL     1       7.295 -16.981 -16.964  1.00  0.00     0.316 C 
HETATM   30  C14 UNL     1       6.383 -17.625 -18.006  1.00  0.00     0.071 C 
HETATM   31  C15 UNL     1       4.978 -17.197 -17.684  1.00  0.00     0.088 C 
HETATM   32  C22 UNL     1       4.929 -15.678 -17.913  1.00  0.00     0.055 C 
HETATM   33  C23 UNL     1       5.902 -15.070 -16.969  1.00  0.00     0.275 C 
HETATM   34  N6  UNL     1       7.285 -15.564 -17.099  1.00  0.00     0.102 N 
BRANCH  31  35
HETATM   35  N5  UNL     1       4.025 -17.918 -18.440  1.00  0.00    -0.356 N 
HETATM   36  C16 UNL     1       2.968 -18.692 -17.827  1.00  0.00     0.222 C 
HETATM   37  O5  UNL     1       2.915 -18.704 -16.591  1.00  0.00    -0.273 OA
ATOM     38  H5  UNL     1       4.085 -17.891 -19.458  1.00  0.00     0.162 HD
BRANCH  36  39
HETATM   39  C17 UNL     1       1.977 -19.451 -18.623  1.00  0.00     0.078 C 
HETATM   40  C18 UNL     1       1.219 -18.588 -19.581  1.00  0.00     0.014 C 
HETATM   41  C19 UNL     1       1.742 -18.808 -20.958  1.00  0.00     0.001 C 
HETATM   42  C20 UNL     1       2.774 -19.895 -20.851  1.00  0.00     0.001 C 
HETATM   43  C21 UNL     1       2.705 -20.461 -19.462  1.00  0.00     0.014 C 
ENDBRANCH  36  39
ENDBRANCH  31  35
BRANCH  34  44
HETATM   44  C24 UNL     1       7.978 -14.965 -15.939  1.00  0.00     0.278 C 
BRANCH  44  45
HETATM   45  C25 UNL     1       7.198 -15.124 -14.687  1.00  0.00     0.014 A 
HETATM   46  C26 UNL     1       7.813 -14.533 -13.425  1.00  0.00     0.007 A 
HETATM   47  C27 UNL     1       6.722 -13.799 -14.083  1.00  0.00     0.007 A 
ENDBRANCH  44  45
ENDBRANCH  34  44
ENDBRANCH  26  29
ENDBRANCH   1  25
BRANCH   1  48
HETATM   48  C28 UNL     1      11.269 -18.706 -14.720  1.00  0.00     0.009 C 
HETATM   49  C29 UNL     1      12.710 -18.299 -14.765  1.00  0.00     0.012 C 
HETATM   50  C30 UNL     1      10.471 -17.853 -13.750  1.00  0.00     0.012 C 
ENDBRANCH   1  48
TORSDOF 12
ENDMDL
MODEL 3
REMARK VINA RESULT: -9.942300993      3.131      5.157
REMARK  12 active torsions:
REMARK  status: ('A' for Active; 'I' for Inactive)
REMARK    1  A    between atoms: C2_2  and  C3_3 
REMARK    2  A    between atoms: C3_3  and  N1_4 
REMARK       I    between atoms: N1_4  and  C4_6 
REMARK    3  A    between atoms: C4_6  and  C5_8 
REMARK    4  A    between atoms: C6_9  and  C7_10 
REMARK       I    between atoms: C7_10  and  N2_12 
REMARK       I    between atoms: N3_15  and  C10_16 
REMARK    5  A    between atoms: C10_16  and  C11_18 
REMARK    6  A    between atoms: C11_18  and  N4_19 
REMARK    7  A    between atoms: C11_18  and  C28_42 
REMARK       I    between atoms: N4_19  and  C12_21 
REMARK    8  A    between atoms: C12_21  and  C13_23 
REMARK    9  A    between atoms: C15_25  and  N5_26 
REMARK       I    between atoms: N5_26  and  C16_28 
REMARK   10  A    between atoms: C16_28  and  C17_30 
REMARK   11  A    between atoms: N6_37  and  C24_38 
REMARK   12  A    between atoms: C24_38  and  C25_39 
ROOT
HETATM    1  C11 UNL     1      11.592 -20.981 -18.114  1.00  0.00     0.180 C 
ENDROOT
BRANCH   1   2
HETATM    2  C10 UNL     1      10.742 -20.784 -16.922  1.00  0.00     0.244 C 
HETATM    3  N3  UNL     1      10.111 -19.532 -16.633  1.00  0.00    -0.332 N 
HETATM    4  C9  UNL     1      10.270 -18.345 -17.415  1.00  0.00     0.147 C 
HETATM    5  C31 UNL     1       9.212 -19.247 -15.528  1.00  0.00     0.255 C 
HETATM    6  C8  UNL     1       9.864 -17.211 -16.500  1.00  0.00     0.147 C 
HETATM    7  N2  UNL     1       8.797 -17.881 -15.734  1.00  0.00    -0.334 N 
HETATM    8  C7  UNL     1       7.594 -17.298 -15.292  1.00  0.00     0.226 C 
HETATM    9  O2  UNL     1       6.757 -17.986 -14.672  1.00  0.00    -0.273 OA
HETATM   10  O3  UNL     1      10.552 -21.726 -16.118  1.00  0.00    -0.271 OA
BRANCH   8  11
HETATM   11  C6  UNL     1       7.340 -15.883 -15.563  1.00  0.00     0.092 C 
HETATM   12  C5  UNL     1       5.874 -15.586 -15.911  1.00  0.00     0.095 C 
HETATM   13  C36 UNL     1       5.897 -14.075 -15.876  1.00  0.00     0.003 C 
HETATM   14  C33 UNL     1       6.722 -13.776 -14.637  1.00  0.00    -0.009 C 
HETATM   15  C35 UNL     1       4.747 -13.389 -15.217  1.00  0.00     0.006 C 
HETATM   16  C32 UNL     1       7.479 -15.026 -14.312  1.00  0.00     0.020 C 
HETATM   17  C34 UNL     1       5.415 -13.594 -13.880  1.00  0.00     0.005 C 
BRANCH  12  18
HETATM   18  C4  UNL     1       5.575 -16.115 -17.270  1.00  0.00     0.223 C 
HETATM   19  N1  UNL     1       6.117 -17.362 -17.659  1.00  0.00    -0.357 N 
ATOM     20  H1  UNL     1       6.701 -17.877 -17.000  1.00  0.00     0.162 HD
HETATM   21  O1  UNL     1       4.855 -15.491 -18.087  1.00  0.00    -0.273 OA
BRANCH  19  22
HETATM   22  C3  UNL     1       5.863 -17.935 -18.980  1.00  0.00     0.149 C 
BRANCH  22  23
HETATM   23  C2  UNL     1       7.120 -18.550 -19.535  1.00  0.00    -0.018 C 
HETATM   24  C1  UNL     1       7.462 -18.319 -20.775  1.00  0.00     0.008 C 
ENDBRANCH  22  23
ENDBRANCH  19  22
ENDBRANCH  12  18
ENDBRANCH   8  11
ENDBRANCH   1   2
BRANCH   1  25
HETATM   25  N4  UNL     1      12.697 -21.901 -17.795  1.00  0.00    -0.346 N 
HETATM   26  C12 UNL     1      13.894 -21.452 -17.167  1.00  0.00     0.252 C 
HETATM   27  O4  UNL     1      14.116 -20.275 -16.838  1.00  0.00    -0.271 OA
ATOM     28  H4  UNL     1      12.602 -22.889 -18.031  1.00  0.00     0.163 HD
BRANCH  26  29
HETATM   29  C13 UNL     1      14.954 -22.483 -16.886  1.00  0.00     0.316 C 
HETATM   30  C14 UNL     1      15.540 -22.161 -15.514  1.00  0.00     0.071 C 
HETATM   31  C15 UNL     1      16.458 -23.294 -15.150  1.00  0.00     0.088 C 
HETATM   32  C22 UNL     1      17.615 -23.250 -16.160  1.00  0.00     0.055 C 
HETATM   33  C23 UNL     1      17.019 -23.456 -17.505  1.00  0.00     0.275 C 
HETATM   34  N6  UNL     1      15.976 -22.483 -17.878  1.00  0.00     0.102 N 
BRANCH  31  35
HETATM   35  N5  UNL     1      16.876 -23.217 -13.801  1.00  0.00    -0.356 N 
HETATM   36  C16 UNL     1      17.055 -24.389 -12.973  1.00  0.00     0.222 C 
HETATM   37  O5  UNL     1      16.832 -25.490 -13.490  1.00  0.00    -0.273 OA
ATOM     38  H5  UNL     1      17.059 -22.298 -13.396  1.00  0.00     0.162 HD
BRANCH  36  39
HETATM   39  C17 UNL     1      17.487 -24.303 -11.559  1.00  0.00     0.078 C 
HETATM   40  C18 UNL     1      17.543 -25.637 -10.887  1.00  0.00     0.014 C 
HETATM   41  C19 UNL     1      18.964 -26.068 -10.768  1.00  0.00     0.001 C 
HETATM   42  C20 UNL     1      19.796 -24.932 -11.293  1.00  0.00     0.001 C 
HETATM   43  C21 UNL     1      18.886 -23.758 -11.517  1.00  0.00     0.014 C 
ENDBRANCH  36  39
ENDBRANCH  31  35
BRANCH  34  44
HETATM   44  C24 UNL     1      15.425 -23.029 -19.136  1.00  0.00     0.278 C 
BRANCH  44  45
HETATM   45  C25 UNL     1      15.562 -24.505 -19.205  1.00  0.00     0.014 A 
HETATM   46  C26 UNL     1      14.266 -25.305 -19.233  1.00  0.00     0.007 A 
HETATM   47  C27 UNL     1      15.002 -25.118 -20.493  1.00  0.00     0.007 A 
ENDBRANCH  44  45
ENDBRANCH  34  44
ENDBRANCH  26  29
ENDBRANCH   1  25
BRANCH   1  48
HETATM   48  C28 UNL     1      10.751 -21.612 -19.210  1.00  0.00     0.009 C 
HETATM   49  C29 UNL     1      10.441 -20.624 -20.294  1.00  0.00     0.012 C 
HETATM   50  C30 UNL     1      11.380 -22.878 -19.764  1.00  0.00     0.012 C 
ENDBRANCH   1  48
TORSDOF 12
ENDMDL
MODEL 4
REMARK VINA RESULT: -9.690527438      2.477      5.307
REMARK  12 active torsions:
REMARK  status: ('A' for Active; 'I' for Inactive)
REMARK    1  A    between atoms: C2_2  and  C3_3 
REMARK    2  A    between atoms: C3_3  and  N1_4 
REMARK       I    between atoms: N1_4  and  C4_6 
REMARK    3  A    between atoms: C4_6  and  C5_8 
REMARK    4  A    between atoms: C6_9  and  C7_10 
REMARK       I    between atoms: C7_10  and  N2_12 
REMARK       I    between atoms: N3_15  and  C10_16 
REMARK    5  A    between atoms: C10_16  and  C11_18 
REMARK    6  A    between atoms: C11_18  and  N4_19 
REMARK    7  A    between atoms: C11_18  and  C28_42 
REMARK       I    between atoms: N4_19  and  C12_21 
REMARK    8  A    between atoms: C12_21  and  C13_23 
REMARK    9  A    between atoms: C15_25  and  N5_26 
REMARK       I    between atoms: N5_26  and  C16_28 
REMARK   10  A    between atoms: C16_28  and  C17_30 
REMARK   11  A    between atoms: N6_37  and  C24_38 
REMARK   12  A    between atoms: C24_38  and  C25_39 
ROOT
HETATM    1  C11 UNL     1      12.783 -20.022 -16.578  1.00  0.00     0.180 C 
ENDROOT
BRANCH   1   2
HETATM    2  C10 UNL     1      12.204 -19.023 -17.500  1.00  0.00     0.244 C 
HETATM    3  N3  UNL     1      10.803 -18.977 -17.791  1.00  0.00    -0.332 N 
HETATM    4  C9  UNL     1       9.838 -19.900 -17.280  1.00  0.00     0.147 C 
HETATM    5  C31 UNL     1      10.123 -18.006 -18.631  1.00  0.00     0.255 C 
HETATM    6  C8  UNL     1       8.650 -19.786 -18.211  1.00  0.00     0.147 C 
HETATM    7  N2  UNL     1       8.726 -18.350 -18.533  1.00  0.00    -0.334 N 
HETATM    8  C7  UNL     1       7.636 -17.474 -18.706  1.00  0.00     0.226 C 
HETATM    9  O2  UNL     1       7.837 -16.267 -18.952  1.00  0.00    -0.273 OA
HETATM   10  O3  UNL     1      12.940 -18.178 -18.061  1.00  0.00    -0.271 OA
BRANCH   8  11
HETATM   11  C6  UNL     1       6.273 -17.994 -18.598  1.00  0.00     0.092 C 
HETATM   12  C5  UNL     1       5.227 -16.904 -18.324  1.00  0.00     0.095 C 
HETATM   13  C36 UNL     1       3.958 -17.700 -18.524  1.00  0.00     0.003 C 
HETATM   14  C33 UNL     1       4.263 -18.519 -19.766  1.00  0.00    -0.009 C 
HETATM   15  C35 UNL     1       2.853 -17.047 -19.285  1.00  0.00     0.006 C 
HETATM   16  C32 UNL     1       5.751 -18.512 -19.932  1.00  0.00     0.020 C 
HETATM   17  C34 UNL     1       3.516 -17.468 -20.572  1.00  0.00     0.005 C 
BRANCH  12  18
HETATM   18  C4  UNL     1       5.377 -16.422 -16.924  1.00  0.00     0.223 C 
HETATM   19  N1  UNL     1       5.771 -15.083 -16.694  1.00  0.00    -0.357 N 
ATOM     20  H1  UNL     1       5.944 -14.472 -17.492  1.00  0.00     0.162 HD
HETATM   21  O1  UNL     1       5.164 -17.164 -15.935  1.00  0.00    -0.273 OA
BRANCH  19  22
HETATM   22  C3  UNL     1       5.938 -14.550 -15.343  1.00  0.00     0.149 C 
BRANCH  22  23
HETATM   23  C2  UNL     1       7.399 -14.477 -14.985  1.00  0.00    -0.018 C 
HETATM   24  C1  UNL     1       7.758 -14.443 -13.729  1.00  0.00     0.008 C 
ENDBRANCH  22  23
ENDBRANCH  19  22
ENDBRANCH  12  18
ENDBRANCH   8  11
ENDBRANCH   1   2
BRANCH   1  25
HETATM   25  N4  UNL     1      13.545 -21.025 -17.340  1.00  0.00    -0.346 N 
HETATM   26  C12 UNL     1      12.998 -22.301 -17.662  1.00  0.00     0.252 C 
HETATM   27  O4  UNL     1      11.860 -22.680 -17.338  1.00  0.00    -0.271 OA
ATOM     28  H4  UNL     1      14.491 -20.801 -17.647  1.00  0.00     0.163 HD
BRANCH  26  29
HETATM   29  C13 UNL     1      13.868 -23.245 -18.448  1.00  0.00     0.316 C 
HETATM   30  C14 UNL     1      15.228 -23.284 -17.755  1.00  0.00     0.071 C 
HETATM   31  C15 UNL     1      16.031 -24.364 -18.422  1.00  0.00     0.088 C 
HETATM   32  C22 UNL     1      16.269 -23.894 -19.865  1.00  0.00     0.055 C 
HETATM   33  C23 UNL     1      14.932 -23.754 -20.497  1.00  0.00     0.275 C 
HETATM   34  N6  UNL     1      14.010 -22.837 -19.804  1.00  0.00     0.102 N 
BRANCH  31  35
HETATM   35  N5  UNL     1      17.221 -24.647 -17.711  1.00  0.00    -0.356 N 
HETATM   36  C16 UNL     1      17.767 -25.983 -17.606  1.00  0.00     0.222 C 
HETATM   37  O5  UNL     1      17.153 -26.894 -18.173  1.00  0.00    -0.273 OA
ATOM     38  H5  UNL     1      17.713 -23.879 -17.255  1.00  0.00     0.162 HD
BRANCH  36  39
HETATM   39  C17 UNL     1      19.009 -26.274 -16.855  1.00  0.00     0.078 C 
HETATM   40  C18 UNL     1      18.771 -26.466 -15.391  1.00  0.00     0.014 C 
HETATM   41  C19 UNL     1      18.835 -27.918 -15.069  1.00  0.00     0.001 C 
HETATM   42  C20 UNL     1      19.213 -28.619 -16.344  1.00  0.00     0.001 C 
HETATM   43  C21 UNL     1      19.580 -27.570 -17.355  1.00  0.00     0.014 C 
ENDBRANCH  36  39
ENDBRANCH  31  35
BRANCH  34  44
HETATM   44  C24 UNL     1      12.725 -23.040 -20.505  1.00  0.00     0.278 C 
BRANCH  44  45
HETATM   45  C25 UNL     1      12.316 -21.837 -21.271  1.00  0.00     0.014 A 
HETATM   46  C26 UNL     1      10.869 -21.792 -21.743  1.00  0.00     0.007 A 
HETATM   47  C27 UNL     1      11.248 -20.991 -20.569  1.00  0.00     0.007 A 
ENDBRANCH  44  45
ENDBRANCH  34  44
ENDBRANCH  26  29
ENDBRANCH   1  25
BRANCH   1  48
HETATM   48  C28 UNL     1      13.743 -19.313 -15.637  1.00  0.00     0.009 C 
HETATM   49  C29 UNL     1      13.107 -19.055 -14.305  1.00  0.00     0.012 C 
HETATM   50  C30 UNL     1      15.064 -20.049 -15.498  1.00  0.00     0.012 C 
ENDBRANCH   1  48
TORSDOF 12
ENDMDL
MODEL 5
REMARK VINA RESULT: -9.680463635      2.497     12.195
REMARK  12 active torsions:
REMARK  status: ('A' for Active; 'I' for Inactive)
REMARK    1  A    between atoms: C2_2  and  C3_3 
REMARK    2  A    between atoms: C3_3  and  N1_4 
REMARK       I    between atoms: N1_4  and  C4_6 
REMARK    3  A    between atoms: C4_6  and  C5_8 
REMARK    4  A    between atoms: C6_9  and  C7_10 
REMARK       I    between atoms: C7_10  and  N2_12 
REMARK       I    between atoms: N3_15  and  C10_16 
REMARK    5  A    between atoms: C10_16  and  C11_18 
REMARK    6  A    between atoms: C11_18  and  N4_19 
REMARK    7  A    between atoms: C11_18  and  C28_42 
REMARK       I    between atoms: N4_19  and  C12_21 
REMARK    8  A    between atoms: C12_21  and  C13_23 
REMARK    9  A    between atoms: C15_25  and  N5_26 
REMARK       I    between atoms: N5_26  and  C16_28 
REMARK   10  A    between atoms: C16_28  and  C17_30 
REMARK   11  A    between atoms: N6_37  and  C24_38 
REMARK   12  A    between atoms: C24_38  and  C25_39 
ROOT
HETATM    1  C11 UNL     1       7.839 -16.377 -15.558  1.00  0.00     0.180 C 
ENDROOT
BRANCH   1   2
HETATM    2  C10 UNL     1       8.032 -17.841 -15.599  1.00  0.00     0.244 C 
HETATM    3  N3  UNL     1       8.809 -18.480 -16.618  1.00  0.00    -0.332 N 
HETATM    4  C9  UNL     1       9.426 -17.798 -17.713  1.00  0.00     0.147 C 
HETATM    5  C31 UNL     1       9.111 -19.897 -16.719  1.00  0.00     0.255 C 
HETATM    6  C8  UNL     1       9.683 -18.868 -18.751  1.00  0.00     0.147 C 
HETATM    7  N2  UNL     1       9.982 -20.006 -17.864  1.00  0.00    -0.334 N 
HETATM    8  C7  UNL     1      10.944 -21.011 -18.089  1.00  0.00     0.226 C 
HETATM    9  O2  UNL     1      11.118 -21.910 -17.241  1.00  0.00    -0.273 OA
HETATM   10  O3  UNL     1       7.507 -18.574 -14.728  1.00  0.00    -0.271 OA
BRANCH   8  11
HETATM   11  C6  UNL     1      11.729 -20.989 -19.323  1.00  0.00     0.092 C 
HETATM   12  C5  UNL     1      13.091 -21.685 -19.187  1.00  0.00     0.095 C 
HETATM   13  C36 UNL     1      13.516 -21.717 -20.637  1.00  0.00     0.003 C 
HETATM   14  C33 UNL     1      12.241 -22.122 -21.356  1.00  0.00    -0.009 C 
HETATM   15  C35 UNL     1      14.142 -22.975 -21.139  1.00  0.00     0.006 C 
HETATM   16  C32 UNL     1      11.111 -21.858 -20.410  1.00  0.00     0.020 C 
HETATM   17  C34 UNL     1      12.765 -23.549 -21.360  1.00  0.00     0.005 C 
BRANCH  12  18
HETATM   18  C4  UNL     1      13.992 -20.843 -18.353  1.00  0.00     0.223 C 
HETATM   19  N1  UNL     1      14.051 -21.070 -16.957  1.00  0.00    -0.357 N 
ATOM     20  H1  UNL     1      13.476 -21.807 -16.550  1.00  0.00     0.162 HD
HETATM   21  O1  UNL     1      14.704 -19.935 -18.845  1.00  0.00    -0.273 OA
BRANCH  19  22
HETATM   22  C3  UNL     1      14.913 -20.275 -16.083  1.00  0.00     0.149 C 
BRANCH  22  23
HETATM   23  C2  UNL     1      14.085 -19.523 -15.075  1.00  0.00    -0.018 C 
HETATM   24  C1  UNL     1      12.885 -19.116 -15.396  1.00  0.00     0.008 C 
ENDBRANCH  22  23
ENDBRANCH  19  22
ENDBRANCH  12  18
ENDBRANCH   8  11
ENDBRANCH   1   2
BRANCH   1  25
HETATM   25  N4  UNL     1       6.402 -16.059 -15.615  1.00  0.00    -0.346 N 
HETATM   26  C12 UNL     1       5.693 -15.996 -16.849  1.00  0.00     0.252 C 
HETATM   27  O4  UNL     1       6.204 -16.196 -17.964  1.00  0.00    -0.271 OA
ATOM     28  H4  UNL     1       5.900 -15.879 -14.746  1.00  0.00     0.163 HD
BRANCH  26  29
HETATM   29  C13 UNL     1       4.226 -15.665 -16.785  1.00  0.00     0.316 C 
HETATM   30  C14 UNL     1       4.112 -14.248 -16.228  1.00  0.00     0.071 C 
HETATM   31  C15 UNL     1       2.668 -13.846 -16.342  1.00  0.00     0.088 C 
HETATM   32  C22 UNL     1       1.889 -14.772 -15.395  1.00  0.00     0.055 C 
HETATM   33  C23 UNL     1       2.097 -16.159 -15.884  1.00  0.00     0.275 C 
HETATM   34  N6  UNL     1       3.507 -16.583 -15.969  1.00  0.00     0.102 N 
BRANCH  31  35
HETATM   35  N5  UNL     1       2.484 -12.470 -16.072  1.00  0.00    -0.356 N 
HETATM   36  C16 UNL     1       2.400 -11.475 -17.119  1.00  0.00     0.222 C 
HETATM   37  O5  UNL     1       2.490 -11.870 -18.288  1.00  0.00    -0.273 OA
ATOM     38  H5  UNL     1       2.408 -12.167 -15.101  1.00  0.00     0.162 HD
BRANCH  36  39
HETATM   39  C17 UNL     1       2.214 -10.035 -16.831  1.00  0.00     0.078 C 
HETATM   40  C18 UNL     1       3.030  -9.565 -15.669  1.00  0.00     0.014 C 
HETATM   41  C19 UNL     1       4.203  -8.796 -16.172  1.00  0.00     0.001 C 
HETATM   42  C20 UNL     1       4.048  -8.715 -17.664  1.00  0.00     0.001 C 
HETATM   43  C21 UNL     1       2.686  -9.243 -18.016  1.00  0.00     0.014 C 
ENDBRANCH  36  39
ENDBRANCH  31  35
BRANCH  34  44
HETATM   44  C24 UNL     1       3.437 -17.887 -16.659  1.00  0.00     0.278 C 
BRANCH  44  45
HETATM   45  C25 UNL     1       2.663 -17.804 -17.923  1.00  0.00     0.014 A 
HETATM   46  C26 UNL     1       3.341 -18.356 -19.170  1.00  0.00     0.007 A 
HETATM   47  C27 UNL     1       2.303 -19.169 -18.518  1.00  0.00     0.007 A 
ENDBRANCH  44  45
ENDBRANCH  34  44
ENDBRANCH  26  29
ENDBRANCH   1  25
BRANCH   1  48
HETATM   48  C28 UNL     1       8.388 -15.853 -14.242  1.00  0.00     0.009 C 
HETATM   49  C29 UNL     1       9.885 -15.909 -14.217  1.00  0.00     0.012 C 
HETATM   50  C30 UNL     1       7.870 -14.465 -13.913  1.00  0.00     0.012 C 
ENDBRANCH   1  48
TORSDOF 12
ENDMDL
