MODEL 1
REMARK VINA RESULT: -9.474995156      0.000      0.000
REMARK  15 active torsions:
REMARK  status: ('A' for Active; 'I' for Inactive)
REMARK    1  A    between atoms: O1_2  and  C2_3 
REMARK    2  A    between atoms: C2_3  and  C3_4 
REMARK    3  A    between atoms: C3_4  and  C4_5 
REMARK    4  A    between atoms: N1_8  and  C7_9 
REMARK    5  A    between atoms: C7_9  and  O2_10 
REMARK    6  A    between atoms: C8_12  and  C9_13 
REMARK    7  A    between atoms: C8_12  and  N2_20 
REMARK    8  A    between atoms: C9_13  and  C10_14 
REMARK       I    between atoms: N2_20  and  C16_22 
REMARK       I    between atoms: C16_22  and  N3_24 
REMARK    9  A    between atoms: N3_24  and  C17_26 
REMARK   10  A    between atoms: C17_26  and  C18_27 
REMARK   11  A    between atoms: C17_26  and  C26_37 
REMARK   12  A    between atoms: C18_27  and  C19_28 
REMARK   13  A    between atoms: C19_28  and  N4_29 
REMARK   14  A    between atoms: C26_37  and  O4_38 
REMARK   15  A    between atoms: C26_37  and  N6_40 
REMARK       I    between atoms: N7_43  and  C29_44 
ROOT
HETATM    1  N2  UNL     1     -11.106  18.758 -19.485  1.00  0.00    -0.308 N 
ATOM      2  H2  UNL     1     -11.448  18.103 -20.189  1.00  0.00     0.170 HD
HETATM    3  C16 UNL     1      -9.814  18.516 -19.040  1.00  0.00     0.325 C 
HETATM    4  O3  UNL     1      -9.299  19.263 -18.172  1.00  0.00    -0.247 OA
HETATM    5  N3  UNL     1      -9.054  17.443 -19.538  1.00  0.00    -0.308 N 
ATOM      6  H3  UNL     1      -9.481  16.843 -20.244  1.00  0.00     0.170 HD
ENDROOT
BRANCH   1   7
HETATM    7  C8  UNL     1     -12.036  19.783 -19.113  1.00  0.00     0.064 C 
HETATM    8  C7  UNL     1     -13.055  19.465 -18.148  1.00  0.00     0.161 C 
BRANCH   8   9
HETATM    9  N1  UNL     1     -13.379  20.113 -16.934  1.00  0.00    -0.360 N 
HETATM   10  C6  UNL     1     -14.711  20.580 -16.673  1.00  0.00     0.125 C 
HETATM   11  C5  UNL     1     -14.791  21.789 -15.765  1.00  0.00     0.024 C 
HETATM   12  C4  UNL     1     -13.783  21.823 -14.675  1.00  0.00    -0.009 C 
HETATM   13  C34 UNL     1     -13.003  20.533 -14.557  1.00  0.00     0.024 C 
HETATM   14  C33 UNL     1     -12.364  20.289 -15.923  1.00  0.00     0.125 C 
BRANCH  12  15
HETATM   15  C3  UNL     1     -14.288  22.318 -13.349  1.00  0.00     0.031 C 
BRANCH  15  16
HETATM   16  C2  UNL     1     -15.510  23.173 -13.441  1.00  0.00     0.167 C 
BRANCH  16  17
HETATM   17  O1  UNL     1     -15.302  24.466 -13.026  1.00  0.00    -0.396 OA
HETATM   18  C1  UNL     1     -16.500  25.177 -13.030  1.00  0.00     0.201 C 
ENDBRANCH  16  17
ENDBRANCH  15  16
ENDBRANCH  12  15
ENDBRANCH   8   9
BRANCH   8  19
HETATM   19  O2  UNL     1     -13.821  18.430 -18.365  1.00  0.00    -0.345 OA
ATOM     20  H2  UNL     1     -13.319  17.667 -18.625  1.00  0.00     0.219 HD
ENDBRANCH   8  19
BRANCH   7  21
HETATM   21  C9  UNL     1     -11.653  21.130 -19.534  1.00  0.00     0.066 C 
BRANCH  21  22
HETATM   22  C10 UNL     1     -12.715  22.158 -19.736  1.00  0.00    -0.009 C 
HETATM   23  C11 UNL     1     -12.577  22.793 -21.136  1.00  0.00     0.005 C 
HETATM   24  C12 UNL     1     -13.939  23.447 -21.378  1.00  0.00     0.000 C 
HETATM   25  C13 UNL     1     -14.098  24.543 -20.362  1.00  0.00     0.000 C 
HETATM   26  C14 UNL     1     -14.064  24.088 -18.941  1.00  0.00     0.000 C 
HETATM   27  C15 UNL     1     -12.861  23.159 -18.678  1.00  0.00     0.005 C 
ENDBRANCH  21  22
ENDBRANCH   7  21
ENDBRANCH   1   7
BRANCH   5  28
HETATM   28  C17 UNL     1      -7.693  17.131 -19.110  1.00  0.00     0.066 C 
BRANCH  28  29
HETATM   29  C18 UNL     1      -6.696  17.170 -20.200  1.00  0.00     0.089 C 
BRANCH  29  30
HETATM   30  C19 UNL     1      -5.858  18.453 -19.934  1.00  0.00     0.245 C 
BRANCH  30  31
HETATM   31  N4  UNL     1      -4.477  18.222 -19.878  1.00  0.00    -0.039 N 
HETATM   32  C20 UNL     1      -3.693  19.346 -19.398  1.00  0.00     0.267 C 
HETATM   33  C21 UNL     1      -2.517  18.749 -18.649  1.00  0.00     0.267 C 
HETATM   34  N5  UNL     1      -2.628  17.357 -19.058  1.00  0.00    -0.043 N 
HETATM   35  C22 UNL     1      -1.866  16.456 -18.290  1.00  0.00     0.274 C 
HETATM   36  C23 UNL     1      -2.478  17.285 -20.477  1.00  0.00     0.267 C 
HETATM   37  C25 UNL     1      -4.085  17.182 -18.911  1.00  0.00     0.472 C 
HETATM   38  C24 UNL     1      -3.832  17.725 -21.054  1.00  0.00     0.267 C 
ENDBRANCH  30  31
ENDBRANCH  29  30
ENDBRANCH  28  29
BRANCH  28  39
HETATM   39  C26 UNL     1      -7.676  16.078 -18.105  1.00  0.00     0.161 C 
BRANCH  39  40
HETATM   40  O4  UNL     1      -7.923  14.859 -18.628  1.00  0.00    -0.345 OA
ATOM     41  H4  UNL     1      -7.443  14.169 -18.186  1.00  0.00     0.219 HD
ENDBRANCH  39  40
BRANCH  39  42
HETATM   42  N6  UNL     1      -7.469  16.006 -16.751  1.00  0.00    -0.357 N 
HETATM   43  C27 UNL     1      -6.988  17.248 -16.054  1.00  0.00     0.145 C 
HETATM   44  C28 UNL     1      -7.559  17.279 -14.657  1.00  0.00     0.145 C 
HETATM   45  N7  UNL     1      -8.838  16.614 -14.592  1.00  0.00    -0.349 N 
HETATM   46  C29 UNL     1      -9.943  17.315 -14.064  1.00  0.00     0.215 C 
HETATM   47  C31 UNL     1      -8.967  15.267 -15.062  1.00  0.00     0.145 C 
HETATM   48  C30 UNL     1     -11.295  16.715 -13.957  1.00  0.00     0.117 C 
HETATM   49  O5  UNL     1      -9.811  18.517 -13.653  1.00  0.00    -0.274 OA
HETATM   50  C32 UNL     1      -7.697  14.926 -15.863  1.00  0.00     0.145 C 
ENDBRANCH  39  42
ENDBRANCH  28  39
ENDBRANCH   5  28
TORSDOF 15
ENDMDL
MODEL 2
REMARK VINA RESULT: -9.408608311      1.744      3.781
REMARK  15 active torsions:
REMARK  status: ('A' for Active; 'I' for Inactive)
REMARK    1  A    between atoms: O1_2  and  C2_3 
REMARK    2  A    between atoms: C2_3  and  C3_4 
REMARK    3  A    between atoms: C3_4  and  C4_5 
REMARK    4  A    between atoms: N1_8  and  C7_9 
REMARK    5  A    between atoms: C7_9  and  O2_10 
REMARK    6  A    between atoms: C8_12  and  C9_13 
REMARK    7  A    between atoms: C8_12  and  N2_20 
REMARK    8  A    between atoms: C9_13  and  C10_14 
REMARK       I    between atoms: N2_20  and  C16_22 
REMARK       I    between atoms: C16_22  and  N3_24 
REMARK    9  A    between atoms: N3_24  and  C17_26 
REMARK   10  A    between atoms: C17_26  and  C18_27 
REMARK   11  A    between atoms: C17_26  and  C26_37 
REMARK   12  A    between atoms: C18_27  and  C19_28 
REMARK   13  A    between atoms: C19_28  and  N4_29 
REMARK   14  A    between atoms: C26_37  and  O4_38 
REMARK   15  A    between atoms: C26_37  and  N6_40 
REMARK       I    between atoms: N7_43  and  C29_44 
ROOT
HETATM    1  N2  UNL     1     -11.007  18.779 -18.918  1.00  0.00    -0.308 N 
ATOM      2  H2  UNL     1     -11.431  18.237 -19.670  1.00  0.00     0.170 HD
HETATM    3  C16 UNL     1      -9.698  18.435 -18.614  1.00  0.00     0.325 C 
HETATM    4  O3  UNL     1      -9.084  19.040 -17.700  1.00  0.00    -0.247 OA
HETATM    5  N3  UNL     1      -9.027  17.412 -19.307  1.00  0.00    -0.308 N 
ATOM      6  H3  UNL     1      -9.533  16.928 -20.049  1.00  0.00     0.170 HD
ENDROOT
BRANCH   1   7
HETATM    7  C8  UNL     1     -11.858  19.778 -18.340  1.00  0.00     0.064 C 
HETATM    8  C7  UNL     1     -11.661  21.151 -18.722  1.00  0.00     0.161 C 
BRANCH   8   9
HETATM    9  N1  UNL     1     -12.587  22.082 -19.243  1.00  0.00    -0.360 N 
HETATM   10  C6  UNL     1     -13.202  21.883 -20.526  1.00  0.00     0.125 C 
HETATM   11  C5  UNL     1     -13.574  23.156 -21.254  1.00  0.00     0.024 C 
HETATM   12  C4  UNL     1     -14.053  24.260 -20.384  1.00  0.00    -0.009 C 
HETATM   13  C34 UNL     1     -14.275  23.825 -18.954  1.00  0.00     0.024 C 
HETATM   14  C33 UNL     1     -12.948  23.244 -18.468  1.00  0.00     0.125 C 
BRANCH  12  15
HETATM   15  C3  UNL     1     -15.203  25.057 -20.933  1.00  0.00     0.031 C 
BRANCH  15  16
HETATM   16  C2  UNL     1     -16.264  24.230 -21.584  1.00  0.00     0.167 C 
BRANCH  16  17
HETATM   17  O1  UNL     1     -17.462  24.256 -20.913  1.00  0.00    -0.396 OA
HETATM   18  C1  UNL     1     -17.383  25.097 -19.805  1.00  0.00     0.201 C 
ENDBRANCH  16  17
ENDBRANCH  15  16
ENDBRANCH  12  15
ENDBRANCH   8   9
BRANCH   8  19
HETATM   19  O2  UNL     1     -10.468  21.668 -18.602  1.00  0.00    -0.345 OA
ATOM     20  H2  UNL     1      -9.810  21.149 -19.049  1.00  0.00     0.219 HD
ENDBRANCH   8  19
BRANCH   7  21
HETATM   21  C9  UNL     1     -13.035  19.246 -17.653  1.00  0.00     0.066 C 
BRANCH  21  22
HETATM   22  C10 UNL     1     -13.275  19.618 -16.229  1.00  0.00    -0.009 C 
HETATM   23  C11 UNL     1     -14.395  20.677 -16.140  1.00  0.00     0.005 C 
HETATM   24  C12 UNL     1     -14.842  20.616 -14.678  1.00  0.00     0.000 C 
HETATM   25  C13 UNL     1     -13.683  21.066 -13.835  1.00  0.00     0.000 C 
HETATM   26  C14 UNL     1     -12.454  20.228 -13.964  1.00  0.00     0.000 C 
HETATM   27  C15 UNL     1     -12.095  19.984 -15.444  1.00  0.00     0.005 C 
ENDBRANCH  21  22
ENDBRANCH   7  21
ENDBRANCH   1   7
BRANCH   5  28
HETATM   28  C17 UNL     1      -7.653  16.998 -19.036  1.00  0.00     0.066 C 
BRANCH  28  29
HETATM   29  C18 UNL     1      -6.772  17.020 -20.222  1.00  0.00     0.089 C 
BRANCH  29  30
HETATM   30  C19 UNL     1      -5.992  18.361 -20.120  1.00  0.00     0.245 C 
BRANCH  30  31
HETATM   31  N4  UNL     1      -4.604  18.197 -20.010  1.00  0.00    -0.039 N 
HETATM   32  C20 UNL     1      -3.902  19.335 -19.442  1.00  0.00     0.267 C 
HETATM   33  C21 UNL     1      -2.730  18.761 -18.668  1.00  0.00     0.267 C 
HETATM   34  N5  UNL     1      -2.750  17.388 -19.147  1.00  0.00    -0.043 N 
HETATM   35  C22 UNL     1      -1.976  16.489 -18.388  1.00  0.00     0.274 C 
HETATM   36  C23 UNL     1      -2.534  17.393 -20.559  1.00  0.00     0.267 C 
HETATM   37  C25 UNL     1      -4.201  17.133 -19.076  1.00  0.00     0.472 C 
HETATM   38  C24 UNL     1      -3.883  17.793 -21.178  1.00  0.00     0.267 C 
ENDBRANCH  30  31
ENDBRANCH  29  30
ENDBRANCH  28  29
BRANCH  28  39
HETATM   39  C26 UNL     1      -7.604  15.905 -18.077  1.00  0.00     0.161 C 
BRANCH  39  40
HETATM   40  O4  UNL     1      -7.812  14.702 -18.651  1.00  0.00    -0.345 OA
ATOM     41  H4  UNL     1      -7.366  13.998 -18.195  1.00  0.00     0.219 HD
ENDBRANCH  39  40
BRANCH  39  42
HETATM   42  N6  UNL     1      -7.396  15.782 -16.726  1.00  0.00    -0.357 N 
HETATM   43  C27 UNL     1      -6.834  16.971 -15.999  1.00  0.00     0.145 C 
HETATM   44  C28 UNL     1      -7.395  16.999 -14.597  1.00  0.00     0.145 C 
HETATM   45  N7  UNL     1      -8.714  16.414 -14.542  1.00  0.00    -0.349 N 
HETATM   46  C29 UNL     1      -9.770  17.169 -13.988  1.00  0.00     0.215 C 
HETATM   47  C31 UNL     1      -8.930  15.092 -15.048  1.00  0.00     0.145 C 
HETATM   48  C30 UNL     1     -11.157  16.653 -13.890  1.00  0.00     0.117 C 
HETATM   49  O5  UNL     1      -9.561  18.349 -13.545  1.00  0.00    -0.274 OA
HETATM   50  C32 UNL     1      -7.688  14.694 -15.867  1.00  0.00     0.145 C 
ENDBRANCH  39  42
ENDBRANCH  28  39
ENDBRANCH   5  28
TORSDOF 15
ENDMDL
MODEL 3
REMARK VINA RESULT: -9.260478151      2.617      4.757
REMARK  15 active torsions:
REMARK  status: ('A' for Active; 'I' for Inactive)
REMARK    1  A    between atoms: O1_2  and  C2_3 
REMARK    2  A    between atoms: C2_3  and  C3_4 
REMARK    3  A    between atoms: C3_4  and  C4_5 
REMARK    4  A    between atoms: N1_8  and  C7_9 
REMARK    5  A    between atoms: C7_9  and  O2_10 
REMARK    6  A    between atoms: C8_12  and  C9_13 
REMARK    7  A    between atoms: C8_12  and  N2_20 
REMARK    8  A    between atoms: C9_13  and  C10_14 
REMARK       I    between atoms: N2_20  and  C16_22 
REMARK       I    between atoms: C16_22  and  N3_24 
REMARK    9  A    between atoms: N3_24  and  C17_26 
REMARK   10  A    between atoms: C17_26  and  C18_27 
REMARK   11  A    between atoms: C17_26  and  C26_37 
REMARK   12  A    between atoms: C18_27  and  C19_28 
REMARK   13  A    between atoms: C19_28  and  N4_29 
REMARK   14  A    between atoms: C26_37  and  O4_38 
REMARK   15  A    between atoms: C26_37  and  N6_40 
REMARK       I    between atoms: N7_43  and  C29_44 
ROOT
HETATM    1  N2  UNL     1     -10.349  19.271 -19.268  1.00  0.00    -0.308 N 
ATOM      2  H2  UNL     1     -10.711  18.739 -20.059  1.00  0.00     0.170 HD
HETATM    3  C16 UNL     1      -9.006  19.064 -18.990  1.00  0.00     0.325 C 
HETATM    4  O3  UNL     1      -8.461  19.670 -18.033  1.00  0.00    -0.247 OA
HETATM    5  N3  UNL     1      -8.223  18.183 -19.757  1.00  0.00    -0.308 N 
ATOM      6  H3  UNL     1      -8.673  17.698 -20.533  1.00  0.00     0.170 HD
ENDROOT
BRANCH   1   7
HETATM    7  C8  UNL     1     -11.309  20.115 -18.619  1.00  0.00     0.064 C 
HETATM    8  C7  UNL     1     -11.282  21.526 -18.900  1.00  0.00     0.161 C 
BRANCH   8   9
HETATM    9  N1  UNL     1     -12.319  22.373 -19.351  1.00  0.00    -0.360 N 
HETATM   10  C6  UNL     1     -12.753  22.355 -20.720  1.00  0.00     0.125 C 
HETATM   11  C5  UNL     1     -13.296  23.672 -21.229  1.00  0.00     0.024 C 
HETATM   12  C4  UNL     1     -14.067  24.460 -20.234  1.00  0.00    -0.009 C 
HETATM   13  C34 UNL     1     -14.338  23.692 -18.960  1.00  0.00     0.024 C 
HETATM   14  C33 UNL     1     -12.976  23.259 -18.420  1.00  0.00     0.125 C 
BRANCH  12  15
HETATM   15  C3  UNL     1     -15.292  25.146 -20.769  1.00  0.00     0.031 C 
BRANCH  15  16
HETATM   16  C2  UNL     1     -16.292  24.221 -21.383  1.00  0.00     0.167 C 
BRANCH  16  17
HETATM   17  O1  UNL     1     -17.543  24.324 -20.826  1.00  0.00    -0.396 OA
HETATM   18  C1  UNL     1     -17.488  25.042 -19.633  1.00  0.00     0.201 C 
ENDBRANCH  16  17
ENDBRANCH  15  16
ENDBRANCH  12  15
ENDBRANCH   8   9
BRANCH   8  19
HETATM   19  O2  UNL     1     -10.159  22.173 -18.743  1.00  0.00    -0.345 OA
ATOM     20  H2  UNL     1      -9.407  21.594 -18.785  1.00  0.00     0.219 HD
ENDBRANCH   8  19
BRANCH   7  21
HETATM   21  C9  UNL     1     -12.406  19.397 -17.972  1.00  0.00     0.066 C 
BRANCH  21  22
HETATM   22  C10 UNL     1     -12.271  18.999 -16.540  1.00  0.00    -0.009 C 
HETATM   23  C11 UNL     1     -11.404  20.027 -15.785  1.00  0.00     0.005 C 
HETATM   24  C12 UNL     1     -11.728  19.769 -14.312  1.00  0.00     0.000 C 
HETATM   25  C13 UNL     1     -11.239  18.387 -13.981  1.00  0.00     0.000 C 
HETATM   26  C14 UNL     1     -11.869  17.293 -14.778  1.00  0.00     0.000 C 
HETATM   27  C15 UNL     1     -11.854  17.619 -16.286  1.00  0.00     0.005 C 
ENDBRANCH  21  22
ENDBRANCH   7  21
ENDBRANCH   1   7
BRANCH   5  28
HETATM   28  C17 UNL     1      -6.808  17.918 -19.516  1.00  0.00     0.066 C 
BRANCH  28  29
HETATM   29  C18 UNL     1      -5.980  17.910 -20.740  1.00  0.00     0.089 C 
BRANCH  29  30
HETATM   30  C19 UNL     1      -4.525  18.152 -20.245  1.00  0.00     0.245 C 
BRANCH  30  31
HETATM   31  N4  UNL     1      -3.571  18.140 -21.272  1.00  0.00    -0.039 N 
HETATM   32  C20 UNL     1      -2.634  17.033 -21.216  1.00  0.00     0.267 C 
HETATM   33  C21 UNL     1      -2.296  16.695 -22.655  1.00  0.00     0.267 C 
HETATM   34  N5  UNL     1      -2.859  17.854 -23.333  1.00  0.00    -0.043 N 
HETATM   35  C22 UNL     1      -2.995  17.711 -24.727  1.00  0.00     0.274 C 
HETATM   36  C23 UNL     1      -2.190  19.026 -22.866  1.00  0.00     0.267 C 
HETATM   37  C25 UNL     1      -4.144  17.946 -22.615  1.00  0.00     0.472 C 
HETATM   38  C24 UNL     1      -2.810  19.331 -21.493  1.00  0.00     0.267 C 
ENDBRANCH  30  31
ENDBRANCH  29  30
ENDBRANCH  28  29
BRANCH  28  39
HETATM   39  C26 UNL     1      -6.620  16.924 -18.470  1.00  0.00     0.161 C 
BRANCH  39  40
HETATM   40  O4  UNL     1      -6.647  15.661 -18.944  1.00  0.00    -0.345 OA
ATOM     41  H4  UNL     1      -6.881  15.026 -18.277  1.00  0.00     0.219 HD
ENDBRANCH  39  40
BRANCH  39  42
HETATM   42  N6  UNL     1      -6.419  16.941 -17.113  1.00  0.00    -0.357 N 
HETATM   43  C27 UNL     1      -7.632  16.854 -16.230  1.00  0.00     0.145 C 
HETATM   44  C28 UNL     1      -7.268  16.110 -14.968  1.00  0.00     0.145 C 
HETATM   45  N7  UNL     1      -6.220  15.147 -15.204  1.00  0.00    -0.349 N 
HETATM   46  C29 UNL     1      -6.436  13.802 -14.833  1.00  0.00     0.215 C 
HETATM   47  C31 UNL     1      -4.990  15.563 -15.809  1.00  0.00     0.145 C 
HETATM   48  C30 UNL     1      -5.419  12.742 -15.037  1.00  0.00     0.117 C 
HETATM   49  O5  UNL     1      -7.541  13.446 -14.299  1.00  0.00    -0.274 OA
HETATM   50  C32 UNL     1      -5.205  16.976 -16.384  1.00  0.00     0.145 C 
ENDBRANCH  39  42
ENDBRANCH  28  39
ENDBRANCH   5  28
TORSDOF 15
ENDMDL
MODEL 4
REMARK VINA RESULT: -9.254065994      2.277      4.778
REMARK  15 active torsions:
REMARK  status: ('A' for Active; 'I' for Inactive)
REMARK    1  A    between atoms: O1_2  and  C2_3 
REMARK    2  A    between atoms: C2_3  and  C3_4 
REMARK    3  A    between atoms: C3_4  and  C4_5 
REMARK    4  A    between atoms: N1_8  and  C7_9 
REMARK    5  A    between atoms: C7_9  and  O2_10 
REMARK    6  A    between atoms: C8_12  and  C9_13 
REMARK    7  A    between atoms: C8_12  and  N2_20 
REMARK    8  A    between atoms: C9_13  and  C10_14 
REMARK       I    between atoms: N2_20  and  C16_22 
REMARK       I    between atoms: C16_22  and  N3_24 
REMARK    9  A    between atoms: N3_24  and  C17_26 
REMARK   10  A    between atoms: C17_26  and  C18_27 
REMARK   11  A    between atoms: C17_26  and  C26_37 
REMARK   12  A    between atoms: C18_27  and  C19_28 
REMARK   13  A    between atoms: C19_28  and  N4_29 
REMARK   14  A    between atoms: C26_37  and  O4_38 
REMARK   15  A    between atoms: C26_37  and  N6_40 
REMARK       I    between atoms: N7_43  and  C29_44 
ROOT
HETATM    1  N2  UNL     1     -10.927  18.902 -18.689  1.00  0.00    -0.308 N 
ATOM      2  H2  UNL     1     -11.394  18.303 -19.369  1.00  0.00     0.170 HD
HETATM    3  C16 UNL     1      -9.603  18.577 -18.434  1.00  0.00     0.325 C 
HETATM    4  O3  UNL     1      -8.938  19.252 -17.609  1.00  0.00    -0.247 OA
HETATM    5  N3  UNL     1      -8.974  17.497 -19.078  1.00  0.00    -0.308 N 
ATOM      6  H3  UNL     1      -9.522  16.956 -19.747  1.00  0.00     0.170 HD
ENDROOT
BRANCH   1   7
HETATM    7  C8  UNL     1     -11.743  19.949 -18.148  1.00  0.00     0.064 C 
HETATM    8  C7  UNL     1     -11.555  21.288 -18.640  1.00  0.00     0.161 C 
BRANCH   8   9
HETATM    9  N1  UNL     1     -12.498  22.188 -19.184  1.00  0.00    -0.360 N 
HETATM   10  C6  UNL     1     -13.025  22.004 -20.507  1.00  0.00     0.125 C 
HETATM   11  C5  UNL     1     -13.422  23.282 -21.214  1.00  0.00     0.024 C 
HETATM   12  C4  UNL     1     -14.010  24.327 -20.338  1.00  0.00    -0.009 C 
HETATM   13  C34 UNL     1     -14.291  23.830 -18.939  1.00  0.00     0.024 C 
HETATM   14  C33 UNL     1     -12.965  23.302 -18.394  1.00  0.00     0.125 C 
BRANCH  12  15
HETATM   15  C3  UNL     1     -15.167  25.082 -20.928  1.00  0.00     0.031 C 
BRANCH  15  16
HETATM   16  C2  UNL     1     -16.208  24.214 -21.557  1.00  0.00     0.167 C 
BRANCH  16  17
HETATM   17  O1  UNL     1     -17.395  24.200 -20.868  1.00  0.00    -0.396 OA
HETATM   18  C1  UNL     1     -17.361  25.116 -19.819  1.00  0.00     0.201 C 
ENDBRANCH  16  17
ENDBRANCH  15  16
ENDBRANCH  12  15
ENDBRANCH   8   9
BRANCH   8  19
HETATM   19  O2  UNL     1     -10.353  21.801 -18.613  1.00  0.00    -0.345 OA
ATOM     20  H2  UNL     1      -9.683  21.135 -18.709  1.00  0.00     0.219 HD
ENDBRANCH   8  19
BRANCH   7  21
HETATM   21  C9  UNL     1     -12.889  19.482 -17.370  1.00  0.00     0.066 C 
BRANCH  21  22
HETATM   22  C10 UNL     1     -12.690  19.092 -15.944  1.00  0.00    -0.009 C 
HETATM   23  C11 UNL     1     -12.052  20.258 -15.160  1.00  0.00     0.005 C 
HETATM   24  C12 UNL     1     -12.330  19.912 -13.696  1.00  0.00     0.000 C 
HETATM   25  C13 UNL     1     -11.578  18.648 -13.382  1.00  0.00     0.000 C 
HETATM   26  C14 UNL     1     -11.971  17.467 -14.206  1.00  0.00     0.000 C 
HETATM   27  C15 UNL     1     -12.009  17.818 -15.708  1.00  0.00     0.005 C 
ENDBRANCH  21  22
ENDBRANCH   7  21
ENDBRANCH   1   7
BRANCH   5  28
HETATM   28  C17 UNL     1      -7.587  17.099 -18.852  1.00  0.00     0.066 C 
BRANCH  28  29
HETATM   29  C18 UNL     1      -6.732  17.191 -20.053  1.00  0.00     0.089 C 
BRANCH  29  30
HETATM   30  C19 UNL     1      -5.903  18.493 -19.859  1.00  0.00     0.245 C 
BRANCH  30  31
HETATM   31  N4  UNL     1      -4.519  18.300 -19.966  1.00  0.00    -0.039 N 
HETATM   32  C20 UNL     1      -3.713  19.405 -19.475  1.00  0.00     0.267 C 
HETATM   33  C21 UNL     1      -2.452  18.784 -18.906  1.00  0.00     0.267 C 
HETATM   34  N5  UNL     1      -2.575  17.428 -19.419  1.00  0.00    -0.043 N 
HETATM   35  C22 UNL     1      -1.717  16.490 -18.814  1.00  0.00     0.274 C 
HETATM   36  C23 UNL     1      -2.574  17.477 -20.846  1.00  0.00     0.267 C 
HETATM   37  C25 UNL     1      -4.005  17.197 -19.137  1.00  0.00     0.472 C 
HETATM   38  C24 UNL     1      -3.991  17.923 -21.241  1.00  0.00     0.267 C 
ENDBRANCH  30  31
ENDBRANCH  29  30
ENDBRANCH  28  29
BRANCH  28  39
HETATM   39  C26 UNL     1      -7.497  15.965 -17.944  1.00  0.00     0.161 C 
BRANCH  39  40
HETATM   40  O4  UNL     1      -7.949  14.821 -18.497  1.00  0.00    -0.345 OA
ATOM     41  H4  UNL     1      -8.403  14.268 -17.872  1.00  0.00     0.219 HD
ENDBRANCH  39  40
BRANCH  39  42
HETATM   42  N6  UNL     1      -7.065  15.760 -16.658  1.00  0.00    -0.357 N 
HETATM   43  C27 UNL     1      -7.441  14.462 -15.998  1.00  0.00     0.145 C 
HETATM   44  C28 UNL     1      -6.334  14.052 -15.057  1.00  0.00     0.145 C 
HETATM   45  N7  UNL     1      -5.049  14.526 -15.512  1.00  0.00    -0.349 N 
HETATM   46  C29 UNL     1      -3.999  13.596 -15.673  1.00  0.00     0.215 C 
HETATM   47  C31 UNL     1      -4.858  15.917 -15.793  1.00  0.00     0.145 C 
HETATM   48  C30 UNL     1      -2.646  13.987 -16.135  1.00  0.00     0.117 C 
HETATM   49  O5  UNL     1      -4.187  12.357 -15.421  1.00  0.00    -0.274 OA
HETATM   50  C32 UNL     1      -6.248  16.580 -15.842  1.00  0.00     0.145 C 
ENDBRANCH  39  42
ENDBRANCH  28  39
ENDBRANCH   5  28
TORSDOF 15
ENDMDL
MODEL 5
REMARK VINA RESULT: -9.126068509      2.044      4.076
REMARK  15 active torsions:
REMARK  status: ('A' for Active; 'I' for Inactive)
REMARK    1  A    between atoms: O1_2  and  C2_3 
REMARK    2  A    between atoms: C2_3  and  C3_4 
REMARK    3  A    between atoms: C3_4  and  C4_5 
REMARK    4  A    between atoms: N1_8  and  C7_9 
REMARK    5  A    between atoms: C7_9  and  O2_10 
REMARK    6  A    between atoms: C8_12  and  C9_13 
REMARK    7  A    between atoms: C8_12  and  N2_20 
REMARK    8  A    between atoms: C9_13  and  C10_14 
REMARK       I    between atoms: N2_20  and  C16_22 
REMARK       I    between atoms: C16_22  and  N3_24 
REMARK    9  A    between atoms: N3_24  and  C17_26 
REMARK   10  A    between atoms: C17_26  and  C18_27 
REMARK   11  A    between atoms: C17_26  and  C26_37 
REMARK   12  A    between atoms: C18_27  and  C19_28 
REMARK   13  A    between atoms: C19_28  and  N4_29 
REMARK   14  A    between atoms: C26_37  and  O4_38 
REMARK   15  A    between atoms: C26_37  and  N6_40 
REMARK       I    between atoms: N7_43  and  C29_44 
ROOT
HETATM    1  N2  UNL     1     -10.544  19.100 -19.271  1.00  0.00    -0.308 N 
ATOM      2  H2  UNL     1     -10.899  18.652 -20.115  1.00  0.00     0.170 HD
HETATM    3  C16 UNL     1      -9.241  18.763 -18.934  1.00  0.00     0.325 C 
HETATM    4  O3  UNL     1      -8.709  19.259 -17.909  1.00  0.00    -0.247 OA
HETATM    5  N3  UNL     1      -8.487  17.870 -19.715  1.00  0.00    -0.308 N 
ATOM      6  H3  UNL     1      -8.927  17.475 -20.546  1.00  0.00     0.170 HD
ENDROOT
BRANCH   1   7
HETATM    7  C8  UNL     1     -11.470  19.979 -18.619  1.00  0.00     0.064 C 
HETATM    8  C7  UNL     1     -11.392  21.388 -18.902  1.00  0.00     0.161 C 
BRANCH   8   9
HETATM    9  N1  UNL     1     -12.398  22.273 -19.350  1.00  0.00    -0.360 N 
HETATM   10  C6  UNL     1     -13.084  22.052 -20.593  1.00  0.00     0.125 C 
HETATM   11  C5  UNL     1     -13.568  23.310 -21.280  1.00  0.00     0.024 C 
HETATM   12  C4  UNL     1     -14.046  24.380 -20.368  1.00  0.00    -0.009 C 
HETATM   13  C34 UNL     1     -14.151  23.922 -18.931  1.00  0.00     0.024 C 
HETATM   14  C33 UNL     1     -12.767  23.408 -18.540  1.00  0.00     0.125 C 
BRANCH  12  15
HETATM   15  C3  UNL     1     -15.270  25.119 -20.831  1.00  0.00     0.031 C 
BRANCH  15  16
HETATM   16  C2  UNL     1     -16.290  24.256 -21.499  1.00  0.00     0.167 C 
BRANCH  16  17
HETATM   17  O1  UNL     1     -17.525  24.310 -20.902  1.00  0.00    -0.396 OA
HETATM   18  C1  UNL     1     -17.445  24.969 -19.677  1.00  0.00     0.201 C 
ENDBRANCH  16  17
ENDBRANCH  15  16
ENDBRANCH  12  15
ENDBRANCH   8   9
BRANCH   8  19
HETATM   19  O2  UNL     1     -10.245  21.994 -18.748  1.00  0.00    -0.345 OA
ATOM     20  H2  UNL     1      -9.916  21.909 -17.861  1.00  0.00     0.219 HD
ENDBRANCH   8  19
BRANCH   7  21
HETATM   21  C9  UNL     1     -12.591  19.303 -17.969  1.00  0.00     0.066 C 
BRANCH  21  22
HETATM   22  C10 UNL     1     -12.841  19.541 -16.517  1.00  0.00    -0.009 C 
HETATM   23  C11 UNL     1     -14.139  20.354 -16.330  1.00  0.00     0.005 C 
HETATM   24  C12 UNL     1     -14.507  20.125 -14.862  1.00  0.00     0.000 C 
HETATM   25  C13 UNL     1     -13.422  20.745 -14.026  1.00  0.00     0.000 C 
HETATM   26  C14 UNL     1     -12.061  20.171 -14.243  1.00  0.00     0.000 C 
HETATM   27  C15 UNL     1     -11.722  20.085 -15.746  1.00  0.00     0.005 C 
ENDBRANCH  21  22
ENDBRANCH   7  21
ENDBRANCH   1   7
BRANCH   5  28
HETATM   28  C17 UNL     1      -7.115  17.471 -19.415  1.00  0.00     0.066 C 
BRANCH  28  29
HETATM   29  C18 UNL     1      -6.177  17.645 -20.543  1.00  0.00     0.089 C 
BRANCH  29  30
HETATM   30  C19 UNL     1      -4.833  18.073 -19.888  1.00  0.00     0.245 C 
BRANCH  30  31
HETATM   31  N4  UNL     1      -3.763  18.144 -20.791  1.00  0.00    -0.039 N 
HETATM   32  C20 UNL     1      -2.800  17.064 -20.677  1.00  0.00     0.267 C 
HETATM   33  C21 UNL     1      -2.281  16.814 -22.079  1.00  0.00     0.267 C 
HETATM   34  N5  UNL     1      -2.800  17.989 -22.762  1.00  0.00    -0.043 N 
HETATM   35  C22 UNL     1      -2.764  17.916 -24.168  1.00  0.00     0.274 C 
HETATM   36  C23 UNL     1      -2.235  19.154 -22.161  1.00  0.00     0.267 C 
HETATM   37  C25 UNL     1      -4.165  18.005 -22.202  1.00  0.00     0.472 C 
HETATM   38  C24 UNL     1      -3.025  19.368 -20.860  1.00  0.00     0.267 C 
ENDBRANCH  30  31
ENDBRANCH  29  30
ENDBRANCH  28  29
BRANCH  28  39
HETATM   39  C26 UNL     1      -7.074  16.284 -18.574  1.00  0.00     0.161 C 
BRANCH  39  40
HETATM   40  O4  UNL     1      -7.266  15.146 -19.273  1.00  0.00    -0.345 OA
ATOM     41  H4  UNL     1      -8.183  14.978 -19.451  1.00  0.00     0.219 HD
ENDBRANCH  39  40
BRANCH  39  42
HETATM   42  N6  UNL     1      -6.888  16.022 -17.240  1.00  0.00    -0.357 N 
HETATM   43  C27 UNL     1      -6.300  17.115 -16.393  1.00  0.00     0.145 C 
HETATM   44  C28 UNL     1      -6.878  17.022 -15.001  1.00  0.00     0.145 C 
HETATM   45  N7  UNL     1      -8.214  16.476 -15.018  1.00  0.00    -0.349 N 
HETATM   46  C29 UNL     1      -9.255  17.205 -14.402  1.00  0.00     0.215 C 
HETATM   47  C31 UNL     1      -8.464  15.217 -15.654  1.00  0.00     0.145 C 
HETATM   48  C30 UNL     1     -10.657  16.725 -14.369  1.00  0.00     0.117 C 
HETATM   49  O5  UNL     1      -9.016  18.328 -13.842  1.00  0.00    -0.274 OA
HETATM   50  C32 UNL     1      -7.223  14.864 -16.496  1.00  0.00     0.145 C 
ENDBRANCH  39  42
ENDBRANCH  28  39
ENDBRANCH   5  28
TORSDOF 15
ENDMDL
