MODEL 1
REMARK VINA RESULT: -9.628318423      0.000      0.000
REMARK  12 active torsions:
REMARK  status: ('A' for Active; 'I' for Inactive)
REMARK    1  A    between atoms: C2_3  and  C3_4 
REMARK    2  A    between atoms: C3_4  and  C4_5 
REMARK    3  A    between atoms: C4_5  and  N2_6 
REMARK    4  A    between atoms: C14_18  and  C15_19 
REMARK    5  A    between atoms: C15_19  and  N5_20 
REMARK       I    between atoms: N5_20  and  C16_22 
REMARK       I    between atoms: C16_22  and  N9_40 
REMARK    6  A    between atoms: N6_23  and  C17_25 
REMARK    7  A    between atoms: C17_25  and  C18_26 
REMARK    8  A    between atoms: C18_26  and  C19_27 
REMARK    9  A    between atoms: C19_27  and  C20_28 
REMARK   10  A    between atoms: C20_28  and  C21_29 
REMARK   11  A    between atoms: C21_29  and  C22_30 
REMARK   12  A    between atoms: C22_30  and  N7_31 
ROOT
HETATM    1  N5  UNL     1      -8.675  16.376 -18.381  1.00  0.00    -0.222 N 
ATOM      2  H5  UNL     1      -9.335  15.638 -18.627  1.00  0.00     0.178 HD
HETATM    3  C16 UNL     1      -8.148  16.448 -17.068  1.00  0.00     0.672 C 
HETATM    4  N6  UNL     1      -8.834  16.846 -16.049  1.00  0.00    -0.226 N 
ATOM      5  H6  UNL     1      -9.804  17.124 -16.203  1.00  0.00     0.177 HD
HETATM    6  N9  UNL     1      -6.768  16.035 -16.943  1.00  0.00    -0.216 N 
HETATM    7  C27 UNL     1      -6.564  14.623 -17.086  1.00  0.00     0.143 C 
HETATM    8  C28 UNL     1      -5.648  14.003 -16.083  1.00  0.00     0.039 C 
HETATM    9  C29 UNL     1      -4.356  14.738 -16.033  1.00  0.00     0.116 C 
HETATM   10  N10 UNL     1      -4.138  15.462 -17.237  1.00  0.00    -0.412 N 
ATOM     11  H10 UNL     1      -3.786  15.022 -18.087  1.00  0.00     0.154 HD
HETATM   12  C30 UNL     1      -4.450  16.853 -17.166  1.00  0.00     0.035 C 
HETATM   13  C31 UNL     1      -3.513  17.499 -16.155  1.00  0.00     0.039 C 
HETATM   14  C32 UNL     1      -4.169  17.505 -18.510  1.00  0.00     0.039 C 
HETATM   15  C33 UNL     1      -5.866  17.116 -16.701  1.00  0.00     0.171 C 
ENDROOT
BRANCH   1  16
HETATM   16  C15 UNL     1      -8.280  17.339 -19.362  1.00  0.00     0.178 C 
BRANCH  16  17
HETATM   17  C14 UNL     1      -9.107  18.558 -19.312  1.00  0.00    -0.020 A 
HETATM   18  C13 UNL     1     -10.099  18.898 -20.237  1.00  0.00     0.107 A 
HETATM   19  N4  UNL     1     -10.662  20.069 -19.880  1.00  0.00    -0.316 N 
HETATM   20  C12 UNL     1     -11.602  20.964 -20.236  1.00  0.00     0.123 A 
HETATM   21  C35 UNL     1     -10.078  20.513 -18.752  1.00  0.00     0.114 A 
HETATM   22  C2  UNL     1     -11.607  21.991 -19.315  1.00  0.00     0.030 A 
HETATM   23  N1  UNL     1     -10.656  21.683 -18.415  1.00  0.00    -0.339 N 
HETATM   24  C1  UNL     1     -10.303  22.480 -17.257  1.00  0.00     0.158 C 
HETATM   25  C34 UNL     1      -9.108  19.581 -18.389  1.00  0.00     0.059 A 
BRANCH  22  26
HETATM   26  C3  UNL     1     -12.504  23.205 -19.328  1.00  0.00     0.086 C 
BRANCH  26  27
HETATM   27  C4  UNL     1     -13.673  22.882 -20.221  1.00  0.00     0.243 C 
BRANCH  27  28
HETATM   28  N2  UNL     1     -14.858  23.626 -19.944  1.00  0.00    -0.062 N 
HETATM   29  C5  UNL     1     -14.439  24.989 -19.580  1.00  0.00     0.265 C 
HETATM   30  C6  UNL     1     -15.585  25.635 -18.871  1.00  0.00     0.265 C 
HETATM   31  N3  UNL     1     -16.821  25.096 -19.443  1.00  0.00    -0.066 N 
HETATM   32  C7  UNL     1     -17.953  25.909 -19.103  1.00  0.00     0.272 C 
HETATM   33  C8  UNL     1     -17.023  23.760 -18.906  1.00  0.00     0.265 C 
HETATM   34  C10 UNL     1     -16.636  24.962 -20.875  1.00  0.00     0.265 C 
HETATM   35  C9  UNL     1     -15.647  23.089 -18.881  1.00  0.00     0.265 C 
HETATM   36  C11 UNL     1     -15.705  23.786 -21.123  1.00  0.00     0.265 C 
ENDBRANCH  27  28
ENDBRANCH  26  27
ENDBRANCH  22  26
ENDBRANCH  16  17
ENDBRANCH   1  16
BRANCH   4  37
HETATM   37  C17 UNL     1      -8.316  16.922 -14.717  1.00  0.00     0.138 C 
BRANCH  37  38
HETATM   38  C18 UNL     1      -9.125  15.965 -13.829  1.00  0.00     0.020 C 
BRANCH  38  39
HETATM   39  C19 UNL     1     -10.566  16.425 -13.889  1.00  0.00     0.002 C 
BRANCH  39  40
HETATM   40  C20 UNL     1     -10.744  17.730 -13.192  1.00  0.00     0.002 C 
BRANCH  40  41
HETATM   41  C21 UNL     1     -11.758  18.651 -13.828  1.00  0.00     0.020 C 
BRANCH  41  42
HETATM   42  C22 UNL     1     -11.244  19.090 -15.160  1.00  0.00     0.137 C 
BRANCH  42  43
HETATM   43  N7  UNL     1     -12.260  19.226 -16.167  1.00  0.00    -0.270 N 
HETATM   44  C23 UNL     1     -13.201  20.280 -16.263  1.00  0.00     0.229 C 
HETATM   45  O1  UNL     1     -13.058  21.264 -15.474  1.00  0.00    -0.273 OA
HETATM   46  C24 UNL     1     -14.329  20.316 -17.211  1.00  0.00     0.123 C 
HETATM   47  C25 UNL     1     -14.214  19.392 -18.372  1.00  0.00     0.133 C 
HETATM   48  N8  UNL     1     -13.323  18.290 -18.203  1.00  0.00    -0.342 N 
HETATM   49  C26 UNL     1     -12.341  18.205 -17.182  1.00  0.00     0.325 C 
ATOM     50  H8  UNL     1     -13.397  17.511 -18.859  1.00  0.00     0.164 HD
HETATM   51  O2  UNL     1     -11.542  17.249 -17.156  1.00  0.00    -0.247 OA
ENDBRANCH  42  43
ENDBRANCH  41  42
ENDBRANCH  40  41
ENDBRANCH  39  40
ENDBRANCH  38  39
ENDBRANCH  37  38
ENDBRANCH   4  37
TORSDOF 12
ENDMDL
MODEL 2
REMARK VINA RESULT: -9.257303479      0.486      1.216
REMARK  12 active torsions:
REMARK  status: ('A' for Active; 'I' for Inactive)
REMARK    1  A    between atoms: C2_3  and  C3_4 
REMARK    2  A    between atoms: C3_4  and  C4_5 
REMARK    3  A    between atoms: C4_5  and  N2_6 
REMARK    4  A    between atoms: C14_18  and  C15_19 
REMARK    5  A    between atoms: C15_19  and  N5_20 
REMARK       I    between atoms: N5_20  and  C16_22 
REMARK       I    between atoms: C16_22  and  N9_40 
REMARK    6  A    between atoms: N6_23  and  C17_25 
REMARK    7  A    between atoms: C17_25  and  C18_26 
REMARK    8  A    between atoms: C18_26  and  C19_27 
REMARK    9  A    between atoms: C19_27  and  C20_28 
REMARK   10  A    between atoms: C20_28  and  C21_29 
REMARK   11  A    between atoms: C21_29  and  C22_30 
REMARK   12  A    between atoms: C22_30  and  N7_31 
ROOT
HETATM    1  N5  UNL     1      -8.600  16.448 -18.338  1.00  0.00    -0.222 N 
ATOM      2  H5  UNL     1      -9.286  15.729 -18.572  1.00  0.00     0.178 HD
HETATM    3  C16 UNL     1      -8.069  16.521 -17.027  1.00  0.00     0.672 C 
HETATM    4  N6  UNL     1      -8.739  16.958 -16.013  1.00  0.00    -0.226 N 
ATOM      5  H6  UNL     1      -9.699  17.266 -16.170  1.00  0.00     0.177 HD
HETATM    6  N9  UNL     1      -6.704  16.063 -16.898  1.00  0.00    -0.216 N 
HETATM    7  C27 UNL     1      -6.548  14.643 -17.020  1.00  0.00     0.143 C 
HETATM    8  C28 UNL     1      -5.652  14.007 -16.009  1.00  0.00     0.039 C 
HETATM    9  C29 UNL     1      -4.335  14.698 -15.972  1.00  0.00     0.116 C 
HETATM   10  N10 UNL     1      -4.095  15.396 -17.187  1.00  0.00    -0.412 N 
ATOM     11  H10 UNL     1      -3.760  14.931 -18.031  1.00  0.00     0.154 HD
HETATM   12  C30 UNL     1      -4.360  16.798 -17.136  1.00  0.00     0.035 C 
HETATM   13  C31 UNL     1      -3.399  17.427 -16.137  1.00  0.00     0.039 C 
HETATM   14  C32 UNL     1      -4.059  17.420 -18.490  1.00  0.00     0.039 C 
HETATM   15  C33 UNL     1      -5.765  17.116 -16.674  1.00  0.00     0.171 C 
ENDROOT
BRANCH   1  16
HETATM   16  C15 UNL     1      -8.175  17.382 -19.334  1.00  0.00     0.178 C 
BRANCH  16  17
HETATM   17  C14 UNL     1      -9.006  18.598 -19.350  1.00  0.00    -0.020 A 
HETATM   18  C13 UNL     1      -9.897  18.954 -20.368  1.00  0.00     0.107 A 
HETATM   19  N4  UNL     1     -10.497  20.117 -20.050  1.00  0.00    -0.316 N 
HETATM   20  C12 UNL     1     -11.397  21.018 -20.488  1.00  0.00     0.123 A 
HETATM   21  C35 UNL     1     -10.036  20.542 -18.860  1.00  0.00     0.114 A 
HETATM   22  C2  UNL     1     -11.502  22.028 -19.554  1.00  0.00     0.030 A 
HETATM   23  N1  UNL     1     -10.651  21.705 -18.565  1.00  0.00    -0.339 N 
HETATM   24  C1  UNL     1     -10.424  22.482 -17.362  1.00  0.00     0.158 C 
HETATM   25  C34 UNL     1      -9.108  19.604 -18.414  1.00  0.00     0.059 A 
BRANCH  22  26
HETATM   26  C3  UNL     1     -12.397  23.241 -19.640  1.00  0.00     0.086 C 
BRANCH  26  27
HETATM   27  C4  UNL     1     -13.659  22.812 -20.340  1.00  0.00     0.243 C 
BRANCH  27  28
HETATM   28  N2  UNL     1     -14.814  23.582 -20.013  1.00  0.00    -0.062 N 
HETATM   29  C5  UNL     1     -14.352  24.943 -19.695  1.00  0.00     0.265 C 
HETATM   30  C6  UNL     1     -15.447  25.621 -18.935  1.00  0.00     0.265 C 
HETATM   31  N3  UNL     1     -16.721  25.096 -19.432  1.00  0.00    -0.066 N 
HETATM   32  C7  UNL     1     -17.819  25.934 -19.045  1.00  0.00     0.272 C 
HETATM   33  C8  UNL     1     -16.918  23.772 -18.863  1.00  0.00     0.265 C 
HETATM   34  C10 UNL     1     -16.616  24.936 -20.869  1.00  0.00     0.265 C 
HETATM   35  C9  UNL     1     -15.554  23.076 -18.900  1.00  0.00     0.265 C 
HETATM   36  C11 UNL     1     -15.721  23.739 -21.147  1.00  0.00     0.265 C 
ENDBRANCH  27  28
ENDBRANCH  26  27
ENDBRANCH  22  26
ENDBRANCH  16  17
ENDBRANCH   1  16
BRANCH   4  37
HETATM   37  C17 UNL     1      -8.216  17.036 -14.683  1.00  0.00     0.138 C 
BRANCH  37  38
HETATM   38  C18 UNL     1      -8.959  16.012 -13.812  1.00  0.00     0.020 C 
BRANCH  38  39
HETATM   39  C19 UNL     1     -10.415  16.423 -13.800  1.00  0.00     0.002 C 
BRANCH  39  40
HETATM   40  C20 UNL     1     -10.618  17.668 -13.007  1.00  0.00     0.002 C 
BRANCH  40  41
HETATM   41  C21 UNL     1     -11.671  18.601 -13.556  1.00  0.00     0.020 C 
BRANCH  41  42
HETATM   42  C22 UNL     1     -11.121  19.295 -14.758  1.00  0.00     0.137 C 
BRANCH  42  43
HETATM   43  N7  UNL     1     -12.043  19.392 -15.855  1.00  0.00    -0.270 N 
HETATM   44  C23 UNL     1     -12.177  18.463 -16.916  1.00  0.00     0.229 C 
HETATM   45  O1  UNL     1     -11.522  17.380 -16.829  1.00  0.00    -0.273 OA
HETATM   46  C24 UNL     1     -13.020  18.665 -18.109  1.00  0.00     0.123 C 
HETATM   47  C25 UNL     1     -14.072  19.708 -17.975  1.00  0.00     0.133 C 
HETATM   48  N8  UNL     1     -13.857  20.681 -16.952  1.00  0.00    -0.342 N 
HETATM   49  C26 UNL     1     -12.924  20.534 -15.894  1.00  0.00     0.325 C 
ATOM     50  H8  UNL     1     -14.410  21.538 -16.985  1.00  0.00     0.164 HD
HETATM   51  O2  UNL     1     -12.858  21.390 -14.990  1.00  0.00    -0.247 OA
ENDBRANCH  42  43
ENDBRANCH  41  42
ENDBRANCH  40  41
ENDBRANCH  39  40
ENDBRANCH  38  39
ENDBRANCH  37  38
ENDBRANCH   4  37
TORSDOF 12
ENDMDL
MODEL 3
REMARK VINA RESULT: -8.702577359      1.135      1.349
REMARK  12 active torsions:
REMARK  status: ('A' for Active; 'I' for Inactive)
REMARK    1  A    between atoms: C2_3  and  C3_4 
REMARK    2  A    between atoms: C3_4  and  C4_5 
REMARK    3  A    between atoms: C4_5  and  N2_6 
REMARK    4  A    between atoms: C14_18  and  C15_19 
REMARK    5  A    between atoms: C15_19  and  N5_20 
REMARK       I    between atoms: N5_20  and  C16_22 
REMARK       I    between atoms: C16_22  and  N9_40 
REMARK    6  A    between atoms: N6_23  and  C17_25 
REMARK    7  A    between atoms: C17_25  and  C18_26 
REMARK    8  A    between atoms: C18_26  and  C19_27 
REMARK    9  A    between atoms: C19_27  and  C20_28 
REMARK   10  A    between atoms: C20_28  and  C21_29 
REMARK   11  A    between atoms: C21_29  and  C22_30 
REMARK   12  A    between atoms: C22_30  and  N7_31 
ROOT
HETATM    1  N5  UNL     1      -8.665  16.269 -18.167  1.00  0.00    -0.222 N 
ATOM      2  H5  UNL     1      -9.365  15.548 -18.341  1.00  0.00     0.178 HD
HETATM    3  C16 UNL     1      -8.115  16.425 -16.871  1.00  0.00     0.672 C 
HETATM    4  N6  UNL     1      -8.765  16.945 -15.883  1.00  0.00    -0.226 N 
ATOM      5  H6  UNL     1      -9.721  17.258 -16.049  1.00  0.00     0.177 HD
HETATM    6  N9  UNL     1      -6.756  15.953 -16.726  1.00  0.00    -0.216 N 
HETATM    7  C27 UNL     1      -6.626  14.526 -16.748  1.00  0.00     0.143 C 
HETATM    8  C28 UNL     1      -5.728  13.948 -15.705  1.00  0.00     0.039 C 
HETATM    9  C29 UNL     1      -4.399  14.616 -15.734  1.00  0.00     0.116 C 
HETATM   10  N10 UNL     1      -4.164  15.222 -16.998  1.00  0.00    -0.412 N 
ATOM     11  H10 UNL     1      -3.847  14.692 -17.810  1.00  0.00     0.154 HD
HETATM   12  C30 UNL     1      -4.403  16.628 -17.044  1.00  0.00     0.035 C 
HETATM   13  C31 UNL     1      -3.420  17.309 -16.103  1.00  0.00     0.039 C 
HETATM   14  C32 UNL     1      -4.110  17.147 -18.442  1.00  0.00     0.039 C 
HETATM   15  C33 UNL     1      -5.797  17.003 -16.588  1.00  0.00     0.171 C 
ENDROOT
BRANCH   1  16
HETATM   16  C15 UNL     1      -8.237  17.122 -19.232  1.00  0.00     0.178 C 
BRANCH  16  17
HETATM   17  C14 UNL     1      -8.991  18.387 -19.270  1.00  0.00    -0.020 A 
HETATM   18  C13 UNL     1      -9.683  18.881 -20.381  1.00  0.00     0.107 A 
HETATM   19  N4  UNL     1     -10.267  20.052 -20.060  1.00  0.00    -0.316 N 
HETATM   20  C12 UNL     1     -11.036  21.041 -20.553  1.00  0.00     0.123 A 
HETATM   21  C35 UNL     1      -9.988  20.348 -18.779  1.00  0.00     0.114 A 
HETATM   22  C2  UNL     1     -11.242  21.977 -19.561  1.00  0.00     0.030 A 
HETATM   23  N1  UNL     1     -10.582  21.521 -18.482  1.00  0.00    -0.339 N 
HETATM   24  C1  UNL     1     -10.517  22.182 -17.193  1.00  0.00     0.158 C 
HETATM   25  C34 UNL     1      -9.194  19.319 -18.276  1.00  0.00     0.059 A 
BRANCH  22  26
HETATM   26  C3  UNL     1     -12.047  23.249 -19.679  1.00  0.00     0.086 C 
BRANCH  26  27
HETATM   27  C4  UNL     1     -13.197  22.960 -20.608  1.00  0.00     0.243 C 
BRANCH  27  28
HETATM   28  N2  UNL     1     -14.428  23.582 -20.244  1.00  0.00    -0.062 N 
HETATM   29  C5  UNL     1     -14.121  24.978 -19.894  1.00  0.00     0.265 C 
HETATM   30  C6  UNL     1     -15.275  25.505 -19.102  1.00  0.00     0.265 C 
HETATM   31  N3  UNL     1     -16.487  24.848 -19.596  1.00  0.00    -0.066 N 
HETATM   32  C7  UNL     1     -17.668  25.543 -19.172  1.00  0.00     0.272 C 
HETATM   33  C8  UNL     1     -16.520  23.496 -19.061  1.00  0.00     0.265 C 
HETATM   34  C10 UNL     1     -16.388  24.739 -21.039  1.00  0.00     0.265 C 
HETATM   35  C9  UNL     1     -15.086  22.965 -19.136  1.00  0.00     0.265 C 
HETATM   36  C11 UNL     1     -15.365  23.662 -21.361  1.00  0.00     0.265 C 
ENDBRANCH  27  28
ENDBRANCH  26  27
ENDBRANCH  22  26
ENDBRANCH  16  17
ENDBRANCH   1  16
BRANCH   4  37
HETATM   37  C17 UNL     1      -8.222  17.107 -14.567  1.00  0.00     0.138 C 
BRANCH  37  38
HETATM   38  C18 UNL     1      -9.347  17.588 -13.639  1.00  0.00     0.020 C 
BRANCH  38  39
HETATM   39  C19 UNL     1     -10.575  16.772 -13.979  1.00  0.00     0.002 C 
BRANCH  39  40
HETATM   40  C20 UNL     1     -11.798  17.622 -14.004  1.00  0.00     0.002 C 
BRANCH  40  41
HETATM   41  C21 UNL     1     -12.447  17.753 -15.361  1.00  0.00     0.020 C 
BRANCH  41  42
HETATM   42  C22 UNL     1     -12.190  19.127 -15.889  1.00  0.00     0.137 C 
BRANCH  42  43
HETATM   43  N7  UNL     1     -13.268  20.051 -15.673  1.00  0.00    -0.270 N 
HETATM   44  C23 UNL     1     -13.411  20.921 -14.565  1.00  0.00     0.229 C 
HETATM   45  O1  UNL     1     -12.439  20.994 -13.752  1.00  0.00    -0.273 OA
HETATM   46  C24 UNL     1     -14.603  21.745 -14.290  1.00  0.00     0.123 C 
HETATM   47  C25 UNL     1     -15.508  21.960 -15.451  1.00  0.00     0.133 C 
HETATM   48  N8  UNL     1     -15.398  21.009 -16.510  1.00  0.00    -0.342 N 
HETATM   49  C26 UNL     1     -14.310  20.113 -16.669  1.00  0.00     0.325 C 
ATOM     50  H8  UNL     1     -16.152  20.971 -17.197  1.00  0.00     0.164 HD
HETATM   51  O2  UNL     1     -14.245  19.374 -17.671  1.00  0.00    -0.247 OA
ENDBRANCH  42  43
ENDBRANCH  41  42
ENDBRANCH  40  41
ENDBRANCH  39  40
ENDBRANCH  38  39
ENDBRANCH  37  38
ENDBRANCH   4  37
TORSDOF 12
ENDMDL
MODEL 4
REMARK VINA RESULT: -8.520745378      1.208      1.755
REMARK  12 active torsions:
REMARK  status: ('A' for Active; 'I' for Inactive)
REMARK    1  A    between atoms: C2_3  and  C3_4 
REMARK    2  A    between atoms: C3_4  and  C4_5 
REMARK    3  A    between atoms: C4_5  and  N2_6 
REMARK    4  A    between atoms: C14_18  and  C15_19 
REMARK    5  A    between atoms: C15_19  and  N5_20 
REMARK       I    between atoms: N5_20  and  C16_22 
REMARK       I    between atoms: C16_22  and  N9_40 
REMARK    6  A    between atoms: N6_23  and  C17_25 
REMARK    7  A    between atoms: C17_25  and  C18_26 
REMARK    8  A    between atoms: C18_26  and  C19_27 
REMARK    9  A    between atoms: C19_27  and  C20_28 
REMARK   10  A    between atoms: C20_28  and  C21_29 
REMARK   11  A    between atoms: C21_29  and  C22_30 
REMARK   12  A    between atoms: C22_30  and  N7_31 
ROOT
HETATM    1  N5  UNL     1      -8.630  16.354 -18.226  1.00  0.00    -0.222 N 
ATOM      2  H5  UNL     1      -9.335  15.645 -18.428  1.00  0.00     0.178 HD
HETATM    3  C16 UNL     1      -8.085  16.461 -16.923  1.00  0.00     0.672 C 
HETATM    4  N6  UNL     1      -8.735  16.951 -15.921  1.00  0.00    -0.226 N 
ATOM      5  H6  UNL     1      -9.688  17.278 -16.080  1.00  0.00     0.177 HD
HETATM    6  N9  UNL     1      -6.730  15.974 -16.789  1.00  0.00    -0.216 N 
HETATM    7  C27 UNL     1      -6.611  14.548 -16.860  1.00  0.00     0.143 C 
HETATM    8  C28 UNL     1      -5.722  13.927 -15.834  1.00  0.00     0.039 C 
HETATM    9  C29 UNL     1      -4.388  14.585 -15.834  1.00  0.00     0.116 C 
HETATM   10  N10 UNL     1      -4.142  15.233 -17.075  1.00  0.00    -0.412 N 
ATOM     11  H10 UNL     1      -3.826  14.729 -17.904  1.00  0.00     0.154 HD
HETATM   12  C30 UNL     1      -4.371  16.642 -17.073  1.00  0.00     0.035 C 
HETATM   13  C31 UNL     1      -3.387  17.282 -16.105  1.00  0.00     0.039 C 
HETATM   14  C32 UNL     1      -4.068  17.207 -18.451  1.00  0.00     0.039 C 
HETATM   15  C33 UNL     1      -5.764  17.011 -16.611  1.00  0.00     0.171 C 
ENDROOT
BRANCH   1  16
HETATM   16  C15 UNL     1      -8.191  17.241 -19.259  1.00  0.00     0.178 C 
BRANCH  16  17
HETATM   17  C14 UNL     1      -8.979  18.485 -19.299  1.00  0.00    -0.020 A 
HETATM   18  C13 UNL     1      -9.779  18.900 -20.370  1.00  0.00     0.107 A 
HETATM   19  N4  UNL     1     -10.364  20.073 -20.062  1.00  0.00    -0.316 N 
HETATM   20  C12 UNL     1     -11.200  21.016 -20.538  1.00  0.00     0.123 A 
HETATM   21  C35 UNL     1      -9.982  20.448 -18.829  1.00  0.00     0.114 A 
HETATM   22  C2  UNL     1     -11.343  22.002 -19.584  1.00  0.00     0.030 A 
HETATM   23  N1  UNL     1     -10.580  21.622 -18.544  1.00  0.00    -0.339 N 
HETATM   24  C1  UNL     1     -10.420  22.356 -17.305  1.00  0.00     0.158 C 
HETATM   25  C34 UNL     1      -9.120  19.467 -18.343  1.00  0.00     0.059 A 
BRANCH  22  26
HETATM   26  C3  UNL     1     -12.190  23.247 -19.699  1.00  0.00     0.086 C 
BRANCH  26  27
HETATM   27  C4  UNL     1     -13.410  22.880 -20.502  1.00  0.00     0.243 C 
BRANCH  27  28
HETATM   28  N2  UNL     1     -14.596  23.585 -20.140  1.00  0.00    -0.062 N 
HETATM   29  C5  UNL     1     -14.197  24.961 -19.807  1.00  0.00     0.265 C 
HETATM   30  C6  UNL     1     -15.310  25.571 -19.016  1.00  0.00     0.265 C 
HETATM   31  N3  UNL     1     -16.565  24.990 -19.498  1.00  0.00    -0.066 N 
HETATM   32  C7  UNL     1     -17.696  25.765 -19.077  1.00  0.00     0.272 C 
HETATM   33  C8  UNL     1     -16.683  23.649 -18.948  1.00  0.00     0.265 C 
HETATM   34  C10 UNL     1     -16.480  24.859 -20.940  1.00  0.00     0.265 C 
HETATM   35  C9  UNL     1     -15.288  23.024 -19.023  1.00  0.00     0.265 C 
HETATM   36  C11 UNL     1     -15.531  23.713 -21.254  1.00  0.00     0.265 C 
ENDBRANCH  27  28
ENDBRANCH  26  27
ENDBRANCH  22  26
ENDBRANCH  16  17
ENDBRANCH   1  16
BRANCH   4  37
HETATM   37  C17 UNL     1      -8.198  17.064 -14.598  1.00  0.00     0.138 C 
BRANCH  37  38
HETATM   38  C18 UNL     1      -9.232  16.507 -13.609  1.00  0.00     0.020 C 
BRANCH  38  39
HETATM   39  C19 UNL     1     -10.284  17.578 -13.425  1.00  0.00     0.002 C 
BRANCH  39  40
HETATM   40  C20 UNL     1     -11.634  17.082 -13.817  1.00  0.00     0.002 C 
BRANCH  40  41
HETATM   41  C21 UNL     1     -12.351  17.940 -14.832  1.00  0.00     0.020 C 
BRANCH  41  42
HETATM   42  C22 UNL     1     -11.747  19.306 -14.822  1.00  0.00     0.137 C 
BRANCH  42  43
HETATM   43  N7  UNL     1     -12.698  20.368 -14.645  1.00  0.00    -0.270 N 
HETATM   44  C23 UNL     1     -13.381  21.055 -15.679  1.00  0.00     0.229 C 
HETATM   45  O1  UNL     1     -13.249  20.611 -16.860  1.00  0.00    -0.273 OA
HETATM   46  C24 UNL     1     -14.231  22.243 -15.480  1.00  0.00     0.123 C 
HETATM   47  C25 UNL     1     -14.699  22.463 -14.085  1.00  0.00     0.133 C 
HETATM   48  N8  UNL     1     -13.931  21.828 -13.063  1.00  0.00    -0.342 N 
HETATM   49  C26 UNL     1     -12.998  20.785 -13.298  1.00  0.00     0.325 C 
ATOM     50  H8  UNL     1     -14.061  22.145 -12.102  1.00  0.00     0.164 HD
HETATM   51  O2  UNL     1     -12.432  20.222 -12.341  1.00  0.00    -0.247 OA
ENDBRANCH  42  43
ENDBRANCH  41  42
ENDBRANCH  40  41
ENDBRANCH  39  40
ENDBRANCH  38  39
ENDBRANCH  37  38
ENDBRANCH   4  37
TORSDOF 12
ENDMDL
MODEL 5
REMARK VINA RESULT: -8.475995141      1.630      2.422
REMARK  12 active torsions:
REMARK  status: ('A' for Active; 'I' for Inactive)
REMARK    1  A    between atoms: C2_3  and  C3_4 
REMARK    2  A    between atoms: C3_4  and  C4_5 
REMARK    3  A    between atoms: C4_5  and  N2_6 
REMARK    4  A    between atoms: C14_18  and  C15_19 
REMARK    5  A    between atoms: C15_19  and  N5_20 
REMARK       I    between atoms: N5_20  and  C16_22 
REMARK       I    between atoms: C16_22  and  N9_40 
REMARK    6  A    between atoms: N6_23  and  C17_25 
REMARK    7  A    between atoms: C17_25  and  C18_26 
REMARK    8  A    between atoms: C18_26  and  C19_27 
REMARK    9  A    between atoms: C19_27  and  C20_28 
REMARK   10  A    between atoms: C20_28  and  C21_29 
REMARK   11  A    between atoms: C21_29  and  C22_30 
REMARK   12  A    between atoms: C22_30  and  N7_31 
ROOT
HETATM    1  N5  UNL     1      -8.275  15.714 -18.188  1.00  0.00    -0.222 N 
ATOM      2  H5  UNL     1      -8.809  14.851 -18.291  1.00  0.00     0.178 HD
HETATM    3  C16 UNL     1      -7.712  16.054 -16.934  1.00  0.00     0.672 C 
HETATM    4  N6  UNL     1      -8.412  16.473 -15.933  1.00  0.00    -0.226 N 
ATOM      5  H6  UNL     1      -9.420  16.564 -16.056  1.00  0.00     0.177 HD
HETATM    6  N9  UNL     1      -6.278  15.894 -16.848  1.00  0.00    -0.216 N 
HETATM    7  C27 UNL     1      -5.842  14.529 -16.818  1.00  0.00     0.143 C 
HETATM    8  C28 UNL     1      -4.791  14.214 -15.805  1.00  0.00     0.039 C 
HETATM    9  C29 UNL     1      -3.642  15.151 -15.938  1.00  0.00     0.116 C 
HETATM   10  N10 UNL     1      -3.604  15.724 -17.238  1.00  0.00    -0.412 N 
ATOM     11  H10 UNL     1      -3.218  15.233 -18.044  1.00  0.00     0.154 HD
HETATM   12  C30 UNL     1      -4.146  17.042 -17.328  1.00  0.00     0.035 C 
HETATM   13  C31 UNL     1      -3.291  17.967 -16.475  1.00  0.00     0.039 C 
HETATM   14  C32 UNL     1      -4.040  17.536 -18.762  1.00  0.00     0.039 C 
HETATM   15  C33 UNL     1      -5.565  17.131 -16.809  1.00  0.00     0.171 C 
ENDROOT
BRANCH   1  16
HETATM   16  C15 UNL     1      -8.094  16.582 -19.311  1.00  0.00     0.178 C 
BRANCH  16  17
HETATM   17  C14 UNL     1      -8.915  17.801 -19.211  1.00  0.00    -0.020 A 
HETATM   18  C13 UNL     1      -8.465  19.100 -19.471  1.00  0.00     0.107 A 
HETATM   19  N4  UNL     1      -9.480  19.968 -19.295  1.00  0.00    -0.316 N 
HETATM   20  C12 UNL     1      -9.801  21.275 -19.352  1.00  0.00     0.123 A 
HETATM   21  C35 UNL     1     -10.583  19.291 -18.930  1.00  0.00     0.114 A 
HETATM   22  C2  UNL     1     -11.130  21.419 -19.015  1.00  0.00     0.030 A 
HETATM   23  N1  UNL     1     -11.582  20.179 -18.760  1.00  0.00    -0.339 N 
HETATM   24  C1  UNL     1     -12.935  19.841 -18.364  1.00  0.00     0.158 C 
HETATM   25  C34 UNL     1     -10.243  17.941 -18.874  1.00  0.00     0.059 A 
BRANCH  22  26
HETATM   26  C3  UNL     1     -11.905  22.714 -18.952  1.00  0.00     0.086 C 
BRANCH  26  27
HETATM   27  C4  UNL     1     -12.672  22.834 -20.242  1.00  0.00     0.243 C 
BRANCH  27  28
HETATM   28  N2  UNL     1     -13.930  23.497 -20.129  1.00  0.00    -0.062 N 
HETATM   29  C5  UNL     1     -14.644  22.882 -18.999  1.00  0.00     0.265 C 
HETATM   30  C6  UNL     1     -16.091  23.231 -19.140  1.00  0.00     0.265 C 
HETATM   31  N3  UNL     1     -16.168  24.555 -19.761  1.00  0.00    -0.066 N 
HETATM   32  C7  UNL     1     -17.471  25.133 -19.599  1.00  0.00     0.272 C 
HETATM   33  C8  UNL     1     -15.893  24.406 -21.181  1.00  0.00     0.265 C 
HETATM   34  C10 UNL     1     -15.115  25.380 -19.201  1.00  0.00     0.265 C 
HETATM   35  C9  UNL     1     -14.747  23.397 -21.297  1.00  0.00     0.265 C 
HETATM   36  C11 UNL     1     -13.789  24.906 -19.775  1.00  0.00     0.265 C 
ENDBRANCH  27  28
ENDBRANCH  26  27
ENDBRANCH  22  26
ENDBRANCH  16  17
ENDBRANCH   1  16
BRANCH   4  37
HETATM   37  C17 UNL     1      -7.857  16.819 -14.659  1.00  0.00     0.138 C 
BRANCH  37  38
HETATM   38  C18 UNL     1      -8.421  18.185 -14.242  1.00  0.00     0.020 C 
BRANCH  38  39
HETATM   39  C19 UNL     1      -9.637  18.439 -15.106  1.00  0.00     0.002 C 
BRANCH  39  40
HETATM   40  C20 UNL     1     -10.855  18.651 -14.274  1.00  0.00     0.002 C 
BRANCH  40  41
HETATM   41  C21 UNL     1     -11.872  19.593 -14.873  1.00  0.00     0.020 C 
BRANCH  41  42
HETATM   42  C22 UNL     1     -13.169  19.426 -14.151  1.00  0.00     0.137 C 
BRANCH  42  43
HETATM   43  N7  UNL     1     -14.084  20.519 -14.325  1.00  0.00    -0.270 N 
HETATM   44  C23 UNL     1     -15.176  20.555 -15.226  1.00  0.00     0.229 C 
HETATM   45  O1  UNL     1     -15.459  19.483 -15.842  1.00  0.00    -0.273 OA
HETATM   46  C24 UNL     1     -16.004  21.745 -15.497  1.00  0.00     0.123 C 
HETATM   47  C25 UNL     1     -15.925  22.821 -14.472  1.00  0.00     0.133 C 
HETATM   48  N8  UNL     1     -14.764  22.805 -13.641  1.00  0.00    -0.342 N 
HETATM   49  C26 UNL     1     -13.889  21.696 -13.514  1.00  0.00     0.325 C 
ATOM     50  H8  UNL     1     -14.549  23.646 -13.105  1.00  0.00     0.164 HD
HETATM   51  O2  UNL     1     -12.946  21.729 -12.699  1.00  0.00    -0.247 OA
ENDBRANCH  42  43
ENDBRANCH  41  42
ENDBRANCH  40  41
ENDBRANCH  39  40
ENDBRANCH  38  39
ENDBRANCH  37  38
ENDBRANCH   4  37
TORSDOF 12
ENDMDL
