MODEL 1
REMARK VINA RESULT: -9.100344139      0.000      0.000
REMARK  11 active torsions:
REMARK  status: ('A' for Active; 'I' for Inactive)
REMARK    1  A    between atoms: C2_2  and  N1_3 
REMARK    2  A    between atoms: C2_2  and  C23_34 
REMARK       I    between atoms: N1_3  and  C3_5 
REMARK    3  A    between atoms: C3_5  and  C4_7 
REMARK    4  A    between atoms: C4_7  and  C5_8 
REMARK    5  A    between atoms: C4_7  and  N2_15 
REMARK    6  A    between atoms: C5_8  and  C6_9 
REMARK       I    between atoms: N2_15  and  C12_17 
REMARK    7  A    between atoms: C12_17  and  C13_19 
REMARK    8  A    between atoms: C13_19  and  N3_20 
REMARK    9  A    between atoms: C13_19  and  C19_30 
REMARK       I    between atoms: N3_20  and  C14_22 
REMARK       I    between atoms: C14_22  and  N4_24 
REMARK       I    between atoms: C23_34  and  N5_36 
REMARK   10  A    between atoms: C26_39  and  C27_40 
REMARK   11  A    between atoms: C27_40  and  N6_41 
ROOT
HETATM    1  C4  UNL     1      -8.962 -17.511  17.971  1.00  0.00     0.177 C 
ENDROOT
BRANCH   1   2
HETATM    2  C3  UNL     1      -9.414 -18.833  18.389  1.00  0.00     0.241 C 
HETATM    3  N1  UNL     1     -10.768 -19.123  18.572  1.00  0.00    -0.346 N 
ATOM      4  H1  UNL     1     -11.430 -18.364  18.409  1.00  0.00     0.163 HD
HETATM    5  O1  UNL     1      -8.577 -19.746  18.597  1.00  0.00    -0.271 OA
BRANCH   3   6
HETATM    6  C2  UNL     1     -11.325 -20.416  18.976  1.00  0.00     0.172 C 
HETATM    7  C1  UNL     1     -11.312 -20.393  20.505  1.00  0.00     0.042 C 
BRANCH   6   8
HETATM    8  C23 UNL     1     -12.760 -20.497  18.598  1.00  0.00     0.242 C 
HETATM    9  O5  UNL     1     -13.526 -19.501  18.632  1.00  0.00    -0.271 OA
HETATM   10  N5  UNL     1     -13.310 -21.723  18.181  1.00  0.00    -0.350 N 
HETATM   11  C24 UNL     1     -12.543 -22.916  18.057  1.00  0.00     0.126 C 
HETATM   12  C31 UNL     1     -14.742 -21.829  17.850  1.00  0.00     0.126 C 
HETATM   13  C25 UNL     1     -13.107 -24.008  18.936  1.00  0.00     0.026 C 
HETATM   14  C26 UNL     1     -14.581 -24.186  18.658  1.00  0.00     0.017 C 
HETATM   15  C30 UNL     1     -15.340 -22.883  18.747  1.00  0.00     0.026 C 
BRANCH  14  16
HETATM   16  C27 UNL     1     -15.143 -25.110  19.715  1.00  0.00     0.276 C 
BRANCH  16  17
HETATM   17  N6  UNL     1     -16.585 -25.101  19.758  1.00  0.00     0.080 N 
HETATM   18  C28 UNL     1     -16.984 -25.524  21.098  1.00  0.00     0.309 C 
HETATM   19  C29 UNL     1     -17.099 -25.983  18.748  1.00  0.00     0.309 C 
ENDBRANCH  16  17
ENDBRANCH  14  16
ENDBRANCH   6   8
ENDBRANCH   3   6
ENDBRANCH   1   2
BRANCH   1  20
HETATM   20  C5  UNL     1      -9.399 -17.065  16.598  1.00  0.00     0.039 C 
BRANCH  20  21
HETATM   21  C6  UNL     1      -8.637 -17.494  15.423  1.00  0.00    -0.012 C 
HETATM   22  C7  UNL     1      -8.971 -16.593  14.211  1.00  0.00     0.005 C 
HETATM   23  C8  UNL     1     -10.446 -16.520  13.975  1.00  0.00     0.000 C 
HETATM   24  C9  UNL     1     -11.101 -17.862  13.755  1.00  0.00     0.000 C 
HETATM   25  C10 UNL     1     -10.623 -18.894  14.743  1.00  0.00     0.000 C 
HETATM   26  C11 UNL     1      -9.149 -18.868  14.971  1.00  0.00     0.005 C 
ENDBRANCH  20  21
ENDBRANCH   1  20
BRANCH   1  27
HETATM   27  N2  UNL     1      -7.471 -17.588  17.777  1.00  0.00    -0.346 N 
HETATM   28  C12 UNL     1      -6.642 -16.618  18.364  1.00  0.00     0.242 C 
HETATM   29  O2  UNL     1      -7.227 -15.725  19.064  1.00  0.00    -0.271 OA
ATOM     30  H2  UNL     1      -7.064 -18.341  17.222  1.00  0.00     0.163 HD
BRANCH  28  31
HETATM   31  C13 UNL     1      -5.189 -16.624  18.172  1.00  0.00     0.185 C 
BRANCH  31  32
HETATM   32  N3  UNL     1      -4.745 -18.003  18.497  1.00  0.00    -0.329 N 
HETATM   33  C14 UNL     1      -4.032 -18.292  19.665  1.00  0.00     0.319 C 
HETATM   34  O3  UNL     1      -3.766 -17.347  20.461  1.00  0.00    -0.247 OA
HETATM   35  N4  UNL     1      -3.606 -19.589  19.986  1.00  0.00    -0.330 N 
HETATM   36  C15 UNL     1      -2.927 -19.845  21.247  1.00  0.00     0.153 C 
HETATM   37  C18 UNL     1      -3.835 -20.697  19.041  1.00  0.00     0.153 C 
HETATM   38  C16 UNL     1      -1.772 -20.799  21.104  1.00  0.00     0.187 C 
HETATM   39  O4  UNL     1      -1.733 -21.380  19.838  1.00  0.00    -0.388 OA
HETATM   40  C17 UNL     1      -3.014 -21.867  19.517  1.00  0.00     0.187 C 
ATOM     41  H3  UNL     1      -4.967 -18.760  17.850  1.00  0.00     0.165 HD
ENDBRANCH  31  32
BRANCH  31  42
HETATM   42  C19 UNL     1      -4.630 -16.186  16.890  1.00  0.00    -0.022 C 
HETATM   43  C20 UNL     1      -3.478 -15.207  17.225  1.00  0.00     0.017 C 
HETATM   44  C21 UNL     1      -3.989 -17.311  16.094  1.00  0.00     0.017 C 
HETATM   45  C22 UNL     1      -5.624 -15.420  16.059  1.00  0.00     0.017 C 
ENDBRANCH  31  42
ENDBRANCH  28  31
ENDBRANCH   1  27
TORSDOF 11
ENDMDL
MODEL 2
REMARK VINA RESULT: -9.058785470      3.981      7.604
REMARK  11 active torsions:
REMARK  status: ('A' for Active; 'I' for Inactive)
REMARK    1  A    between atoms: C2_2  and  N1_3 
REMARK    2  A    between atoms: C2_2  and  C23_34 
REMARK       I    between atoms: N1_3  and  C3_5 
REMARK    3  A    between atoms: C3_5  and  C4_7 
REMARK    4  A    between atoms: C4_7  and  C5_8 
REMARK    5  A    between atoms: C4_7  and  N2_15 
REMARK    6  A    between atoms: C5_8  and  C6_9 
REMARK       I    between atoms: N2_15  and  C12_17 
REMARK    7  A    between atoms: C12_17  and  C13_19 
REMARK    8  A    between atoms: C13_19  and  N3_20 
REMARK    9  A    between atoms: C13_19  and  C19_30 
REMARK       I    between atoms: N3_20  and  C14_22 
REMARK       I    between atoms: C14_22  and  N4_24 
REMARK       I    between atoms: C23_34  and  N5_36 
REMARK   10  A    between atoms: C26_39  and  C27_40 
REMARK   11  A    between atoms: C27_40  and  N6_41 
ROOT
HETATM    1  C4  UNL     1      -9.814 -20.954  18.230  1.00  0.00     0.177 C 
ENDROOT
BRANCH   1   2
HETATM    2  C3  UNL     1     -10.737 -21.788  18.991  1.00  0.00     0.241 C 
HETATM    3  N1  UNL     1     -12.073 -21.428  19.174  1.00  0.00    -0.346 N 
ATOM      4  H1  UNL     1     -12.376 -20.547  18.759  1.00  0.00     0.163 HD
HETATM    5  O1  UNL     1     -10.333 -22.862  19.504  1.00  0.00    -0.271 OA
BRANCH   3   6
HETATM    6  C2  UNL     1     -13.080 -22.199  19.907  1.00  0.00     0.172 C 
HETATM    7  C1  UNL     1     -13.168 -21.531  21.281  1.00  0.00     0.042 C 
BRANCH   6   8
HETATM    8  C23 UNL     1     -14.420 -22.007  19.293  1.00  0.00     0.242 C 
HETATM    9  O5  UNL     1     -15.019 -20.901  19.307  1.00  0.00    -0.271 OA
HETATM   10  N5  UNL     1     -15.067 -23.086  18.665  1.00  0.00    -0.350 N 
HETATM   11  C24 UNL     1     -14.482 -24.378  18.543  1.00  0.00     0.126 C 
HETATM   12  C31 UNL     1     -16.416 -22.923  18.095  1.00  0.00     0.126 C 
HETATM   13  C25 UNL     1     -15.353 -25.425  19.196  1.00  0.00     0.026 C 
HETATM   14  C26 UNL     1     -16.763 -25.329  18.664  1.00  0.00     0.017 C 
HETATM   15  C30 UNL     1     -17.318 -23.928  18.765  1.00  0.00     0.026 C 
BRANCH  14  16
HETATM   16  C27 UNL     1     -17.639 -26.225  19.511  1.00  0.00     0.276 C 
BRANCH  16  17
HETATM   17  N6  UNL     1     -18.771 -26.750  18.786  1.00  0.00     0.080 N 
HETATM   18  C28 UNL     1     -19.035 -28.092  19.301  1.00  0.00     0.309 C 
HETATM   19  C29 UNL     1     -18.471 -26.771  17.382  1.00  0.00     0.309 C 
ENDBRANCH  16  17
ENDBRANCH  14  16
ENDBRANCH   6   8
ENDBRANCH   3   6
ENDBRANCH   1   2
BRANCH   1  20
HETATM   20  C5  UNL     1      -9.156 -19.830  18.991  1.00  0.00     0.039 C 
BRANCH  20  21
HETATM   21  C6  UNL     1      -9.785 -18.507  19.013  1.00  0.00    -0.012 C 
HETATM   22  C7  UNL     1      -8.712 -17.401  18.893  1.00  0.00     0.005 C 
HETATM   23  C8  UNL     1      -7.636 -17.571  19.918  1.00  0.00     0.000 C 
HETATM   24  C9  UNL     1      -8.139 -17.581  21.341  1.00  0.00     0.000 C 
HETATM   25  C10 UNL     1      -9.368 -18.437  21.501  1.00  0.00     0.000 C 
HETATM   26  C11 UNL     1     -10.370 -18.257  20.410  1.00  0.00     0.005 C 
ENDBRANCH  20  21
ENDBRANCH   1  20
BRANCH   1  27
HETATM   27  N2  UNL     1     -10.631 -20.175  17.233  1.00  0.00    -0.346 N 
HETATM   28  C12 UNL     1     -10.742 -20.636  15.912  1.00  0.00     0.242 C 
HETATM   29  O2  UNL     1     -10.145 -21.731  15.645  1.00  0.00    -0.271 OA
ATOM     30  H2  UNL     1     -11.102 -19.315  17.517  1.00  0.00     0.163 HD
BRANCH  28  31
HETATM   31  C13 UNL     1     -11.492 -19.893  14.894  1.00  0.00     0.185 C 
BRANCH  31  32
HETATM   32  N3  UNL     1     -12.924 -20.062  15.245  1.00  0.00    -0.329 N 
HETATM   33  C14 UNL     1     -13.638 -21.214  14.896  1.00  0.00     0.319 C 
HETATM   34  O3  UNL     1     -13.036 -22.132  14.269  1.00  0.00    -0.247 OA
HETATM   35  N4  UNL     1     -14.991 -21.389  15.220  1.00  0.00    -0.330 N 
HETATM   36  C15 UNL     1     -15.666 -22.635  14.893  1.00  0.00     0.153 C 
HETATM   37  C18 UNL     1     -15.737 -20.305  15.883  1.00  0.00     0.153 C 
HETATM   38  C16 UNL     1     -17.062 -22.422  14.372  1.00  0.00     0.187 C 
HETATM   39  O4  UNL     1     -17.470 -21.096  14.509  1.00  0.00    -0.388 OA
HETATM   40  C17 UNL     1     -17.199 -20.665  15.820  1.00  0.00     0.187 C 
ATOM     41  H3  UNL     1     -13.400 -19.318  15.754  1.00  0.00     0.165 HD
ENDBRANCH  31  32
BRANCH  31  42
HETATM   42  C19 UNL     1     -11.177 -18.482  14.655  1.00  0.00    -0.022 C 
HETATM   43  C20 UNL     1     -11.654 -18.163  13.218  1.00  0.00     0.017 C 
HETATM   44  C21 UNL     1     -11.943 -17.531  15.559  1.00  0.00     0.017 C 
HETATM   45  C22 UNL     1      -9.697 -18.207  14.693  1.00  0.00     0.017 C 
ENDBRANCH  31  42
ENDBRANCH  28  31
ENDBRANCH   1  27
TORSDOF 11
ENDMDL
MODEL 3
REMARK VINA RESULT: -8.974211459      3.029      8.865
REMARK  11 active torsions:
REMARK  status: ('A' for Active; 'I' for Inactive)
REMARK    1  A    between atoms: C2_2  and  N1_3 
REMARK    2  A    between atoms: C2_2  and  C23_34 
REMARK       I    between atoms: N1_3  and  C3_5 
REMARK    3  A    between atoms: C3_5  and  C4_7 
REMARK    4  A    between atoms: C4_7  and  C5_8 
REMARK    5  A    between atoms: C4_7  and  N2_15 
REMARK    6  A    between atoms: C5_8  and  C6_9 
REMARK       I    between atoms: N2_15  and  C12_17 
REMARK    7  A    between atoms: C12_17  and  C13_19 
REMARK    8  A    between atoms: C13_19  and  N3_20 
REMARK    9  A    between atoms: C13_19  and  C19_30 
REMARK       I    between atoms: N3_20  and  C14_22 
REMARK       I    between atoms: C14_22  and  N4_24 
REMARK       I    between atoms: C23_34  and  N5_36 
REMARK   10  A    between atoms: C26_39  and  C27_40 
REMARK   11  A    between atoms: C27_40  and  N6_41 
ROOT
HETATM    1  C4  UNL     1     -12.653 -22.111  16.148  1.00  0.00     0.177 C 
ENDROOT
BRANCH   1   2
HETATM    2  C3  UNL     1     -11.747 -21.123  15.573  1.00  0.00     0.241 C 
HETATM    3  N1  UNL     1     -12.220 -20.030  14.843  1.00  0.00    -0.346 N 
ATOM      4  H1  UNL     1     -13.229 -19.957  14.721  1.00  0.00     0.163 HD
HETATM    5  O1  UNL     1     -10.506 -21.245  15.727  1.00  0.00    -0.271 OA
BRANCH   3   6
HETATM    6  C2  UNL     1     -11.398 -18.980  14.238  1.00  0.00     0.172 C 
HETATM    7  C1  UNL     1     -12.274 -18.375  13.139  1.00  0.00     0.042 C 
BRANCH   6   8
HETATM    8  C23 UNL     1     -11.175 -17.879  15.211  1.00  0.00     0.242 C 
HETATM    9  O5  UNL     1     -12.068 -17.043  15.503  1.00  0.00    -0.271 OA
HETATM   10  N5  UNL     1      -9.928 -17.742  15.846  1.00  0.00    -0.350 N 
HETATM   11  C24 UNL     1      -8.847 -18.646  15.638  1.00  0.00     0.126 C 
HETATM   12  C31 UNL     1      -9.677 -16.627  16.777  1.00  0.00     0.126 C 
HETATM   13  C25 UNL     1      -7.632 -17.916  15.115  1.00  0.00     0.026 C 
HETATM   14  C26 UNL     1      -7.302 -16.750  16.017  1.00  0.00     0.017 C 
HETATM   15  C30 UNL     1      -8.494 -15.853  16.252  1.00  0.00     0.026 C 
BRANCH  14  16
HETATM   16  C27 UNL     1      -6.240 -15.920  15.331  1.00  0.00     0.276 C 
BRANCH  16  17
HETATM   17  N6  UNL     1      -4.915 -16.171  15.844  1.00  0.00     0.080 N 
HETATM   18  C28 UNL     1      -5.056 -16.559  17.245  1.00  0.00     0.309 C 
HETATM   19  C29 UNL     1      -4.114 -14.988  15.698  1.00  0.00     0.309 C 
ENDBRANCH  16  17
ENDBRANCH  14  16
ENDBRANCH   6   8
ENDBRANCH   3   6
ENDBRANCH   1   2
BRANCH   1  20
HETATM   20  C5  UNL     1     -14.119 -21.920  15.848  1.00  0.00     0.039 C 
BRANCH  20  21
HETATM   21  C6  UNL     1     -15.032 -21.530  16.926  1.00  0.00    -0.012 C 
HETATM   22  C7  UNL     1     -16.268 -22.459  16.943  1.00  0.00     0.005 C 
HETATM   23  C8  UNL     1     -16.919 -22.524  15.598  1.00  0.00     0.000 C 
HETATM   24  C9  UNL     1     -17.351 -21.182  15.058  1.00  0.00     0.000 C 
HETATM   25  C10 UNL     1     -16.291 -20.129  15.246  1.00  0.00     0.000 C 
HETATM   26  C11 UNL     1     -15.644 -20.163  16.590  1.00  0.00     0.005 C 
ENDBRANCH  20  21
ENDBRANCH   1  20
BRANCH   1  27
HETATM   27  N2  UNL     1     -12.646 -21.912  17.641  1.00  0.00    -0.346 N 
HETATM   28  C12 UNL     1     -11.930 -22.801  18.459  1.00  0.00     0.242 C 
HETATM   29  O2  UNL     1     -11.296 -23.732  17.859  1.00  0.00    -0.271 OA
ATOM     30  H2  UNL     1     -13.159 -21.133  18.056  1.00  0.00     0.163 HD
BRANCH  28  31
HETATM   31  C13 UNL     1     -11.925 -22.674  19.919  1.00  0.00     0.185 C 
BRANCH  31  32
HETATM   32  N3  UNL     1     -11.318 -21.351  20.207  1.00  0.00    -0.329 N 
HETATM   33  C14 UNL     1     -10.128 -20.937  19.596  1.00  0.00     0.319 C 
HETATM   34  O3  UNL     1      -9.567 -21.717  18.776  1.00  0.00    -0.247 OA
HETATM   35  N4  UNL     1      -9.542 -19.691  19.857  1.00  0.00    -0.330 N 
HETATM   36  C15 UNL     1      -8.341 -19.283  19.143  1.00  0.00     0.153 C 
HETATM   37  C18 UNL     1     -10.133 -18.793  20.865  1.00  0.00     0.153 C 
HETATM   38  C16 UNL     1      -7.343 -18.589  20.030  1.00  0.00     0.187 C 
HETATM   39  O4  UNL     1      -7.873 -18.311  21.289  1.00  0.00    -0.388 OA
HETATM   40  C17 UNL     1      -9.131 -17.700  21.133  1.00  0.00     0.187 C 
ATOM     41  H3  UNL     1     -11.780 -20.727  20.868  1.00  0.00     0.165 HD
ENDBRANCH  31  32
BRANCH  31  42
HETATM   42  C19 UNL     1     -13.177 -22.845  20.661  1.00  0.00    -0.022 C 
HETATM   43  C20 UNL     1     -12.795 -23.447  22.035  1.00  0.00     0.017 C 
HETATM   44  C21 UNL     1     -13.878 -21.533  20.973  1.00  0.00     0.017 C 
HETATM   45  C22 UNL     1     -14.110 -23.825  20.001  1.00  0.00     0.017 C 
ENDBRANCH  31  42
ENDBRANCH  28  31
ENDBRANCH   1  27
TORSDOF 11
ENDMDL
MODEL 4
REMARK VINA RESULT: -8.953550590      1.817      2.210
REMARK  11 active torsions:
REMARK  status: ('A' for Active; 'I' for Inactive)
REMARK    1  A    between atoms: C2_2  and  N1_3 
REMARK    2  A    between atoms: C2_2  and  C23_34 
REMARK       I    between atoms: N1_3  and  C3_5 
REMARK    3  A    between atoms: C3_5  and  C4_7 
REMARK    4  A    between atoms: C4_7  and  C5_8 
REMARK    5  A    between atoms: C4_7  and  N2_15 
REMARK    6  A    between atoms: C5_8  and  C6_9 
REMARK       I    between atoms: N2_15  and  C12_17 
REMARK    7  A    between atoms: C12_17  and  C13_19 
REMARK    8  A    between atoms: C13_19  and  N3_20 
REMARK    9  A    between atoms: C13_19  and  C19_30 
REMARK       I    between atoms: N3_20  and  C14_22 
REMARK       I    between atoms: C14_22  and  N4_24 
REMARK       I    between atoms: C23_34  and  N5_36 
REMARK   10  A    between atoms: C26_39  and  C27_40 
REMARK   11  A    between atoms: C27_40  and  N6_41 
ROOT
HETATM    1  C4  UNL     1      -9.206 -17.994  18.191  1.00  0.00     0.177 C 
ENDROOT
BRANCH   1   2
HETATM    2  C3  UNL     1      -9.495 -19.344  18.662  1.00  0.00     0.241 C 
HETATM    3  N1  UNL     1     -10.749 -19.694  19.168  1.00  0.00    -0.346 N 
ATOM      4  H1  UNL     1     -11.456 -18.959  19.202  1.00  0.00     0.163 HD
HETATM    5  O1  UNL     1      -8.602 -20.227  18.622  1.00  0.00    -0.271 OA
BRANCH   3   6
HETATM    6  C2  UNL     1     -11.143 -21.018  19.652  1.00  0.00     0.172 C 
HETATM    7  C1  UNL     1     -10.612 -21.091  21.085  1.00  0.00     0.042 C 
BRANCH   6   8
HETATM    8  C23 UNL     1     -12.622 -21.099  19.779  1.00  0.00     0.242 C 
HETATM    9  O5  UNL     1     -13.192 -21.470  20.837  1.00  0.00    -0.271 OA
HETATM   10  N5  UNL     1     -13.442 -20.752  18.690  1.00  0.00    -0.350 N 
HETATM   11  C24 UNL     1     -12.927 -20.276  17.451  1.00  0.00     0.126 C 
HETATM   12  C31 UNL     1     -14.908 -20.873  18.786  1.00  0.00     0.126 C 
HETATM   13  C25 UNL     1     -13.359 -21.170  16.313  1.00  0.00     0.026 C 
HETATM   14  C26 UNL     1     -14.858 -21.348  16.335  1.00  0.00     0.017 C 
HETATM   15  C30 UNL     1     -15.361 -21.799  17.686  1.00  0.00     0.026 C 
BRANCH  14  16
HETATM   16  C27 UNL     1     -15.212 -22.427  15.337  1.00  0.00     0.276 C 
BRANCH  16  17
HETATM   17  N6  UNL     1     -16.635 -22.619  15.199  1.00  0.00     0.080 N 
HETATM   18  C28 UNL     1     -16.845 -23.550  14.092  1.00  0.00     0.309 C 
HETATM   19  C29 UNL     1     -17.268 -21.354  14.955  1.00  0.00     0.309 C 
ENDBRANCH  16  17
ENDBRANCH  14  16
ENDBRANCH   6   8
ENDBRANCH   3   6
ENDBRANCH   1   2
BRANCH   1  20
HETATM   20  C5  UNL     1      -9.715 -17.651  16.813  1.00  0.00     0.039 C 
BRANCH  20  21
HETATM   21  C6  UNL     1      -9.136 -18.317  15.643  1.00  0.00    -0.012 C 
HETATM   22  C7  UNL     1      -8.815 -17.280  14.542  1.00  0.00     0.005 C 
HETATM   23  C8  UNL     1     -10.007 -16.436  14.223  1.00  0.00     0.000 C 
HETATM   24  C9  UNL     1     -11.219 -17.223  13.785  1.00  0.00     0.000 C 
HETATM   25  C10 UNL     1     -11.456 -18.429  14.656  1.00  0.00     0.000 C 
HETATM   26  C11 UNL     1     -10.213 -19.187  14.982  1.00  0.00     0.005 C 
ENDBRANCH  20  21
ENDBRANCH   1  20
BRANCH   1  27
HETATM   27  N2  UNL     1      -7.720 -17.905  17.970  1.00  0.00    -0.346 N 
HETATM   28  C12 UNL     1      -7.001 -16.820  18.499  1.00  0.00     0.242 C 
HETATM   29  O2  UNL     1      -7.676 -15.972  19.172  1.00  0.00    -0.271 OA
ATOM     30  H2  UNL     1      -7.236 -18.629  17.438  1.00  0.00     0.163 HD
BRANCH  28  31
HETATM   31  C13 UNL     1      -5.561 -16.665  18.277  1.00  0.00     0.185 C 
BRANCH  31  32
HETATM   32  N3  UNL     1      -4.964 -17.993  18.562  1.00  0.00    -0.329 N 
HETATM   33  C14 UNL     1      -4.205 -18.229  19.714  1.00  0.00     0.319 C 
HETATM   34  O3  UNL     1      -4.033 -17.279  20.529  1.00  0.00    -0.247 OA
HETATM   35  N4  UNL     1      -3.635 -19.479  19.998  1.00  0.00    -0.330 N 
HETATM   36  C15 UNL     1      -2.913 -19.687  21.244  1.00  0.00     0.153 C 
HETATM   37  C18 UNL     1      -3.756 -20.583  19.030  1.00  0.00     0.153 C 
HETATM   38  C16 UNL     1      -1.662 -20.504  21.063  1.00  0.00     0.187 C 
HETATM   39  O4  UNL     1      -1.580 -21.049  19.782  1.00  0.00    -0.388 OA
HETATM   40  C17 UNL     1      -2.804 -21.666  19.466  1.00  0.00     0.187 C 
ATOM     41  H3  UNL     1      -5.111 -18.756  17.901  1.00  0.00     0.165 HD
ENDBRANCH  31  32
BRANCH  31  42
HETATM   42  C19 UNL     1      -5.081 -16.143  16.994  1.00  0.00    -0.022 C 
HETATM   43  C20 UNL     1      -3.899 -15.198  17.318  1.00  0.00     0.017 C 
HETATM   44  C21 UNL     1      -4.506 -17.216  16.083  1.00  0.00     0.017 C 
HETATM   45  C22 UNL     1      -6.119 -15.316  16.284  1.00  0.00     0.017 C 
ENDBRANCH  31  42
ENDBRANCH  28  31
ENDBRANCH   1  27
TORSDOF 11
ENDMDL
MODEL 5
REMARK VINA RESULT: -8.845352890      2.293     10.731
REMARK  11 active torsions:
REMARK  status: ('A' for Active; 'I' for Inactive)
REMARK    1  A    between atoms: C2_2  and  N1_3 
REMARK    2  A    between atoms: C2_2  and  C23_34 
REMARK       I    between atoms: N1_3  and  C3_5 
REMARK    3  A    between atoms: C3_5  and  C4_7 
REMARK    4  A    between atoms: C4_7  and  C5_8 
REMARK    5  A    between atoms: C4_7  and  N2_15 
REMARK    6  A    between atoms: C5_8  and  C6_9 
REMARK       I    between atoms: N2_15  and  C12_17 
REMARK    7  A    between atoms: C12_17  and  C13_19 
REMARK    8  A    between atoms: C13_19  and  N3_20 
REMARK    9  A    between atoms: C13_19  and  C19_30 
REMARK       I    between atoms: N3_20  and  C14_22 
REMARK       I    between atoms: C14_22  and  N4_24 
REMARK       I    between atoms: C23_34  and  N5_36 
REMARK   10  A    between atoms: C26_39  and  C27_40 
REMARK   11  A    between atoms: C27_40  and  N6_41 
ROOT
HETATM    1  C4  UNL     1      -9.392 -18.956  17.330  1.00  0.00     0.177 C 
ENDROOT
BRANCH   1   2
HETATM    2  C3  UNL     1      -8.626 -18.139  18.265  1.00  0.00     0.241 C 
HETATM    3  N1  UNL     1      -7.497 -18.634  18.920  1.00  0.00    -0.346 N 
ATOM      4  H1  UNL     1      -7.233 -19.599  18.723  1.00  0.00     0.163 HD
HETATM    5  O1  UNL     1      -8.981 -16.957  18.501  1.00  0.00    -0.271 OA
BRANCH   3   6
HETATM    6  C2  UNL     1      -6.655 -17.894  19.863  1.00  0.00     0.172 C 
HETATM    7  C1  UNL     1      -7.090 -18.379  21.248  1.00  0.00     0.042 C 
BRANCH   6   8
HETATM    8  C23 UNL     1      -5.238 -18.319  19.728  1.00  0.00     0.242 C 
HETATM    9  O5  UNL     1      -4.659 -19.030  20.589  1.00  0.00    -0.271 OA
HETATM   10  N5  UNL     1      -4.489 -17.927  18.604  1.00  0.00    -0.350 N 
HETATM   11  C24 UNL     1      -5.036 -17.159  17.536  1.00  0.00     0.126 C 
HETATM   12  C31 UNL     1      -3.069 -18.301  18.479  1.00  0.00     0.126 C 
HETATM   13  C25 UNL     1      -4.267 -15.871  17.356  1.00  0.00     0.026 C 
HETATM   14  C26 UNL     1      -2.792 -16.164  17.218  1.00  0.00     0.017 C 
HETATM   15  C30 UNL     1      -2.273 -17.027  18.344  1.00  0.00     0.026 C 
BRANCH  14  16
HETATM   16  C27 UNL     1      -2.051 -14.847  17.280  1.00  0.00     0.276 C 
BRANCH  16  17
HETATM   17  N6  UNL     1      -2.100 -14.118  16.035  1.00  0.00     0.080 N 
HETATM   18  C28 UNL     1      -1.246 -14.824  15.083  1.00  0.00     0.309 C 
HETATM   19  C29 UNL     1      -1.652 -12.771  16.252  1.00  0.00     0.309 C 
ENDBRANCH  16  17
ENDBRANCH  14  16
ENDBRANCH   6   8
ENDBRANCH   3   6
ENDBRANCH   1   2
BRANCH   1  20
HETATM   20  C5  UNL     1     -10.013 -18.225  16.167  1.00  0.00     0.039 C 
BRANCH  20  21
HETATM   21  C6  UNL     1      -9.603 -18.560  14.801  1.00  0.00    -0.012 C 
HETATM   22  C7  UNL     1      -8.101 -18.252  14.602  1.00  0.00     0.005 C 
HETATM   23  C8  UNL     1      -7.775 -16.848  14.999  1.00  0.00     0.000 C 
HETATM   24  C9  UNL     1      -8.569 -15.799  14.258  1.00  0.00     0.000 C 
HETATM   25  C10 UNL     1     -10.029 -16.155  14.166  1.00  0.00     0.000 C 
HETATM   26  C11 UNL     1     -10.277 -17.586  13.825  1.00  0.00     0.005 C 
ENDBRANCH  20  21
ENDBRANCH   1  20
BRANCH   1  27
HETATM   27  N2  UNL     1     -10.625 -19.429  18.053  1.00  0.00    -0.346 N 
HETATM   28  C12 UNL     1     -11.145 -20.706  17.781  1.00  0.00     0.242 C 
HETATM   29  O2  UNL     1     -10.501 -21.407  16.932  1.00  0.00    -0.271 OA
ATOM     30  H2  UNL     1     -11.081 -18.826  18.738  1.00  0.00     0.163 HD
BRANCH  28  31
HETATM   31  C13 UNL     1     -12.365 -21.197  18.427  1.00  0.00     0.185 C 
BRANCH  31  32
HETATM   32  N3  UNL     1     -13.250 -21.650  17.326  1.00  0.00    -0.329 N 
HETATM   33  C14 UNL     1     -14.378 -20.919  16.936  1.00  0.00     0.319 C 
HETATM   34  O3  UNL     1     -14.638 -19.841  17.542  1.00  0.00    -0.247 OA
HETATM   35  N4  UNL     1     -15.223 -21.334  15.897  1.00  0.00    -0.330 N 
HETATM   36  C15 UNL     1     -16.343 -20.500  15.488  1.00  0.00     0.153 C 
HETATM   37  C18 UNL     1     -14.987 -22.623  15.223  1.00  0.00     0.153 C 
HETATM   38  C16 UNL     1     -17.587 -21.296  15.199  1.00  0.00     0.187 C 
HETATM   39  O4  UNL     1     -17.335 -22.667  15.191  1.00  0.00    -0.388 OA
HETATM   40  C17 UNL     1     -16.207 -22.923  14.392  1.00  0.00     0.187 C 
ATOM     41  H3  UNL     1     -13.030 -22.520  16.839  1.00  0.00     0.165 HD
ENDBRANCH  31  32
BRANCH  31  42
HETATM   42  C19 UNL     1     -12.266 -22.220  19.471  1.00  0.00    -0.022 C 
HETATM   43  C20 UNL     1     -13.226 -21.787  20.605  1.00  0.00     0.017 C 
HETATM   44  C21 UNL     1     -12.756 -23.588  19.024  1.00  0.00     0.017 C 
HETATM   45  C22 UNL     1     -10.888 -22.298  20.073  1.00  0.00     0.017 C 
ENDBRANCH  31  42
ENDBRANCH  28  31
ENDBRANCH   1  27
TORSDOF 11
ENDMDL
