MODEL 1
REMARK VINA RESULT: -9.310581584      0.000      0.000
REMARK  12 active torsions:
REMARK  status: ('A' for Active; 'I' for Inactive)
REMARK       I    between atoms: N1_2  and  C2_4 
REMARK    1  A    between atoms: C2_4  and  C3_6 
REMARK    2  A    between atoms: N2_10  and  C7_11 
REMARK    3  A    between atoms: C7_11  and  O2_12 
REMARK    4  A    between atoms: C8_14  and  N3_15 
REMARK    5  A    between atoms: C8_14  and  C26_39 
REMARK       I    between atoms: N3_15  and  C9_17 
REMARK    6  A    between atoms: C9_17  and  C10_19 
REMARK       I    between atoms: N4_23  and  C14_24 
REMARK    7  A    between atoms: C14_24  and  C15_26 
REMARK    8  A    between atoms: C15_26  and  C16_27 
REMARK    9  A    between atoms: C15_26  and  C19_32 
REMARK   10  A    between atoms: C16_27  and  O5_28 
REMARK   11  A    between atoms: O5_28  and  C17_29 
REMARK   12  A    between atoms: C19_32  and  C20_33 
ROOT
HETATM    1  C7  UNL     1     -15.641 -22.108  16.995  1.00  0.00     0.162 C 
HETATM    2  C8  UNL     1     -15.318 -22.207  15.617  1.00  0.00     0.069 C 
ENDROOT
BRANCH   2   3
HETATM    3  N3  UNL     1     -14.029 -21.633  15.217  1.00  0.00    -0.325 N 
HETATM    4  C9  UNL     1     -13.860 -20.255  14.837  1.00  0.00     0.245 C 
HETATM    5  O3  UNL     1     -14.859 -19.536  14.865  1.00  0.00    -0.271 OA
ATOM      6  H3  UNL     1     -13.211 -22.242  15.207  1.00  0.00     0.169 HD
BRANCH   4   7
HETATM    7  C10 UNL     1     -12.545 -19.836  14.458  1.00  0.00     0.180 C 
HETATM    8  C11 UNL     1     -12.682 -18.550  13.559  1.00  0.00     0.037 C 
HETATM    9  C12 UNL     1     -11.275 -18.029  13.503  1.00  0.00     0.022 C 
HETATM   10  C13 UNL     1     -10.536 -18.981  14.370  1.00  0.00     0.127 C 
HETATM   11  N4  UNL     1     -11.544 -19.386  15.366  1.00  0.00    -0.335 N 
HETATM   12  C14 UNL     1     -11.443 -19.365  16.762  1.00  0.00     0.252 C 
HETATM   13  O4  UNL     1     -12.421 -19.901  17.417  1.00  0.00    -0.268 OA
BRANCH  12  14
HETATM   14  C15 UNL     1     -10.398 -18.827  17.651  1.00  0.00     0.030 C 
BRANCH  14  15
HETATM   15  C16 UNL     1      -9.371 -19.788  18.136  1.00  0.00     0.222 C 
BRANCH  15  16
HETATM   16  O5  UNL     1      -9.638 -20.356  19.396  1.00  0.00    -0.317 OA
BRANCH  16  17
HETATM   17  C17 UNL     1     -10.447 -19.876  20.367  1.00  0.00     0.255 C 
HETATM   18  C18 UNL     1     -10.011 -18.684  21.158  1.00  0.00     0.126 C 
HETATM   19  O6  UNL     1     -11.551 -20.438  20.588  1.00  0.00    -0.266 OA
ENDBRANCH  16  17
ENDBRANCH  15  16
ENDBRANCH  14  15
BRANCH  14  20
HETATM   20  C19 UNL     1      -9.999 -17.440  17.362  1.00  0.00    -0.007 C 
BRANCH  20  21
HETATM   21  C20 UNL     1      -8.712 -17.079  16.760  1.00  0.00     0.009 C 
HETATM   22  C21 UNL     1      -9.071 -16.039  15.647  1.00  0.00     0.008 C 
HETATM   23  C22 UNL     1      -7.925 -15.996  14.692  1.00  0.00     0.001 C 
HETATM   24  C23 UNL     1      -6.656 -15.977  15.540  1.00  0.00     0.000 C 
HETATM   25  C24 UNL     1      -6.971 -15.265  16.837  1.00  0.00     0.001 C 
HETATM   26  C25 UNL     1      -7.850 -16.195  17.690  1.00  0.00     0.008 C 
ENDBRANCH  20  21
ENDBRANCH  14  20
ENDBRANCH  12  14
ENDBRANCH   4   7
ENDBRANCH   2   3
BRANCH   2  27
HETATM   27  C26 UNL     1     -15.861 -23.218  14.721  1.00  0.00     0.067 C 
HETATM   28  C27 UNL     1     -15.243 -23.622  13.450  1.00  0.00     0.040 C 
HETATM   29  C28 UNL     1     -16.399 -24.242  12.669  1.00  0.00     0.233 C 
HETATM   30  N5  UNL     1     -17.582 -23.618  13.120  1.00  0.00    -0.074 N 
HETATM   31  C29 UNL     1     -17.270 -22.766  14.227  1.00  0.00     0.243 C 
ATOM     32  H52 UNL     1     -18.068 -23.122  12.373  1.00  0.00     0.277 HD
ATOM     33  H51 UNL     1     -18.314 -24.292  13.345  1.00  0.00     0.277 HD
ENDBRANCH   2  27
BRANCH   1  34
HETATM   34  N2  UNL     1     -16.045 -22.889  18.048  1.00  0.00    -0.346 N 
HETATM   35  C3  UNL     1     -15.378 -23.964  18.810  1.00  0.00     0.183 C 
HETATM   36  C4  UNL     1     -16.144 -25.168  18.413  1.00  0.00     0.032 A 
HETATM   37  C5  UNL     1     -17.549 -24.591  18.117  1.00  0.00     0.019 A 
HETATM   38  C30 UNL     1     -17.357 -25.594  19.157  1.00  0.00    -0.036 A 
HETATM   39  C6  UNL     1     -17.425 -23.100  18.571  1.00  0.00     0.132 C 
HETATM   40  C31 UNL     1     -17.638 -25.223  20.568  1.00  0.00     0.016 C 
HETATM   41  C32 UNL     1     -17.863 -26.994  18.788  1.00  0.00     0.016 C 
BRANCH  35  42
HETATM   42  C2  UNL     1     -13.964 -24.048  18.803  1.00  0.00     0.240 C 
HETATM   43  N1  UNL     1     -13.055 -22.956  18.801  1.00  0.00    -0.364 N 
HETATM   44  C1  UNL     1     -11.604 -23.131  18.800  1.00  0.00     0.149 C 
ATOM     45  H1  UNL     1     -13.432 -22.009  18.801  1.00  0.00     0.161 HD
HETATM   46  O1  UNL     1     -13.413 -25.205  18.805  1.00  0.00    -0.271 OA
ENDBRANCH  35  42
ENDBRANCH   1  34
BRANCH   1  47
HETATM   47  O2  UNL     1     -15.510 -20.817  17.420  1.00  0.00    -0.345 OA
ATOM     48  H2  UNL     1     -14.599 -20.649  17.627  1.00  0.00     0.219 HD
ENDBRANCH   1  47
TORSDOF 12
ENDMDL
MODEL 2
REMARK VINA RESULT: -9.301284742      2.666      4.038
REMARK  12 active torsions:
REMARK  status: ('A' for Active; 'I' for Inactive)
REMARK       I    between atoms: N1_2  and  C2_4 
REMARK    1  A    between atoms: C2_4  and  C3_6 
REMARK    2  A    between atoms: N2_10  and  C7_11 
REMARK    3  A    between atoms: C7_11  and  O2_12 
REMARK    4  A    between atoms: C8_14  and  N3_15 
REMARK    5  A    between atoms: C8_14  and  C26_39 
REMARK       I    between atoms: N3_15  and  C9_17 
REMARK    6  A    between atoms: C9_17  and  C10_19 
REMARK       I    between atoms: N4_23  and  C14_24 
REMARK    7  A    between atoms: C14_24  and  C15_26 
REMARK    8  A    between atoms: C15_26  and  C16_27 
REMARK    9  A    between atoms: C15_26  and  C19_32 
REMARK   10  A    between atoms: C16_27  and  O5_28 
REMARK   11  A    between atoms: O5_28  and  C17_29 
REMARK   12  A    between atoms: C19_32  and  C20_33 
ROOT
HETATM    1  C7  UNL     1     -13.734 -20.247  17.947  1.00  0.00     0.162 C 
HETATM    2  C8  UNL     1     -13.707 -20.007  16.549  1.00  0.00     0.069 C 
ENDROOT
BRANCH   2   3
HETATM    3  N3  UNL     1     -12.463 -19.438  16.019  1.00  0.00    -0.325 N 
HETATM    4  C9  UNL     1     -11.257 -20.203  15.837  1.00  0.00     0.245 C 
HETATM    5  O3  UNL     1     -11.295 -21.395  16.141  1.00  0.00    -0.271 OA
ATOM      6  H3  UNL     1     -12.453 -18.450  15.766  1.00  0.00     0.169 HD
BRANCH   4   7
HETATM    7  C10 UNL     1     -10.115 -19.512  15.320  1.00  0.00     0.180 C 
HETATM    8  C11 UNL     1     -10.621 -18.453  14.268  1.00  0.00     0.037 C 
HETATM    9  C12 UNL     1      -9.409 -17.593  14.050  1.00  0.00     0.022 C 
HETATM   10  C13 UNL     1      -8.416 -18.180  14.985  1.00  0.00     0.127 C 
HETATM   11  N4  UNL     1      -9.248 -18.686  16.091  1.00  0.00    -0.335 N 
HETATM   12  C14 UNL     1      -9.117 -18.435  17.461  1.00  0.00     0.252 C 
HETATM   13  O4  UNL     1      -9.895 -19.109  18.245  1.00  0.00    -0.268 OA
BRANCH  12  14
HETATM   14  C15 UNL     1      -8.233 -17.516  18.200  1.00  0.00     0.030 C 
BRANCH  14  15
HETATM   15  C16 UNL     1      -8.558 -16.066  18.123  1.00  0.00     0.222 C 
BRANCH  15  16
HETATM   16  O5  UNL     1      -7.553 -15.262  17.554  1.00  0.00    -0.317 OA
BRANCH  16  17
HETATM   17  C17 UNL     1      -7.293 -15.066  16.242  1.00  0.00     0.255 C 
HETATM   18  C18 UNL     1      -5.995 -15.546  15.675  1.00  0.00     0.126 C 
HETATM   19  O6  UNL     1      -8.145 -14.484  15.521  1.00  0.00    -0.266 OA
ENDBRANCH  16  17
ENDBRANCH  15  16
ENDBRANCH  14  15
BRANCH  14  20
HETATM   20  C19 UNL     1      -7.691 -18.062  19.456  1.00  0.00    -0.007 C 
BRANCH  20  21
HETATM   21  C20 UNL     1      -6.328 -18.586  19.586  1.00  0.00     0.009 C 
HETATM   22  C21 UNL     1      -5.432 -17.559  18.817  1.00  0.00     0.008 C 
HETATM   23  C22 UNL     1      -4.150 -18.249  18.488  1.00  0.00     0.001 C 
HETATM   24  C23 UNL     1      -3.736 -19.016  19.741  1.00  0.00     0.000 C 
HETATM   25  C24 UNL     1      -4.239 -18.249  20.945  1.00  0.00     0.001 C 
HETATM   26  C25 UNL     1      -5.765 -18.422  21.016  1.00  0.00     0.008 C 
ENDBRANCH  20  21
ENDBRANCH  14  20
ENDBRANCH  12  14
ENDBRANCH   4   7
ENDBRANCH   2   3
BRANCH   2  27
HETATM   27  C26 UNL     1     -14.536 -20.712  15.583  1.00  0.00     0.067 C 
HETATM   28  C27 UNL     1     -15.991 -20.884  15.704  1.00  0.00     0.040 C 
HETATM   29  C28 UNL     1     -16.286 -22.089  14.813  1.00  0.00     0.233 C 
HETATM   30  N5  UNL     1     -15.122 -22.888  14.804  1.00  0.00    -0.074 N 
HETATM   31  C29 UNL     1     -14.075 -22.200  15.496  1.00  0.00     0.243 C 
ATOM     32  H52 UNL     1     -15.290 -23.821  15.181  1.00  0.00     0.277 HD
ATOM     33  H51 UNL     1     -14.848 -23.162  13.860  1.00  0.00     0.277 HD
ENDBRANCH   2  27
BRANCH   1  34
HETATM   34  N2  UNL     1     -14.012 -21.244  18.846  1.00  0.00    -0.346 N 
HETATM   35  C3  UNL     1     -13.160 -22.040  19.753  1.00  0.00     0.183 C 
HETATM   36  C4  UNL     1     -13.225 -23.395  19.156  1.00  0.00     0.032 A 
HETATM   37  C5  UNL     1     -14.625 -23.405  18.496  1.00  0.00     0.019 A 
HETATM   38  C30 UNL     1     -14.285 -24.361  19.542  1.00  0.00    -0.036 A 
HETATM   39  C6  UNL     1     -15.255 -22.057  18.976  1.00  0.00     0.132 C 
HETATM   40  C31 UNL     1     -15.029 -24.306  20.828  1.00  0.00     0.016 C 
HETATM   41  C32 UNL     1     -14.047 -25.790  19.040  1.00  0.00     0.016 C 
BRANCH  35  42
HETATM   42  C2  UNL     1     -11.887 -21.543  20.128  1.00  0.00     0.240 C 
HETATM   43  N1  UNL     1     -11.626 -20.330  20.817  1.00  0.00    -0.364 N 
HETATM   44  C1  UNL     1     -10.278 -19.892  21.172  1.00  0.00     0.149 C 
ATOM     45  H1  UNL     1     -12.415 -19.738  21.077  1.00  0.00     0.161 HD
HETATM   46  O1  UNL     1     -10.845 -22.232  19.838  1.00  0.00    -0.271 OA
ENDBRANCH  35  42
ENDBRANCH   1  34
BRANCH   1  47
HETATM   47  O2  UNL     1     -13.364 -19.122  18.627  1.00  0.00    -0.345 OA
ATOM     48  H2  UNL     1     -13.287 -18.400  18.015  1.00  0.00     0.219 HD
ENDBRANCH   1  47
TORSDOF 12
ENDMDL
MODEL 3
REMARK VINA RESULT: -9.285518459      2.048      9.262
REMARK  12 active torsions:
REMARK  status: ('A' for Active; 'I' for Inactive)
REMARK       I    between atoms: N1_2  and  C2_4 
REMARK    1  A    between atoms: C2_4  and  C3_6 
REMARK    2  A    between atoms: N2_10  and  C7_11 
REMARK    3  A    between atoms: C7_11  and  O2_12 
REMARK    4  A    between atoms: C8_14  and  N3_15 
REMARK    5  A    between atoms: C8_14  and  C26_39 
REMARK       I    between atoms: N3_15  and  C9_17 
REMARK    6  A    between atoms: C9_17  and  C10_19 
REMARK       I    between atoms: N4_23  and  C14_24 
REMARK    7  A    between atoms: C14_24  and  C15_26 
REMARK    8  A    between atoms: C15_26  and  C16_27 
REMARK    9  A    between atoms: C15_26  and  C19_32 
REMARK   10  A    between atoms: C16_27  and  O5_28 
REMARK   11  A    between atoms: O5_28  and  C17_29 
REMARK   12  A    between atoms: C19_32  and  C20_33 
ROOT
HETATM    1  C7  UNL     1     -12.150 -19.041  18.086  1.00  0.00     0.162 C 
HETATM    2  C8  UNL     1     -11.682 -19.946  19.074  1.00  0.00     0.069 C 
ENDROOT
BRANCH   2   3
HETATM    3  N3  UNL     1     -12.292 -21.281  19.063  1.00  0.00    -0.325 N 
HETATM    4  C9  UNL     1     -13.115 -21.783  20.132  1.00  0.00     0.245 C 
HETATM    5  O3  UNL     1     -13.312 -21.037  21.090  1.00  0.00    -0.271 OA
ATOM      6  H3  UNL     1     -12.123 -21.883  18.257  1.00  0.00     0.169 HD
BRANCH   4   7
HETATM    7  C10 UNL     1     -13.635 -23.110  19.990  1.00  0.00     0.180 C 
HETATM    8  C11 UNL     1     -14.227 -23.552  21.381  1.00  0.00     0.037 C 
HETATM    9  C12 UNL     1     -15.015 -24.783  21.032  1.00  0.00     0.022 C 
HETATM   10  C13 UNL     1     -14.846 -24.877  19.560  1.00  0.00     0.127 C 
HETATM   11  N4  UNL     1     -14.722 -23.468  19.143  1.00  0.00    -0.335 N 
HETATM   12  C14 UNL     1     -15.447 -22.788  18.158  1.00  0.00     0.252 C 
HETATM   13  O4  UNL     1     -15.056 -21.585  17.886  1.00  0.00    -0.268 OA
BRANCH  12  14
HETATM   14  C15 UNL     1     -16.611 -23.198  17.352  1.00  0.00     0.030 C 
BRANCH  14  15
HETATM   15  C16 UNL     1     -17.914 -23.307  18.063  1.00  0.00     0.222 C 
BRANCH  15  16
HETATM   16  O5  UNL     1     -18.440 -24.610  18.139  1.00  0.00    -0.317 OA
BRANCH  16  17
HETATM   17  C17 UNL     1     -18.365 -25.474  19.177  1.00  0.00     0.255 C 
HETATM   18  C18 UNL     1     -18.329 -26.944  18.902  1.00  0.00     0.126 C 
HETATM   19  O6  UNL     1     -18.327 -25.028  20.353  1.00  0.00    -0.266 OA
ENDBRANCH  16  17
ENDBRANCH  15  16
ENDBRANCH  14  15
BRANCH  14  20
HETATM   20  C19 UNL     1     -16.594 -22.718  15.960  1.00  0.00    -0.007 C 
BRANCH  20  21
HETATM   21  C20 UNL     1     -16.627 -23.610  14.798  1.00  0.00     0.009 C 
HETATM   22  C21 UNL     1     -17.575 -22.896  13.776  1.00  0.00     0.008 C 
HETATM   23  C22 UNL     1     -18.042 -23.930  12.807  1.00  0.00     0.001 C 
HETATM   24  C23 UNL     1     -16.817 -24.764  12.439  1.00  0.00     0.000 C 
HETATM   25  C24 UNL     1     -15.602 -23.867  12.516  1.00  0.00     0.001 C 
HETATM   26  C25 UNL     1     -15.304 -23.592  13.999  1.00  0.00     0.008 C 
ENDBRANCH  20  21
ENDBRANCH  14  20
ENDBRANCH  12  14
ENDBRANCH   4   7
ENDBRANCH   2   3
BRANCH   2  27
HETATM   27  C26 UNL     1     -10.376 -19.858  19.710  1.00  0.00     0.067 C 
HETATM   28  C27 UNL     1      -9.838 -18.646  20.344  1.00  0.00     0.040 C 
HETATM   29  C28 UNL     1      -8.330 -18.882  20.350  1.00  0.00     0.233 C 
HETATM   30  N5  UNL     1      -8.040 -19.720  19.252  1.00  0.00    -0.074 N 
HETATM   31  C29 UNL     1      -9.266 -20.147  18.651  1.00  0.00     0.243 C 
ATOM     32  H52 UNL     1      -7.413 -19.276  18.581  1.00  0.00     0.277 HD
ATOM     33  H51 UNL     1      -7.442 -20.504  19.511  1.00  0.00     0.277 HD
ENDBRANCH   2  27
BRANCH   1  34
HETATM   34  N2  UNL     1     -11.679 -18.206  17.106  1.00  0.00    -0.346 N 
HETATM   35  C3  UNL     1     -11.789 -18.229  15.633  1.00  0.00     0.183 C 
HETATM   36  C4  UNL     1     -10.400 -18.517  15.207  1.00  0.00     0.032 A 
HETATM   37  C5  UNL     1      -9.562 -17.887  16.345  1.00  0.00     0.019 A 
HETATM   38  C30 UNL     1      -9.421 -17.426  14.970  1.00  0.00    -0.036 A 
HETATM   39  C6  UNL     1     -10.634 -17.149  17.210  1.00  0.00     0.132 C 
HETATM   40  C31 UNL     1      -9.802 -16.027  14.644  1.00  0.00     0.016 C 
HETATM   41  C32 UNL     1      -8.129 -17.878  14.278  1.00  0.00     0.016 C 
BRANCH  35  42
HETATM   42  C2  UNL     1     -12.834 -18.969  15.025  1.00  0.00     0.240 C 
HETATM   43  N1  UNL     1     -14.203 -18.958  15.401  1.00  0.00    -0.364 N 
HETATM   44  C1  UNL     1     -15.222 -19.749  14.714  1.00  0.00     0.149 C 
ATOM     45  H1  UNL     1     -14.489 -18.371  16.185  1.00  0.00     0.161 HD
HETATM   46  O1  UNL     1     -12.556 -19.729  14.031  1.00  0.00    -0.271 OA
ENDBRANCH  35  42
ENDBRANCH   1  34
BRANCH   1  47
HETATM   47  O2  UNL     1     -13.513 -18.973  18.115  1.00  0.00    -0.345 OA
ATOM     48  H2  UNL     1     -13.815 -19.152  18.998  1.00  0.00     0.219 HD
ENDBRANCH   1  47
TORSDOF 12
ENDMDL
MODEL 4
REMARK VINA RESULT: -9.269032298      1.879      8.630
REMARK  12 active torsions:
REMARK  status: ('A' for Active; 'I' for Inactive)
REMARK       I    between atoms: N1_2  and  C2_4 
REMARK    1  A    between atoms: C2_4  and  C3_6 
REMARK    2  A    between atoms: N2_10  and  C7_11 
REMARK    3  A    between atoms: C7_11  and  O2_12 
REMARK    4  A    between atoms: C8_14  and  N3_15 
REMARK    5  A    between atoms: C8_14  and  C26_39 
REMARK       I    between atoms: N3_15  and  C9_17 
REMARK    6  A    between atoms: C9_17  and  C10_19 
REMARK       I    between atoms: N4_23  and  C14_24 
REMARK    7  A    between atoms: C14_24  and  C15_26 
REMARK    8  A    between atoms: C15_26  and  C16_27 
REMARK    9  A    between atoms: C15_26  and  C19_32 
REMARK   10  A    between atoms: C16_27  and  O5_28 
REMARK   11  A    between atoms: O5_28  and  C17_29 
REMARK   12  A    between atoms: C19_32  and  C20_33 
ROOT
HETATM    1  C7  UNL     1     -10.119 -19.958  15.399  1.00  0.00     0.162 C 
HETATM    2  C8  UNL     1     -11.312 -19.887  14.635  1.00  0.00     0.069 C 
ENDROOT
BRANCH   2   3
HETATM    3  N3  UNL     1     -12.557 -20.167  15.359  1.00  0.00    -0.325 N 
HETATM    4  C9  UNL     1     -13.406 -21.293  15.068  1.00  0.00     0.245 C 
HETATM    5  O3  UNL     1     -13.047 -22.051  14.167  1.00  0.00    -0.271 OA
ATOM      6  H3  UNL     1     -12.835 -19.532  16.107  1.00  0.00     0.169 HD
BRANCH   4   7
HETATM    7  C10 UNL     1     -14.597 -21.435  15.849  1.00  0.00     0.180 C 
HETATM    8  C11 UNL     1     -15.542 -22.461  15.116  1.00  0.00     0.037 C 
HETATM    9  C12 UNL     1     -16.573 -22.771  16.163  1.00  0.00     0.022 C 
HETATM   10  C13 UNL     1     -16.107 -21.982  17.330  1.00  0.00     0.127 C 
HETATM   11  N4  UNL     1     -14.642 -21.969  17.168  1.00  0.00    -0.335 N 
HETATM   12  C14 UNL     1     -13.662 -22.327  18.101  1.00  0.00     0.252 C 
HETATM   13  O4  UNL     1     -12.435 -22.100  17.762  1.00  0.00    -0.268 OA
BRANCH  12  14
HETATM   14  C15 UNL     1     -13.772 -22.936  19.439  1.00  0.00     0.030 C 
BRANCH  14  15
HETATM   15  C16 UNL     1     -14.033 -22.012  20.577  1.00  0.00     0.222 C 
BRANCH  15  16
HETATM   16  O5  UNL     1     -12.897 -21.667  21.333  1.00  0.00    -0.317 OA
BRANCH  16  17
HETATM   17  C17 UNL     1     -11.768 -22.390  21.508  1.00  0.00     0.255 C 
HETATM   18  C18 UNL     1     -10.571 -22.091  20.662  1.00  0.00     0.126 C 
HETATM   19  O6  UNL     1     -11.743 -23.299  22.378  1.00  0.00    -0.266 OA
ENDBRANCH  16  17
ENDBRANCH  15  16
ENDBRANCH  14  15
BRANCH  14  20
HETATM   20  C19 UNL     1     -14.376 -24.278  19.456  1.00  0.00    -0.007 C 
BRANCH  20  21
HETATM   21  C20 UNL     1     -15.812 -24.515  19.627  1.00  0.00     0.009 C 
HETATM   22  C21 UNL     1     -16.111 -25.786  18.762  1.00  0.00     0.008 C 
HETATM   23  C22 UNL     1     -17.579 -25.802  18.490  1.00  0.00     0.001 C 
HETATM   24  C23 UNL     1     -18.267 -25.450  19.806  1.00  0.00     0.000 C 
HETATM   25  C24 UNL     1     -17.401 -25.960  20.937  1.00  0.00     0.001 C 
HETATM   26  C25 UNL     1     -16.161 -25.056  21.033  1.00  0.00     0.008 C 
ENDBRANCH  20  21
ENDBRANCH  14  20
ENDBRANCH  12  14
ENDBRANCH   4   7
ENDBRANCH   2   3
BRANCH   2  27
HETATM   27  C26 UNL     1     -11.457 -19.103  13.418  1.00  0.00     0.067 C 
HETATM   28  C27 UNL     1     -11.761 -17.664  13.385  1.00  0.00     0.040 C 
HETATM   29  C28 UNL     1     -12.335 -17.449  11.987  1.00  0.00     0.233 C 
HETATM   30  N5  UNL     1     -12.934 -18.667  11.596  1.00  0.00    -0.074 N 
HETATM   31  C29 UNL     1     -12.645 -19.668  12.578  1.00  0.00     0.243 C 
ATOM     32  H52 UNL     1     -13.934 -18.569  11.424  1.00  0.00     0.277 HD
ATOM     33  H51 UNL     1     -12.653 -18.953  10.658  1.00  0.00     0.277 HD
ENDBRANCH   2  27
BRANCH   1  34
HETATM   34  N2  UNL     1      -9.000 -19.220  15.688  1.00  0.00    -0.346 N 
HETATM   35  C3  UNL     1      -8.574 -18.477  16.891  1.00  0.00     0.183 C 
HETATM   36  C4  UNL     1      -8.646 -17.066  16.445  1.00  0.00     0.032 A 
HETATM   37  C5  UNL     1      -8.356 -17.177  14.929  1.00  0.00     0.019 A 
HETATM   38  C30 UNL     1      -7.487 -16.397  15.801  1.00  0.00    -0.036 A 
HETATM   39  C6  UNL     1      -7.975 -18.683  14.749  1.00  0.00     0.132 C 
HETATM   40  C31 UNL     1      -6.076 -16.832  15.977  1.00  0.00     0.016 C 
HETATM   41  C32 UNL     1      -7.638 -14.879  15.652  1.00  0.00     0.016 C 
BRANCH  35  42
HETATM   42  C2  UNL     1      -9.143 -18.802  18.148  1.00  0.00     0.240 C 
HETATM   43  N1  UNL     1     -10.040 -17.998  18.899  1.00  0.00    -0.364 N 
HETATM   44  C1  UNL     1     -10.587 -18.413  20.190  1.00  0.00     0.149 C 
ATOM     45  H1  UNL     1     -10.315 -17.092  18.523  1.00  0.00     0.161 HD
HETATM   46  O1  UNL     1      -8.847 -19.926  18.688  1.00  0.00    -0.271 OA
ENDBRANCH  35  42
ENDBRANCH   1  34
BRANCH   1  47
HETATM   47  O2  UNL     1     -10.057 -21.146  16.069  1.00  0.00    -0.345 OA
ATOM     48  H2  UNL     1      -9.856 -20.979  16.981  1.00  0.00     0.219 HD
ENDBRANCH   1  47
TORSDOF 12
ENDMDL
MODEL 5
REMARK VINA RESULT: -9.261725673      1.995      9.419
REMARK  12 active torsions:
REMARK  status: ('A' for Active; 'I' for Inactive)
REMARK       I    between atoms: N1_2  and  C2_4 
REMARK    1  A    between atoms: C2_4  and  C3_6 
REMARK    2  A    between atoms: N2_10  and  C7_11 
REMARK    3  A    between atoms: C7_11  and  O2_12 
REMARK    4  A    between atoms: C8_14  and  N3_15 
REMARK    5  A    between atoms: C8_14  and  C26_39 
REMARK       I    between atoms: N3_15  and  C9_17 
REMARK    6  A    between atoms: C9_17  and  C10_19 
REMARK       I    between atoms: N4_23  and  C14_24 
REMARK    7  A    between atoms: C14_24  and  C15_26 
REMARK    8  A    between atoms: C15_26  and  C16_27 
REMARK    9  A    between atoms: C15_26  and  C19_32 
REMARK   10  A    between atoms: C16_27  and  O5_28 
REMARK   11  A    between atoms: O5_28  and  C17_29 
REMARK   12  A    between atoms: C19_32  and  C20_33 
ROOT
HETATM    1  C7  UNL     1     -12.141 -19.162  17.622  1.00  0.00     0.162 C 
HETATM    2  C8  UNL     1     -11.775 -20.011  18.698  1.00  0.00     0.069 C 
ENDROOT
BRANCH   2   3
HETATM    3  N3  UNL     1     -12.382 -21.346  18.698  1.00  0.00    -0.325 N 
HETATM    4  C9  UNL     1     -13.143 -21.869  19.803  1.00  0.00     0.245 C 
HETATM    5  O3  UNL     1     -13.287 -21.140  20.783  1.00  0.00    -0.271 OA
ATOM      6  H3  UNL     1     -12.258 -21.934  17.874  1.00  0.00     0.169 HD
BRANCH   4   7
HETATM    7  C10 UNL     1     -13.668 -23.194  19.668  1.00  0.00     0.180 C 
HETATM    8  C11 UNL     1     -14.268 -23.625  21.060  1.00  0.00     0.037 C 
HETATM    9  C12 UNL     1     -15.059 -24.855  20.716  1.00  0.00     0.022 C 
HETATM   10  C13 UNL     1     -14.885 -24.959  19.245  1.00  0.00     0.127 C 
HETATM   11  N4  UNL     1     -14.753 -23.554  18.819  1.00  0.00    -0.335 N 
HETATM   12  C14 UNL     1     -15.471 -22.877  17.827  1.00  0.00     0.252 C 
HETATM   13  O4  UNL     1     -15.073 -21.678  17.548  1.00  0.00    -0.268 OA
BRANCH  12  14
HETATM   14  C15 UNL     1     -16.633 -23.287  17.018  1.00  0.00     0.030 C 
BRANCH  14  15
HETATM   15  C16 UNL     1     -17.959 -23.265  17.692  1.00  0.00     0.222 C 
BRANCH  15  16
HETATM   16  O5  UNL     1     -18.564 -24.526  17.852  1.00  0.00    -0.317 OA
BRANCH  16  17
HETATM   17  C17 UNL     1     -18.399 -25.401  18.869  1.00  0.00     0.255 C 
HETATM   18  C18 UNL     1     -18.202 -26.851  18.560  1.00  0.00     0.126 C 
HETATM   19  O6  UNL     1     -18.415 -24.982  20.056  1.00  0.00    -0.266 OA
ENDBRANCH  16  17
ENDBRANCH  15  16
ENDBRANCH  14  15
BRANCH  14  20
HETATM   20  C19 UNL     1     -16.548 -22.925  15.593  1.00  0.00    -0.007 C 
BRANCH  20  21
HETATM   21  C20 UNL     1     -17.237 -23.663  14.531  1.00  0.00     0.009 C 
HETATM   22  C21 UNL     1     -16.151 -23.869  13.422  1.00  0.00     0.008 C 
HETATM   23  C22 UNL     1     -16.869 -24.160  12.147  1.00  0.00     0.001 C 
HETATM   24  C23 UNL     1     -17.977 -25.153  12.490  1.00  0.00     0.000 C 
HETATM   25  C24 UNL     1     -17.499 -26.004  13.647  1.00  0.00     0.001 C 
HETATM   26  C25 UNL     1     -17.514 -25.135  14.915  1.00  0.00     0.008 C 
ENDBRANCH  20  21
ENDBRANCH  14  20
ENDBRANCH  12  14
ENDBRANCH   4   7
ENDBRANCH   2   3
BRANCH   2  27
HETATM   27  C26 UNL     1     -10.538 -19.883  19.455  1.00  0.00     0.067 C 
HETATM   28  C27 UNL     1     -10.068 -18.638  20.079  1.00  0.00     0.040 C 
HETATM   29  C28 UNL     1      -8.567 -18.863  20.246  1.00  0.00     0.233 C 
HETATM   30  N5  UNL     1      -8.168 -19.751  19.224  1.00  0.00    -0.074 N 
HETATM   31  C29 UNL     1      -9.328 -20.215  18.526  1.00  0.00     0.243 C 
ATOM     32  H52 UNL     1      -7.479 -19.336  18.597  1.00  0.00     0.277 HD
ATOM     33  H51 UNL     1      -7.597 -20.518  19.578  1.00  0.00     0.277 HD
ENDBRANCH   2  27
BRANCH   1  34
HETATM   34  N2  UNL     1     -11.574 -18.379  16.650  1.00  0.00    -0.346 N 
HETATM   35  C3  UNL     1     -11.335 -18.589  15.207  1.00  0.00     0.183 C 
HETATM   36  C4  UNL     1      -9.859 -18.689  15.132  1.00  0.00     0.032 A 
HETATM   37  C5  UNL     1      -9.402 -17.801  16.314  1.00  0.00     0.019 A 
HETATM   38  C30 UNL     1      -9.010 -17.484  14.947  1.00  0.00    -0.036 A 
HETATM   39  C6  UNL     1     -10.736 -17.157  16.813  1.00  0.00     0.132 C 
HETATM   40  C31 UNL     1      -9.493 -16.215  14.342  1.00  0.00     0.016 C 
HETATM   41  C32 UNL     1      -7.544 -17.791  14.620  1.00  0.00     0.016 C 
BRANCH  35  42
HETATM   42  C2  UNL     1     -12.099 -19.558  14.510  1.00  0.00     0.240 C 
HETATM   43  N1  UNL     1     -12.578 -20.789  15.032  1.00  0.00    -0.364 N 
HETATM   44  C1  UNL     1     -13.368 -21.732  14.244  1.00  0.00     0.149 C 
ATOM     45  H1  UNL     1     -12.361 -21.025  16.000  1.00  0.00     0.161 HD
HETATM   46  O1  UNL     1     -12.415 -19.334  13.288  1.00  0.00    -0.271 OA
ENDBRANCH  35  42
ENDBRANCH   1  34
BRANCH   1  47
HETATM   47  O2  UNL     1     -13.500 -19.098  17.512  1.00  0.00    -0.345 OA
ATOM     48  H2  UNL     1     -13.798 -18.253  17.826  1.00  0.00     0.219 HD
ENDBRANCH   1  47
TORSDOF 12
ENDMDL
