MODEL 1
REMARK VINA RESULT: -9.642236735      0.000      0.000
REMARK  11 active torsions:
REMARK  status: ('A' for Active; 'I' for Inactive)
REMARK    1  A    between atoms: C2_2  and  C3_3 
REMARK    2  A    between atoms: C3_3  and  C4_5 
REMARK    3  A    between atoms: C4_5  and  N1_6 
REMARK    4  A    between atoms: C4_5  and  C29_43 
REMARK       I    between atoms: N1_6  and  C5_8 
REMARK    5  A    between atoms: C5_8  and  C6_10 
REMARK    6  A    between atoms: C6_10  and  C7_11 
REMARK    7  A    between atoms: C6_10  and  N2_15 
REMARK    8  A    between atoms: C7_11  and  C8_12 
REMARK       I    between atoms: N2_15  and  C11_17 
REMARK       I    between atoms: C11_17  and  N3_19 
REMARK       I    between atoms: N4_24  and  C16_25 
REMARK    9  A    between atoms: C16_25  and  C17_27 
REMARK   10  A    between atoms: C17_27  and  C20_30 
REMARK       I    between atoms: C20_30  and  N5_32 
REMARK   11  A    between atoms: N5_32  and  C21_34 
ROOT
HETATM    1  N2  UNL     1     -15.719 -22.572  16.298  1.00  0.00    -0.330 N 
ATOM      2  H2  UNL     1     -15.135 -23.127  16.922  1.00  0.00     0.165 HD
HETATM    3  C11 UNL     1     -15.182 -21.372  15.759  1.00  0.00     0.319 C 
HETATM    4  O3  UNL     1     -15.930 -20.701  14.983  1.00  0.00    -0.247 OA
HETATM    5  N3  UNL     1     -13.896 -20.889  16.026  1.00  0.00    -0.333 N 
HETATM    6  C12 UNL     1     -13.170 -21.772  16.933  1.00  0.00     0.127 C 
HETATM    7  C13 UNL     1     -11.795 -21.223  17.247  1.00  0.00     0.022 C 
HETATM    8  C14 UNL     1     -10.899 -21.589  16.082  1.00  0.00     0.021 C 
HETATM    9  C15 UNL     1     -10.247 -20.255  15.634  1.00  0.00     0.126 C 
HETATM   10  N4  UNL     1     -11.190 -19.466  14.897  1.00  0.00    -0.350 N 
HETATM   11  C16 UNL     1     -10.802 -18.144  14.663  1.00  0.00     0.237 C 
HETATM   12  O4  UNL     1     -11.636 -17.422  13.999  1.00  0.00    -0.272 OA
HETATM   13  C27 UNL     1     -12.497 -19.802  14.335  1.00  0.00     0.145 C 
HETATM   14  C28 UNL     1     -13.603 -19.659  15.352  1.00  0.00     0.147 C 
ENDROOT
BRANCH   1  15
HETATM   15  C6  UNL     1     -17.037 -23.039  16.007  1.00  0.00     0.178 C 
BRANCH  15  16
HETATM   16  C5  UNL     1     -17.630 -23.734  17.216  1.00  0.00     0.241 C 
HETATM   17  N1  UNL     1     -17.309 -25.074  17.519  1.00  0.00    -0.348 N 
ATOM     18  H1  UNL     1     -16.664 -25.571  16.904  1.00  0.00     0.163 HD
HETATM   19  O2  UNL     1     -18.427 -23.128  17.975  1.00  0.00    -0.271 OA
BRANCH  17  20
HETATM   20  C4  UNL     1     -17.856 -25.779  18.667  1.00  0.00     0.157 C 
BRANCH  20  21
HETATM   21  C3  UNL     1     -18.307 -27.122  18.297  1.00  0.00     0.149 C 
HETATM   22  O1  UNL     1     -17.958 -27.491  17.148  1.00  0.00    -0.296 OA
BRANCH  21  23
HETATM   23  C2  UNL     1     -19.093 -28.090  19.047  1.00  0.00     0.076 C 
HETATM   24  C1  UNL     1     -19.809 -29.085  18.135  1.00  0.00     0.013 C 
ENDBRANCH  21  23
ENDBRANCH  20  21
BRANCH  20  25
HETATM   25  C29 UNL     1     -16.791 -25.801  19.723  1.00  0.00     0.007 C 
HETATM   26  C30 UNL     1     -15.442 -25.356  19.229  1.00  0.00     0.012 C 
HETATM   27  C31 UNL     1     -17.170 -25.036  20.980  1.00  0.00     0.012 C 
ENDBRANCH  20  25
ENDBRANCH  17  20
ENDBRANCH  15  16
BRANCH  15  28
HETATM   28  C7  UNL     1     -17.190 -23.956  14.858  1.00  0.00     0.038 C 
BRANCH  28  29
HETATM   29  C8  UNL     1     -16.697 -23.510  13.533  1.00  0.00    -0.020 C 
HETATM   30  C9  UNL     1     -17.775 -23.946  12.516  1.00  0.00     0.009 C 
HETATM   31  C10 UNL     1     -15.423 -24.101  13.049  1.00  0.00     0.009 C 
ENDBRANCH  28  29
ENDBRANCH  15  28
ENDBRANCH   1  15
BRANCH  11  32
HETATM   32  C17 UNL     1      -9.567 -17.446  15.068  1.00  0.00     0.114 C 
HETATM   33  C18 UNL     1      -8.348 -18.129  14.377  1.00  0.00     0.035 C 
HETATM   34  C19 UNL     1      -9.578 -16.053  14.486  1.00  0.00     0.035 C 
BRANCH  32  35
HETATM   35  C20 UNL     1      -9.328 -17.444  16.533  1.00  0.00     0.235 C 
HETATM   36  O5  UNL     1     -10.268 -17.224  17.324  1.00  0.00    -0.272 OA
HETATM   37  N5  UNL     1      -8.036 -17.690  17.039  1.00  0.00    -0.355 N 
ATOM     38  H5  UNL     1      -7.282 -17.871  16.376  1.00  0.00     0.162 HD
BRANCH  37  39
HETATM   39  C21 UNL     1      -7.722 -17.700  18.459  1.00  0.00     0.087 C 
HETATM   40  C22 UNL     1      -8.167 -18.962  19.146  1.00  0.00     0.055 C 
HETATM   41  C23 UNL     1      -8.080 -18.744  20.642  1.00  0.00     0.274 C 
HETATM   42  N6  UNL     1      -6.923 -17.981  21.034  1.00  0.00     0.084 N 
HETATM   43  C24 UNL     1      -6.396 -18.532  22.260  1.00  0.00     0.309 C 
HETATM   44  C25 UNL     1      -5.870 -18.099  20.017  1.00  0.00     0.274 C 
HETATM   45  C26 UNL     1      -6.266 -17.465  18.714  1.00  0.00     0.055 C 
ENDBRANCH  37  39
ENDBRANCH  32  35
ENDBRANCH  11  32
TORSDOF 11
ENDMDL
MODEL 2
REMARK VINA RESULT: -9.361766090      2.617     12.005
REMARK  11 active torsions:
REMARK  status: ('A' for Active; 'I' for Inactive)
REMARK    1  A    between atoms: C2_2  and  C3_3 
REMARK    2  A    between atoms: C3_3  and  C4_5 
REMARK    3  A    between atoms: C4_5  and  N1_6 
REMARK    4  A    between atoms: C4_5  and  C29_43 
REMARK       I    between atoms: N1_6  and  C5_8 
REMARK    5  A    between atoms: C5_8  and  C6_10 
REMARK    6  A    between atoms: C6_10  and  C7_11 
REMARK    7  A    between atoms: C6_10  and  N2_15 
REMARK    8  A    between atoms: C7_11  and  C8_12 
REMARK       I    between atoms: N2_15  and  C11_17 
REMARK       I    between atoms: C11_17  and  N3_19 
REMARK       I    between atoms: N4_24  and  C16_25 
REMARK    9  A    between atoms: C16_25  and  C17_27 
REMARK   10  A    between atoms: C17_27  and  C20_30 
REMARK       I    between atoms: C20_30  and  N5_32 
REMARK   11  A    between atoms: N5_32  and  C21_34 
ROOT
HETATM    1  N2  UNL     1      -9.458 -18.950  17.743  1.00  0.00    -0.330 N 
ATOM      2  H2  UNL     1      -8.999 -19.151  18.631  1.00  0.00     0.165 HD
HETATM    3  C11 UNL     1     -10.612 -19.702  17.393  1.00  0.00     0.319 C 
HETATM    4  O3  UNL     1     -11.165 -19.430  16.284  1.00  0.00    -0.247 OA
HETATM    5  N3  UNL     1     -11.171 -20.710  18.187  1.00  0.00    -0.333 N 
HETATM    6  C12 UNL     1     -10.418 -20.898  19.423  1.00  0.00     0.127 C 
HETATM    7  C13 UNL     1     -11.008 -22.016  20.256  1.00  0.00     0.022 C 
HETATM    8  C14 UNL     1     -12.191 -21.433  21.000  1.00  0.00     0.021 C 
HETATM    9  C15 UNL     1     -13.379 -22.378  20.680  1.00  0.00     0.126 C 
HETATM   10  N4  UNL     1     -13.861 -22.136  19.352  1.00  0.00    -0.350 N 
HETATM   11  C16 UNL     1     -14.754 -23.092  18.861  1.00  0.00     0.237 C 
HETATM   12  O4  UNL     1     -15.200 -22.887  17.671  1.00  0.00    -0.272 OA
HETATM   13  C27 UNL     1     -13.586 -21.052  18.410  1.00  0.00     0.145 C 
HETATM   14  C28 UNL     1     -12.337 -21.307  17.603  1.00  0.00     0.147 C 
ENDROOT
BRANCH   1  15
HETATM   15  C6  UNL     1      -8.909 -17.927  16.911  1.00  0.00     0.178 C 
BRANCH  15  16
HETATM   16  C5  UNL     1      -7.829 -17.166  17.651  1.00  0.00     0.241 C 
HETATM   17  N1  UNL     1      -6.463 -17.470  17.467  1.00  0.00    -0.348 N 
ATOM     18  H1  UNL     1      -6.214 -18.219  16.820  1.00  0.00     0.163 HD
HETATM   19  O2  UNL     1      -8.130 -16.245  18.451  1.00  0.00    -0.271 OA
BRANCH  17  20
HETATM   20  C4  UNL     1      -5.395 -16.765  18.157  1.00  0.00     0.157 C 
BRANCH  20  21
HETATM   21  C3  UNL     1      -4.726 -17.638  19.124  1.00  0.00     0.149 C 
HETATM   22  O1  UNL     1      -3.843 -17.070  19.815  1.00  0.00    -0.296 OA
BRANCH  21  23
HETATM   23  C2  UNL     1      -4.921 -19.052  19.407  1.00  0.00     0.076 C 
HETATM   24  C1  UNL     1      -3.679 -19.882  19.084  1.00  0.00     0.013 C 
ENDBRANCH  21  23
ENDBRANCH  20  21
BRANCH  20  25
HETATM   25  C29 UNL     1      -4.457 -16.244  17.109  1.00  0.00     0.007 C 
HETATM   26  C30 UNL     1      -3.771 -17.325  16.320  1.00  0.00     0.012 C 
HETATM   27  C31 UNL     1      -5.101 -15.236  16.170  1.00  0.00     0.012 C 
ENDBRANCH  20  25
ENDBRANCH  17  20
ENDBRANCH  15  16
BRANCH  15  28
HETATM   28  C7  UNL     1      -9.850 -16.927  16.363  1.00  0.00     0.038 C 
BRANCH  28  29
HETATM   29  C8  UNL     1      -9.659 -16.477  14.964  1.00  0.00    -0.020 C 
HETATM   30  C9  UNL     1      -8.844 -17.593  14.272  1.00  0.00     0.009 C 
HETATM   31  C10 UNL     1      -8.889 -15.224  14.753  1.00  0.00     0.009 C 
ENDBRANCH  28  29
ENDBRANCH  15  28
ENDBRANCH   1  15
BRANCH  11  32
HETATM   32  C17 UNL     1     -15.267 -24.313  19.512  1.00  0.00     0.114 C 
HETATM   33  C18 UNL     1     -14.308 -25.499  19.194  1.00  0.00     0.035 C 
HETATM   34  C19 UNL     1     -15.159 -24.152  21.009  1.00  0.00     0.035 C 
BRANCH  32  35
HETATM   35  C20 UNL     1     -16.636 -24.695  19.082  1.00  0.00     0.235 C 
HETATM   36  O5  UNL     1     -17.625 -24.047  19.479  1.00  0.00    -0.272 OA
HETATM   37  N5  UNL     1     -16.825 -25.796  18.223  1.00  0.00    -0.355 N 
ATOM     38  H5  UNL     1     -16.003 -26.312  17.908  1.00  0.00     0.162 HD
BRANCH  37  39
HETATM   39  C21 UNL     1     -18.133 -26.236  17.763  1.00  0.00     0.087 C 
HETATM   40  C22 UNL     1     -18.139 -26.619  16.307  1.00  0.00     0.055 C 
HETATM   41  C23 UNL     1     -19.579 -26.756  15.860  1.00  0.00     0.274 C 
HETATM   42  N6  UNL     1     -20.423 -27.366  16.856  1.00  0.00     0.084 N 
HETATM   43  C24 UNL     1     -21.357 -28.249  16.196  1.00  0.00     0.309 C 
HETATM   44  C25 UNL     1     -19.618 -28.188  17.769  1.00  0.00     0.274 C 
HETATM   45  C26 UNL     1     -18.671 -27.361  18.591  1.00  0.00     0.055 C 
ENDBRANCH  37  39
ENDBRANCH  32  35
ENDBRANCH  11  32
TORSDOF 11
ENDMDL
MODEL 3
REMARK VINA RESULT: -9.227575673      2.462     11.834
REMARK  11 active torsions:
REMARK  status: ('A' for Active; 'I' for Inactive)
REMARK    1  A    between atoms: C2_2  and  C3_3 
REMARK    2  A    between atoms: C3_3  and  C4_5 
REMARK    3  A    between atoms: C4_5  and  N1_6 
REMARK    4  A    between atoms: C4_5  and  C29_43 
REMARK       I    between atoms: N1_6  and  C5_8 
REMARK    5  A    between atoms: C5_8  and  C6_10 
REMARK    6  A    between atoms: C6_10  and  C7_11 
REMARK    7  A    between atoms: C6_10  and  N2_15 
REMARK    8  A    between atoms: C7_11  and  C8_12 
REMARK       I    between atoms: N2_15  and  C11_17 
REMARK       I    between atoms: C11_17  and  N3_19 
REMARK       I    between atoms: N4_24  and  C16_25 
REMARK    9  A    between atoms: C16_25  and  C17_27 
REMARK   10  A    between atoms: C17_27  and  C20_30 
REMARK       I    between atoms: C20_30  and  N5_32 
REMARK   11  A    between atoms: N5_32  and  C21_34 
ROOT
HETATM    1  N2  UNL     1     -10.131 -19.518  16.525  1.00  0.00    -0.330 N 
ATOM      2  H2  UNL     1      -9.450 -19.823  17.220  1.00  0.00     0.165 HD
HETATM    3  C11 UNL     1     -11.407 -20.144  16.508  1.00  0.00     0.319 C 
HETATM    4  O3  UNL     1     -12.236 -19.743  15.635  1.00  0.00    -0.247 OA
HETATM    5  N3  UNL     1     -11.802 -21.160  17.385  1.00  0.00    -0.333 N 
HETATM    6  C12 UNL     1     -10.738 -21.504  18.322  1.00  0.00     0.127 C 
HETATM    7  C13 UNL     1     -11.161 -22.630  19.240  1.00  0.00     0.022 C 
HETATM    8  C14 UNL     1     -12.003 -22.011  20.337  1.00  0.00     0.021 C 
HETATM    9  C15 UNL     1     -13.321 -22.828  20.349  1.00  0.00     0.126 C 
HETATM   10  N4  UNL     1     -14.151 -22.446  19.244  1.00  0.00    -0.350 N 
HETATM   11  C16 UNL     1     -15.242 -23.285  19.003  1.00  0.00     0.237 C 
HETATM   12  O4  UNL     1     -16.000 -22.954  18.017  1.00  0.00    -0.272 OA
HETATM   13  C27 UNL     1     -14.062 -21.319  18.316  1.00  0.00     0.145 C 
HETATM   14  C28 UNL     1     -13.143 -21.613  17.157  1.00  0.00     0.147 C 
ENDROOT
BRANCH   1  15
HETATM   15  C6  UNL     1      -9.756 -18.483  15.616  1.00  0.00     0.178 C 
BRANCH  15  16
HETATM   16  C5  UNL     1      -8.301 -18.107  15.814  1.00  0.00     0.241 C 
HETATM   17  N1  UNL     1      -7.861 -17.487  17.002  1.00  0.00    -0.348 N 
ATOM     18  H1  UNL     1      -8.546 -17.295  17.733  1.00  0.00     0.163 HD
HETATM   19  O2  UNL     1      -7.454 -18.339  14.916  1.00  0.00    -0.271 OA
BRANCH  17  20
HETATM   20  C4  UNL     1      -6.476 -17.110  17.232  1.00  0.00     0.157 C 
BRANCH  20  21
HETATM   21  C3  UNL     1      -6.222 -15.737  16.790  1.00  0.00     0.149 C 
HETATM   22  O1  UNL     1      -7.228 -14.984  16.822  1.00  0.00    -0.296 OA
BRANCH  21  23
HETATM   23  C2  UNL     1      -4.995 -15.113  16.320  1.00  0.00     0.076 C 
HETATM   24  C1  UNL     1      -3.966 -16.142  15.853  1.00  0.00     0.013 C 
ENDBRANCH  21  23
ENDBRANCH  20  21
BRANCH  20  25
HETATM   25  C29 UNL     1      -6.201 -17.302  18.695  1.00  0.00     0.007 C 
HETATM   26  C30 UNL     1      -7.275 -18.069  19.416  1.00  0.00     0.012 C 
HETATM   27  C31 UNL     1      -4.838 -17.913  18.978  1.00  0.00     0.012 C 
ENDBRANCH  20  25
ENDBRANCH  17  20
ENDBRANCH  15  16
BRANCH  15  28
HETATM   28  C7  UNL     1     -10.539 -17.230  15.659  1.00  0.00     0.038 C 
BRANCH  28  29
HETATM   29  C8  UNL     1     -10.684 -16.449  14.408  1.00  0.00    -0.020 C 
HETATM   30  C9  UNL     1     -10.880 -17.491  13.284  1.00  0.00     0.009 C 
HETATM   31  C10 UNL     1      -9.525 -15.618  13.990  1.00  0.00     0.009 C 
ENDBRANCH  28  29
ENDBRANCH  15  28
ENDBRANCH   1  15
BRANCH  11  32
HETATM   32  C17 UNL     1     -15.658 -24.506  19.720  1.00  0.00     0.114 C 
HETATM   33  C18 UNL     1     -14.622 -25.636  19.440  1.00  0.00     0.035 C 
HETATM   34  C19 UNL     1     -15.539 -24.266  21.206  1.00  0.00     0.035 C 
BRANCH  32  35
HETATM   35  C20 UNL     1     -17.002 -25.003  19.334  1.00  0.00     0.235 C 
HETATM   36  O5  UNL     1     -18.010 -24.669  19.989  1.00  0.00    -0.272 OA
HETATM   37  N5  UNL     1     -17.147 -25.858  18.223  1.00  0.00    -0.355 N 
ATOM     38  H5  UNL     1     -16.311 -26.117  17.699  1.00  0.00     0.162 HD
BRANCH  37  39
HETATM   39  C21 UNL     1     -18.428 -26.391  17.785  1.00  0.00     0.087 C 
HETATM   40  C22 UNL     1     -18.463 -26.686  16.310  1.00  0.00     0.055 C 
HETATM   41  C23 UNL     1     -19.902 -26.931  15.909  1.00  0.00     0.274 C 
HETATM   42  N6  UNL     1     -20.643 -27.675  16.895  1.00  0.00     0.084 N 
HETATM   43  C24 UNL     1     -21.519 -28.601  16.218  1.00  0.00     0.309 C 
HETATM   44  C25 UNL     1     -19.727 -28.470  17.725  1.00  0.00     0.274 C 
HETATM   45  C26 UNL     1     -18.825 -27.608  18.560  1.00  0.00     0.055 C 
ENDBRANCH  37  39
ENDBRANCH  32  35
ENDBRANCH  11  32
TORSDOF 11
ENDMDL
MODEL 4
REMARK VINA RESULT: -9.218984532      2.410     11.574
REMARK  11 active torsions:
REMARK  status: ('A' for Active; 'I' for Inactive)
REMARK    1  A    between atoms: C2_2  and  C3_3 
REMARK    2  A    between atoms: C3_3  and  C4_5 
REMARK    3  A    between atoms: C4_5  and  N1_6 
REMARK    4  A    between atoms: C4_5  and  C29_43 
REMARK       I    between atoms: N1_6  and  C5_8 
REMARK    5  A    between atoms: C5_8  and  C6_10 
REMARK    6  A    between atoms: C6_10  and  C7_11 
REMARK    7  A    between atoms: C6_10  and  N2_15 
REMARK    8  A    between atoms: C7_11  and  C8_12 
REMARK       I    between atoms: N2_15  and  C11_17 
REMARK       I    between atoms: C11_17  and  N3_19 
REMARK       I    between atoms: N4_24  and  C16_25 
REMARK    9  A    between atoms: C16_25  and  C17_27 
REMARK   10  A    between atoms: C17_27  and  C20_30 
REMARK       I    between atoms: C20_30  and  N5_32 
REMARK   11  A    between atoms: N5_32  and  C21_34 
ROOT
HETATM    1  N2  UNL     1     -10.132 -19.185  19.067  1.00  0.00    -0.330 N 
ATOM      2  H2  UNL     1      -9.658 -19.625  19.856  1.00  0.00     0.165 HD
HETATM    3  C11 UNL     1     -11.316 -19.791  18.566  1.00  0.00     0.319 C 
HETATM    4  O3  UNL     1     -11.887 -19.222  17.587  1.00  0.00    -0.247 OA
HETATM    5  N3  UNL     1     -11.885 -20.961  19.081  1.00  0.00    -0.333 N 
HETATM    6  C12 UNL     1     -11.109 -21.489  20.198  1.00  0.00     0.127 C 
HETATM    7  C13 UNL     1     -11.711 -22.775  20.722  1.00  0.00     0.022 C 
HETATM    8  C14 UNL     1     -12.859 -22.386  21.630  1.00  0.00     0.021 C 
HETATM    9  C15 UNL     1     -14.081 -23.185  21.107  1.00  0.00     0.126 C 
HETATM   10  N4  UNL     1     -14.587 -22.587  19.906  1.00  0.00    -0.350 N 
HETATM   11  C16 UNL     1     -15.519 -23.358  19.207  1.00  0.00     0.237 C 
HETATM   12  O4  UNL     1     -15.986 -22.835  18.128  1.00  0.00    -0.272 OA
HETATM   13  C27 UNL     1     -14.303 -21.298  19.278  1.00  0.00     0.145 C 
HETATM   14  C28 UNL     1     -13.081 -21.356  18.395  1.00  0.00     0.147 C 
ENDROOT
BRANCH   1  15
HETATM   15  C6  UNL     1      -9.574 -17.990  18.521  1.00  0.00     0.178 C 
BRANCH  15  16
HETATM   16  C5  UNL     1      -9.316 -18.156  17.037  1.00  0.00     0.241 C 
HETATM   17  N1  UNL     1      -9.927 -17.307  16.090  1.00  0.00    -0.348 N 
ATOM     18  H1  UNL     1     -10.550 -16.573  16.425  1.00  0.00     0.163 HD
HETATM   19  O2  UNL     1      -8.551 -19.060  16.619  1.00  0.00    -0.271 OA
BRANCH  17  20
HETATM   20  C4  UNL     1      -9.708 -17.432  14.658  1.00  0.00     0.157 C 
BRANCH  20  21
HETATM   21  C3  UNL     1     -10.978 -17.494  13.932  1.00  0.00     0.149 C 
HETATM   22  O1  UNL     1     -11.983 -17.170  14.612  1.00  0.00    -0.296 OA
BRANCH  21  23
HETATM   23  C2  UNL     1     -11.257 -17.873  12.555  1.00  0.00     0.076 C 
HETATM   24  C1  UNL     1     -12.579 -18.627  12.419  1.00  0.00     0.013 C 
ENDBRANCH  21  23
ENDBRANCH  20  21
BRANCH  20  25
HETATM   25  C29 UNL     1      -8.861 -16.268  14.235  1.00  0.00     0.007 C 
HETATM   26  C30 UNL     1      -9.432 -14.932  14.626  1.00  0.00     0.012 C 
HETATM   27  C31 UNL     1      -7.415 -16.376  14.690  1.00  0.00     0.012 C 
ENDBRANCH  20  25
ENDBRANCH  17  20
ENDBRANCH  15  16
BRANCH  15  28
HETATM   28  C7  UNL     1      -8.321 -17.491  19.127  1.00  0.00     0.038 C 
BRANCH  28  29
HETATM   29  C8  UNL     1      -7.534 -18.418  19.975  1.00  0.00    -0.020 C 
HETATM   30  C9  UNL     1      -7.669 -17.882  21.418  1.00  0.00     0.009 C 
HETATM   31  C10 UNL     1      -6.074 -18.504  19.710  1.00  0.00     0.009 C 
ENDBRANCH  28  29
ENDBRANCH  15  28
ENDBRANCH   1  15
BRANCH  11  32
HETATM   32  C17 UNL     1     -16.052 -24.697  19.525  1.00  0.00     0.114 C 
HETATM   33  C18 UNL     1     -14.983 -25.769  19.158  1.00  0.00     0.035 C 
HETATM   34  C19 UNL     1     -16.192 -24.825  21.023  1.00  0.00     0.035 C 
BRANCH  32  35
HETATM   35  C20 UNL     1     -17.308 -25.031  18.810  1.00  0.00     0.235 C 
HETATM   36  O5  UNL     1     -18.400 -24.573  19.205  1.00  0.00    -0.272 OA
HETATM   37  N5  UNL     1     -17.276 -25.871  17.678  1.00  0.00    -0.355 N 
ATOM     38  H5  UNL     1     -16.373 -26.233  17.370  1.00  0.00     0.162 HD
BRANCH  37  39
HETATM   39  C21 UNL     1     -18.463 -26.249  16.928  1.00  0.00     0.087 C 
HETATM   40  C22 UNL     1     -18.157 -26.620  15.502  1.00  0.00     0.055 C 
HETATM   41  C23 UNL     1     -19.463 -26.689  14.739  1.00  0.00     0.274 C 
HETATM   42  N6  UNL     1     -20.535 -27.269  15.508  1.00  0.00     0.084 N 
HETATM   43  C24 UNL     1     -21.331 -28.104  14.641  1.00  0.00     0.309 C 
HETATM   44  C25 UNL     1     -19.991 -28.133  16.565  1.00  0.00     0.274 C 
HETATM   45  C26 UNL     1     -19.220 -27.355  17.593  1.00  0.00     0.055 C 
ENDBRANCH  37  39
ENDBRANCH  32  35
ENDBRANCH  11  32
TORSDOF 11
ENDMDL
MODEL 5
REMARK VINA RESULT: -9.152862439      2.901      5.308
REMARK  11 active torsions:
REMARK  status: ('A' for Active; 'I' for Inactive)
REMARK    1  A    between atoms: C2_2  and  C3_3 
REMARK    2  A    between atoms: C3_3  and  C4_5 
REMARK    3  A    between atoms: C4_5  and  N1_6 
REMARK    4  A    between atoms: C4_5  and  C29_43 
REMARK       I    between atoms: N1_6  and  C5_8 
REMARK    5  A    between atoms: C5_8  and  C6_10 
REMARK    6  A    between atoms: C6_10  and  C7_11 
REMARK    7  A    between atoms: C6_10  and  N2_15 
REMARK    8  A    between atoms: C7_11  and  C8_12 
REMARK       I    between atoms: N2_15  and  C11_17 
REMARK       I    between atoms: C11_17  and  N3_19 
REMARK       I    between atoms: N4_24  and  C16_25 
REMARK    9  A    between atoms: C16_25  and  C17_27 
REMARK   10  A    between atoms: C17_27  and  C20_30 
REMARK       I    between atoms: C20_30  and  N5_32 
REMARK   11  A    between atoms: N5_32  and  C21_34 
ROOT
HETATM    1  N2  UNL     1     -13.091 -21.893  18.057  1.00  0.00    -0.330 N 
ATOM      2  H2  UNL     1     -13.312 -21.321  18.871  1.00  0.00     0.165 HD
HETATM    3  C11 UNL     1     -12.186 -21.375  17.091  1.00  0.00     0.319 C 
HETATM    4  O3  UNL     1     -11.928 -22.109  16.089  1.00  0.00    -0.247 OA
HETATM    5  N3  UNL     1     -11.569 -20.123  17.177  1.00  0.00    -0.333 N 
HETATM    6  C12 UNL     1     -11.972 -19.407  18.383  1.00  0.00     0.127 C 
HETATM    7  C13 UNL     1     -11.329 -18.039  18.447  1.00  0.00     0.022 C 
HETATM    8  C14 UNL     1      -9.920 -18.238  18.968  1.00  0.00     0.021 C 
HETATM    9  C15 UNL     1      -9.001 -17.534  17.936  1.00  0.00     0.126 C 
HETATM   10  N4  UNL     1      -8.874 -18.337  16.756  1.00  0.00    -0.350 N 
HETATM   11  C16 UNL     1      -8.283 -17.697  15.663  1.00  0.00     0.237 C 
HETATM   12  O4  UNL     1      -8.159 -18.406  14.596  1.00  0.00    -0.272 OA
HETATM   13  C27 UNL     1      -9.252 -19.724  16.489  1.00  0.00     0.145 C 
HETATM   14  C28 UNL     1     -10.697 -19.846  16.073  1.00  0.00     0.147 C 
ENDROOT
BRANCH   1  15
HETATM   15  C6  UNL     1     -13.708 -23.176  17.942  1.00  0.00     0.178 C 
BRANCH  15  16
HETATM   16  C5  UNL     1     -15.089 -23.047  17.333  1.00  0.00     0.241 C 
HETATM   17  N1  UNL     1     -15.262 -22.866  15.945  1.00  0.00    -0.348 N 
ATOM     18  H1  UNL     1     -14.433 -22.823  15.353  1.00  0.00     0.163 HD
HETATM   19  O2  UNL     1     -16.114 -23.098  18.059  1.00  0.00    -0.271 OA
BRANCH  17  20
HETATM   20  C4  UNL     1     -16.569 -22.738  15.321  1.00  0.00     0.157 C 
BRANCH  20  21
HETATM   21  C3  UNL     1     -16.991 -21.336  15.262  1.00  0.00     0.149 C 
HETATM   22  O1  UNL     1     -18.105 -21.149  14.712  1.00  0.00    -0.296 OA
BRANCH  21  23
HETATM   23  C2  UNL     1     -16.324 -20.134  15.737  1.00  0.00     0.076 C 
HETATM   24  C1  UNL     1     -15.006 -19.878  15.008  1.00  0.00     0.013 C 
ENDBRANCH  21  23
ENDBRANCH  20  21
BRANCH  20  25
HETATM   25  C29 UNL     1     -16.476 -23.366  13.962  1.00  0.00     0.007 C 
HETATM   26  C30 UNL     1     -15.064 -23.632  13.514  1.00  0.00     0.012 C 
HETATM   27  C31 UNL     1     -17.318 -24.623  13.818  1.00  0.00     0.012 C 
ENDBRANCH  20  25
ENDBRANCH  17  20
ENDBRANCH  15  16
BRANCH  15  28
HETATM   28  C7  UNL     1     -13.850 -23.970  19.181  1.00  0.00     0.038 C 
BRANCH  28  29
HETATM   29  C8  UNL     1     -14.147 -23.253  20.443  1.00  0.00    -0.020 C 
HETATM   30  C9  UNL     1     -12.777 -22.982  21.105  1.00  0.00     0.009 C 
HETATM   31  C10 UNL     1     -14.950 -23.979  21.462  1.00  0.00     0.009 C 
ENDBRANCH  28  29
ENDBRANCH  15  28
ENDBRANCH   1  15
BRANCH  11  32
HETATM   32  C17 UNL     1      -7.776 -16.316  15.551  1.00  0.00     0.114 C 
HETATM   33  C18 UNL     1      -7.775 -15.896  14.050  1.00  0.00     0.035 C 
HETATM   34  C19 UNL     1      -8.772 -15.376  16.187  1.00  0.00     0.035 C 
BRANCH  32  35
HETATM   35  C20 UNL     1      -6.404 -16.132  16.085  1.00  0.00     0.235 C 
HETATM   36  O5  UNL     1      -6.026 -15.010  16.480  1.00  0.00    -0.272 OA
HETATM   37  N5  UNL     1      -5.518 -17.226  16.148  1.00  0.00    -0.355 N 
ATOM     38  H5  UNL     1      -5.847 -18.135  15.822  1.00  0.00     0.162 HD
BRANCH  37  39
HETATM   39  C21 UNL     1      -4.157 -17.125  16.652  1.00  0.00     0.087 C 
HETATM   40  C22 UNL     1      -3.701 -18.378  17.350  1.00  0.00     0.055 C 
HETATM   41  C23 UNL     1      -2.420 -18.066  18.095  1.00  0.00     0.274 C 
HETATM   42  N6  UNL     1      -1.543 -17.188  17.365  1.00  0.00     0.084 N 
HETATM   43  C24 UNL     1      -0.180 -17.620  17.565  1.00  0.00     0.309 C 
HETATM   44  C25 UNL     1      -1.820 -17.276  15.925  1.00  0.00     0.274 C 
HETATM   45  C26 UNL     1      -3.185 -16.755  15.576  1.00  0.00     0.055 C 
ENDBRANCH  37  39
ENDBRANCH  32  35
ENDBRANCH  11  32
TORSDOF 11
ENDMDL
