MODEL 1
REMARK VINA RESULT: -3.701265404      0.000      0.000
REMARK  5 active torsions:
REMARK  status: ('A' for Active; 'I' for Inactive)
REMARK    1  A    between atoms: N1_2  and  C2_3 
REMARK    2  A    between atoms: C2_3  and  C3_4 
REMARK    3  A    between atoms: C3_4  and  N2_5 
REMARK    4  A    between atoms: N2_5  and  C4_7 
REMARK    5  A    between atoms: N3_8  and  N4_10 
ROOT
HETATM    1  N2  UNL     1     -23.377 -18.278 -18.644  1.00  0.00    -0.383 N 
ATOM      2  H2  UNL     1     -22.647 -17.567 -18.659  1.00  0.00     0.160 HD
ENDROOT
BRANCH   1   3
HETATM    3  C3  UNL     1     -23.620 -19.009 -17.413  1.00  0.00     0.148 C 
BRANCH   3   4
HETATM    4  C2  UNL     1     -24.886 -19.777 -17.601  1.00  0.00     0.256 C 
BRANCH   4   5
HETATM    5  N1  UNL     1     -25.891 -19.553 -16.604  1.00  0.00    -0.066 N 
HETATM    6  C1  UNL     1     -25.522 -18.497 -15.659  1.00  0.00     0.272 C 
HETATM    7  C5  UNL     1     -26.623 -20.675 -16.052  1.00  0.00     0.265 A 
HETATM    8  C6  UNL     1     -27.286 -19.625 -16.914  1.00  0.00     0.265 A 
ENDBRANCH   4   5
ENDBRANCH   3   4
ENDBRANCH   1   3
BRANCH   1   9
HETATM    9  C4  UNL     1     -24.119 -18.520 -19.822  1.00  0.00     0.194 C 
HETATM   10  N3  UNL     1     -23.827 -17.915 -20.909  1.00  0.00    -0.283 N 
ATOM     11  H3  UNL     1     -24.364 -18.090 -21.759  1.00  0.00     0.189 HD
BRANCH  10  12
HETATM   12  N4  UNL     1     -22.766 -17.011 -20.916  1.00  0.00    -0.248 N 
HETATM   13  N5  UNL     1     -22.667 -16.125 -21.815  1.00  0.00    -0.331 N 
ATOM     14  H52 UNL     1     -23.384 -16.086 -22.539  1.00  0.00     0.178 HD
ATOM     15  H51 UNL     1     -21.890 -15.464 -21.820  1.00  0.00     0.178 HD
ATOM     16  H4  UNL     1     -22.057 -17.064 -20.185  1.00  0.00     0.207 HD
ENDBRANCH  10  12
ENDBRANCH   1   9
TORSDOF 5
ENDMDL
MODEL 2
REMARK VINA RESULT: -3.701017558      0.963      1.718
REMARK  5 active torsions:
REMARK  status: ('A' for Active; 'I' for Inactive)
REMARK    1  A    between atoms: N1_2  and  C2_3 
REMARK    2  A    between atoms: C2_3  and  C3_4 
REMARK    3  A    between atoms: C3_4  and  N2_5 
REMARK    4  A    between atoms: N2_5  and  C4_7 
REMARK    5  A    between atoms: N3_8  and  N4_10 
ROOT
HETATM    1  N2  UNL     1     -24.351 -18.688 -19.589  1.00  0.00    -0.383 N 
ATOM      2  H2  UNL     1     -24.653 -18.729 -20.562  1.00  0.00     0.160 HD
ENDROOT
BRANCH   1   3
HETATM    3  C3  UNL     1     -25.093 -19.438 -18.593  1.00  0.00     0.148 C 
BRANCH   3   4
HETATM    4  C2  UNL     1     -24.642 -18.956 -17.253  1.00  0.00     0.256 C 
BRANCH   4   5
HETATM    5  N1  UNL     1     -25.592 -19.115 -16.193  1.00  0.00    -0.066 N 
HETATM    6  C1  UNL     1     -26.897 -19.581 -16.671  1.00  0.00     0.272 C 
HETATM    7  C5  UNL     1     -25.616 -18.169 -15.097  1.00  0.00     0.265 A 
HETATM    8  C6  UNL     1     -25.208 -19.612 -14.908  1.00  0.00     0.265 A 
ENDBRANCH   4   5
ENDBRANCH   3   4
ENDBRANCH   1   3
BRANCH   1   9
HETATM    9  C4  UNL     1     -23.224 -17.904 -19.256  1.00  0.00     0.194 C 
HETATM   10  N3  UNL     1     -22.640 -17.195 -20.145  1.00  0.00    -0.283 N 
ATOM     11  H3  UNL     1     -21.826 -16.630 -19.903  1.00  0.00     0.189 HD
BRANCH  10  12
HETATM   12  N4  UNL     1     -23.131 -17.207 -21.450  1.00  0.00    -0.248 N 
HETATM   13  N5  UNL     1     -23.040 -16.186 -22.192  1.00  0.00    -0.331 N 
ATOM     14  H52 UNL     1     -22.597 -15.349 -21.814  1.00  0.00     0.178 HD
ATOM     15  H51 UNL     1     -23.400 -16.195 -23.147  1.00  0.00     0.178 HD
ATOM     16  H4  UNL     1     -23.572 -18.052 -21.812  1.00  0.00     0.207 HD
ENDBRANCH  10  12
ENDBRANCH   1   9
TORSDOF 5
ENDMDL
MODEL 3
REMARK VINA RESULT: -3.694663064      0.470      1.334
REMARK  5 active torsions:
REMARK  status: ('A' for Active; 'I' for Inactive)
REMARK    1  A    between atoms: N1_2  and  C2_3 
REMARK    2  A    between atoms: C2_3  and  C3_4 
REMARK    3  A    between atoms: C3_4  and  N2_5 
REMARK    4  A    between atoms: N2_5  and  C4_7 
REMARK    5  A    between atoms: N3_8  and  N4_10 
ROOT
HETATM    1  N2  UNL     1     -23.420 -18.254 -18.639  1.00  0.00    -0.383 N 
ATOM      2  H2  UNL     1     -22.753 -17.483 -18.619  1.00  0.00     0.160 HD
ENDROOT
BRANCH   1   3
HETATM    3  C3  UNL     1     -23.611 -19.047 -17.438  1.00  0.00     0.148 C 
BRANCH   3   4
HETATM    4  C2  UNL     1     -24.993 -19.609 -17.497  1.00  0.00     0.256 C 
BRANCH   4   5
HETATM    5  N1  UNL     1     -25.803 -19.363 -16.341  1.00  0.00    -0.066 N 
HETATM    6  C1  UNL     1     -27.235 -19.510 -16.614  1.00  0.00     0.272 C 
HETATM    7  C5  UNL     1     -25.435 -18.314 -15.413  1.00  0.00     0.265 A 
HETATM    8  C6  UNL     1     -25.392 -19.776 -15.035  1.00  0.00     0.265 A 
ENDBRANCH   4   5
ENDBRANCH   3   4
ENDBRANCH   1   3
BRANCH   1   9
HETATM    9  C4  UNL     1     -24.128 -18.514 -19.834  1.00  0.00     0.194 C 
HETATM   10  N3  UNL     1     -23.814 -17.915 -20.918  1.00  0.00    -0.283 N 
ATOM     11  H3  UNL     1     -24.326 -18.103 -21.780  1.00  0.00     0.189 HD
BRANCH  10  12
HETATM   12  N4  UNL     1     -22.762 -17.000 -20.906  1.00  0.00    -0.248 N 
HETATM   13  N5  UNL     1     -22.634 -16.138 -21.823  1.00  0.00    -0.331 N 
ATOM     14  H52 UNL     1     -23.320 -16.125 -22.577  1.00  0.00     0.178 HD
ATOM     15  H51 UNL     1     -21.863 -15.468 -21.814  1.00  0.00     0.178 HD
ATOM     16  H4  UNL     1     -22.083 -17.027 -20.144  1.00  0.00     0.207 HD
ENDBRANCH  10  12
ENDBRANCH   1   9
TORSDOF 5
ENDMDL
MODEL 4
REMARK VINA RESULT: -3.689812706      0.917      1.081
REMARK  5 active torsions:
REMARK  status: ('A' for Active; 'I' for Inactive)
REMARK    1  A    between atoms: N1_2  and  C2_3 
REMARK    2  A    between atoms: C2_3  and  C3_4 
REMARK    3  A    between atoms: C3_4  and  N2_5 
REMARK    4  A    between atoms: N2_5  and  C4_7 
REMARK    5  A    between atoms: N3_8  and  N4_10 
ROOT
HETATM    1  N2  UNL     1     -24.343 -18.692 -19.582  1.00  0.00    -0.383 N 
ATOM      2  H2  UNL     1     -24.643 -18.739 -20.556  1.00  0.00     0.160 HD
ENDROOT
BRANCH   1   3
HETATM    3  C3  UNL     1     -25.078 -19.450 -18.585  1.00  0.00     0.148 C 
BRANCH   3   4
HETATM    4  C2  UNL     1     -24.756 -18.854 -17.255  1.00  0.00     0.256 C 
BRANCH   4   5
HETATM    5  N1  UNL     1     -25.704 -19.126 -16.216  1.00  0.00    -0.066 N 
HETATM    6  C1  UNL     1     -25.570 -18.217 -15.076  1.00  0.00     0.272 C 
HETATM    7  C5  UNL     1     -26.055 -20.496 -15.901  1.00  0.00     0.265 A 
HETATM    8  C6  UNL     1     -27.044 -19.531 -16.511  1.00  0.00     0.265 A 
ENDBRANCH   4   5
ENDBRANCH   3   4
ENDBRANCH   1   3
BRANCH   1   9
HETATM    9  C4  UNL     1     -23.228 -17.891 -19.248  1.00  0.00     0.194 C 
HETATM   10  N3  UNL     1     -22.648 -17.182 -20.139  1.00  0.00    -0.283 N 
ATOM     11  H3  UNL     1     -21.842 -16.605 -19.897  1.00  0.00     0.189 HD
BRANCH  10  12
HETATM   12  N4  UNL     1     -23.131 -17.210 -21.447  1.00  0.00    -0.248 N 
HETATM   13  N5  UNL     1     -23.040 -16.196 -22.199  1.00  0.00    -0.331 N 
ATOM     14  H52 UNL     1     -22.604 -15.353 -21.827  1.00  0.00     0.178 HD
ATOM     15  H51 UNL     1     -23.394 -16.217 -23.156  1.00  0.00     0.178 HD
ATOM     16  H4  UNL     1     -23.565 -18.061 -21.803  1.00  0.00     0.207 HD
ENDBRANCH  10  12
ENDBRANCH   1   9
TORSDOF 5
ENDMDL
MODEL 5
REMARK VINA RESULT: -3.642886589      3.317      3.853
REMARK  5 active torsions:
REMARK  status: ('A' for Active; 'I' for Inactive)
REMARK    1  A    between atoms: N1_2  and  C2_3 
REMARK    2  A    between atoms: C2_3  and  C3_4 
REMARK    3  A    between atoms: C3_4  and  N2_5 
REMARK    4  A    between atoms: N2_5  and  C4_7 
REMARK    5  A    between atoms: N3_8  and  N4_10 
ROOT
HETATM    1  N2  UNL     1     -21.685 -17.328 -19.212  1.00  0.00    -0.383 N 
ATOM      2  H2  UNL     1     -21.325 -16.582 -19.807  1.00  0.00     0.160 HD
ENDROOT
BRANCH   1   3
HETATM    3  C3  UNL     1     -20.817 -17.894 -18.195  1.00  0.00     0.148 C 
BRANCH   3   4
HETATM    4  C2  UNL     1     -21.683 -18.687 -17.271  1.00  0.00     0.256 C 
BRANCH   4   5
HETATM    5  N1  UNL     1     -20.988 -19.380 -16.227  1.00  0.00    -0.066 N 
HETATM    6  C1  UNL     1     -21.126 -18.723 -14.925  1.00  0.00     0.272 C 
HETATM    7  C5  UNL     1     -19.704 -19.993 -16.498  1.00  0.00     0.265 A 
HETATM    8  C6  UNL     1     -20.936 -20.809 -16.180  1.00  0.00     0.265 A 
ENDBRANCH   4   5
ENDBRANCH   3   4
ENDBRANCH   1   3
BRANCH   1   9
HETATM    9  C4  UNL     1     -23.011 -17.776 -19.405  1.00  0.00     0.194 C 
HETATM   10  N3  UNL     1     -23.551 -17.727 -20.562  1.00  0.00    -0.283 N 
ATOM     11  H3  UNL     1     -24.509 -18.050 -20.700  1.00  0.00     0.189 HD
BRANCH  10  12
HETATM   12  N4  UNL     1     -22.813 -17.225 -21.633  1.00  0.00    -0.248 N 
HETATM   13  N5  UNL     1     -23.089 -16.104 -22.150  1.00  0.00    -0.331 N 
ATOM     14  H52 UNL     1     -23.869 -15.571 -21.765  1.00  0.00     0.178 HD
ATOM     15  H51 UNL     1     -22.549 -15.737 -22.934  1.00  0.00     0.178 HD
ATOM     16  H4  UNL     1     -22.036 -17.772 -22.006  1.00  0.00     0.207 HD
ENDBRANCH  10  12
ENDBRANCH   1   9
TORSDOF 5
ENDMDL
