MODEL 1
REMARK VINA RESULT: -3.249013166      0.000      0.000
REMARK  5 active torsions:
REMARK  status: ('A' for Active; 'I' for Inactive)
REMARK    1  A    between atoms: C3_4  and  C4_5 
REMARK    2  A    between atoms: C4_5  and  N2_6 
REMARK    3  A    between atoms: N2_6  and  C5_8 
REMARK    4  A    between atoms: C6_10  and  N3_11 
REMARK    5  A    between atoms: N3_11  and  C7_13 
ROOT
HETATM    1  C1  UNL     1     -25.113 -20.892 -17.613  1.00  0.00     0.275 C 
HETATM    2  N1  UNL     1     -25.004 -19.529 -17.163  1.00  0.00    -0.039 N 
HETATM    3  C2  UNL     1     -26.100 -19.153 -16.282  1.00  0.00     0.275 C 
HETATM    4  C3  UNL     1     -24.427 -18.531 -18.054  1.00  0.00     0.280 A 
HETATM    5  C6  UNL     1     -23.714 -18.946 -16.920  1.00  0.00     0.326 A 
ENDROOT
BRANCH   5   6
HETATM    6  N3  UNL     1     -22.517 -19.733 -16.806  1.00  0.00    -0.357 N 
ATOM      7  H3  UNL     1     -22.571 -20.721 -17.051  1.00  0.00     0.162 HD
BRANCH   6   8
HETATM    8  C7  UNL     1     -21.270 -19.227 -16.375  1.00  0.00     0.170 C 
HETATM    9  N4  UNL     1     -20.640 -18.387 -17.106  1.00  0.00    -0.395 N 
ATOM     10  H42 UNL     1     -21.051 -18.094 -17.992  1.00  0.00     0.156 HD
ATOM     11  H41 UNL     1     -19.740 -18.022 -16.796  1.00  0.00     0.156 HD
ENDBRANCH   6   8
ENDBRANCH   5   6
BRANCH   4  12
HETATM   12  C4  UNL     1     -24.346 -18.756 -19.495  1.00  0.00     0.100 C 
BRANCH  12  13
HETATM   13  N2  UNL     1     -23.615 -17.956 -20.370  1.00  0.00    -0.346 N 
ATOM     14  H2  UNL     1     -23.783 -17.997 -21.375  1.00  0.00     0.167 HD
BRANCH  13  15
HETATM   15  C5  UNL     1     -22.629 -17.078 -19.836  1.00  0.00     0.352 C 
HETATM   16  O1  UNL     1     -21.440 -17.441 -19.834  1.00  0.00    -0.283 OA
ENDBRANCH  13  15
ENDBRANCH  12  13
ENDBRANCH   4  12
TORSDOF 5
ENDMDL
MODEL 2
REMARK VINA RESULT: -3.217852300     10.491     11.888
REMARK  5 active torsions:
REMARK  status: ('A' for Active; 'I' for Inactive)
REMARK    1  A    between atoms: C3_4  and  C4_5 
REMARK    2  A    between atoms: C4_5  and  N2_6 
REMARK    3  A    between atoms: N2_6  and  C5_8 
REMARK    4  A    between atoms: C6_10  and  N3_11 
REMARK    5  A    between atoms: N3_11  and  C7_13 
ROOT
HETATM    1  C1  UNL     1     -32.889 -10.745 -12.711  1.00  0.00     0.275 C 
HETATM    2  N1  UNL     1     -32.226 -11.394 -11.612  1.00  0.00    -0.039 N 
HETATM    3  C2  UNL     1     -33.092 -11.526 -10.449  1.00  0.00     0.275 C 
HETATM    4  C3  UNL     1     -30.797 -11.183 -11.418  1.00  0.00     0.280 A 
HETATM    5  C6  UNL     1     -31.263 -12.432 -11.854  1.00  0.00     0.326 A 
ENDROOT
BRANCH   5   6
HETATM    6  N3  UNL     1     -31.133 -13.084 -13.128  1.00  0.00    -0.357 N 
ATOM      7  H3  UNL     1     -31.975 -13.204 -13.691  1.00  0.00     0.162 HD
BRANCH   6   8
HETATM    8  C7  UNL     1     -29.914 -13.571 -13.652  1.00  0.00     0.170 C 
HETATM    9  N4  UNL     1     -29.866 -13.990 -14.860  1.00  0.00    -0.395 N 
ATOM     10  H42 UNL     1     -30.713 -13.967 -15.428  1.00  0.00     0.156 HD
ATOM     11  H41 UNL     1     -28.987 -14.341 -15.238  1.00  0.00     0.156 HD
ENDBRANCH   6   8
ENDBRANCH   5   6
BRANCH   4  12
HETATM   12  C4  UNL     1     -30.111 -10.042 -12.019  1.00  0.00     0.100 C 
BRANCH  12  13
HETATM   13  N2  UNL     1     -28.960 -10.145 -12.798  1.00  0.00    -0.346 N 
ATOM     14  H2  UNL     1     -28.960  -9.832 -13.769  1.00  0.00     0.167 HD
BRANCH  13  15
HETATM   15  C5  UNL     1     -27.784 -10.695 -12.214  1.00  0.00     0.352 C 
HETATM   16  O1  UNL     1     -27.282 -10.129 -11.227  1.00  0.00    -0.283 OA
ENDBRANCH  13  15
ENDBRANCH  12  13
ENDBRANCH   4  12
TORSDOF 5
ENDMDL
MODEL 3
REMARK VINA RESULT: -3.202020933     10.641     12.211
REMARK  5 active torsions:
REMARK  status: ('A' for Active; 'I' for Inactive)
REMARK    1  A    between atoms: C3_4  and  C4_5 
REMARK    2  A    between atoms: C4_5  and  N2_6 
REMARK    3  A    between atoms: N2_6  and  C5_8 
REMARK    4  A    between atoms: C6_10  and  N3_11 
REMARK    5  A    between atoms: N3_11  and  C7_13 
ROOT
HETATM    1  C1  UNL     1     -29.536 -12.037 -10.933  1.00  0.00     0.275 C 
HETATM    2  N1  UNL     1     -29.313 -11.039 -11.945  1.00  0.00    -0.039 N 
HETATM    3  C2  UNL     1     -27.975 -10.469 -11.869  1.00  0.00     0.275 C 
HETATM    4  C3  UNL     1     -30.424 -10.200 -12.374  1.00  0.00     0.280 A 
HETATM    5  C6  UNL     1     -29.912 -11.174 -13.244  1.00  0.00     0.326 A 
ENDROOT
BRANCH   5   6
HETATM    6  N3  UNL     1     -30.488 -12.408 -13.706  1.00  0.00    -0.357 N 
ATOM      7  H3  UNL     1     -31.490 -12.545 -13.574  1.00  0.00     0.162 HD
BRANCH   6   8
HETATM    8  C7  UNL     1     -29.757 -13.443 -14.331  1.00  0.00     0.170 C 
HETATM    9  N4  UNL     1     -30.369 -14.307 -15.049  1.00  0.00    -0.395 N 
ATOM     10  H42 UNL     1     -31.380 -14.234 -15.160  1.00  0.00     0.156 HD
ATOM     11  H41 UNL     1     -29.841 -15.053 -15.501  1.00  0.00     0.156 HD
ENDBRANCH   6   8
ENDBRANCH   5   6
BRANCH   4  12
HETATM   12  C4  UNL     1     -31.618 -10.042 -11.548  1.00  0.00     0.100 C 
BRANCH  12  13
HETATM   13  N2  UNL     1     -32.863 -10.581 -11.865  1.00  0.00    -0.346 N 
ATOM     14  H2  UNL     1     -33.515 -10.068 -12.459  1.00  0.00     0.167 HD
BRANCH  13  15
HETATM   15  C5  UNL     1     -33.209 -11.860 -11.345  1.00  0.00     0.352 C 
HETATM   16  O1  UNL     1     -32.855 -12.877 -11.967  1.00  0.00    -0.283 OA
ENDBRANCH  13  15
ENDBRANCH  12  13
ENDBRANCH   4  12
TORSDOF 5
ENDMDL
MODEL 4
REMARK VINA RESULT: -3.197467028      9.005     10.477
REMARK  5 active torsions:
REMARK  status: ('A' for Active; 'I' for Inactive)
REMARK    1  A    between atoms: C3_4  and  C4_5 
REMARK    2  A    between atoms: C4_5  and  N2_6 
REMARK    3  A    between atoms: N2_6  and  C5_8 
REMARK    4  A    between atoms: C6_10  and  N3_11 
REMARK    5  A    between atoms: N3_11  and  C7_13 
ROOT
HETATM    1  C1  UNL     1     -27.515 -13.495 -11.238  1.00  0.00     0.275 C 
HETATM    2  N1  UNL     1     -27.340 -13.359 -12.660  1.00  0.00    -0.039 N 
HETATM    3  C2  UNL     1     -26.157 -14.061 -13.137  1.00  0.00     0.275 C 
HETATM    4  C3  UNL     1     -27.748 -12.121 -13.311  1.00  0.00     0.280 A 
HETATM    5  C6  UNL     1     -28.481 -13.297 -13.529  1.00  0.00     0.326 A 
ENDROOT
BRANCH   5   6
HETATM    6  N3  UNL     1     -29.802 -13.666 -13.101  1.00  0.00    -0.357 N 
ATOM      7  H3  UNL     1     -30.030 -13.559 -12.112  1.00  0.00     0.162 HD
BRANCH   6   8
HETATM    8  C7  UNL     1     -30.807 -14.169 -13.958  1.00  0.00     0.170 C 
HETATM    9  N4  UNL     1     -30.494 -14.570 -15.132  1.00  0.00    -0.395 N 
ATOM     10  H42 UNL     1     -29.521 -14.521 -15.432  1.00  0.00     0.156 HD
ATOM     11  H41 UNL     1     -31.219 -14.933 -15.751  1.00  0.00     0.156 HD
ENDBRANCH   6   8
ENDBRANCH   5   6
BRANCH   4  12
HETATM   12  C4  UNL     1     -27.930 -10.888 -12.549  1.00  0.00     0.100 C 
BRANCH  12  13
HETATM   13  N2  UNL     1     -29.029 -10.043 -12.684  1.00  0.00    -0.346 N 
ATOM     14  H2  UNL     1     -29.038  -9.313 -13.396  1.00  0.00     0.167 HD
BRANCH  13  15
HETATM   15  C5  UNL     1     -30.138 -10.216 -11.809  1.00  0.00     0.352 C 
HETATM   16  O1  UNL     1     -30.151 -11.194 -11.041  1.00  0.00    -0.283 OA
ENDBRANCH  13  15
ENDBRANCH  12  13
ENDBRANCH   4  12
TORSDOF 5
ENDMDL
MODEL 5
REMARK VINA RESULT: -3.186191512      9.695     11.125
REMARK  5 active torsions:
REMARK  status: ('A' for Active; 'I' for Inactive)
REMARK    1  A    between atoms: C3_4  and  C4_5 
REMARK    2  A    between atoms: C4_5  and  N2_6 
REMARK    3  A    between atoms: N2_6  and  C5_8 
REMARK    4  A    between atoms: C6_10  and  N3_11 
REMARK    5  A    between atoms: N3_11  and  C7_13 
ROOT
HETATM    1  C1  UNL     1     -31.085 -10.341 -14.061  1.00  0.00     0.275 C 
HETATM    2  N1  UNL     1     -31.724 -11.445 -13.395  1.00  0.00    -0.039 N 
HETATM    3  C2  UNL     1     -33.171 -11.425 -13.564  1.00  0.00     0.275 C 
HETATM    4  C3  UNL     1     -31.156 -11.951 -12.153  1.00  0.00     0.280 A 
HETATM    5  C6  UNL     1     -31.074 -12.723 -13.321  1.00  0.00     0.326 A 
ENDROOT
BRANCH   5   6
HETATM    6  N3  UNL     1     -29.940 -13.064 -14.137  1.00  0.00    -0.357 N 
ATOM      7  H3  UNL     1     -29.743 -12.476 -14.947  1.00  0.00     0.162 HD
BRANCH   6   8
HETATM    8  C7  UNL     1     -29.082 -14.159 -13.890  1.00  0.00     0.170 C 
HETATM    9  N4  UNL     1     -27.886 -13.948 -13.488  1.00  0.00    -0.395 N 
ATOM     10  H42 UNL     1     -27.570 -12.989 -13.351  1.00  0.00     0.156 HD
ATOM     11  H41 UNL     1     -27.267 -14.738 -13.310  1.00  0.00     0.156 HD
ENDBRANCH   6   8
ENDBRANCH   5   6
BRANCH   4  12
HETATM   12  C4  UNL     1     -30.240 -11.142 -11.353  1.00  0.00     0.100 C 
BRANCH  12  13
HETATM   13  N2  UNL     1     -28.873 -11.392 -11.241  1.00  0.00    -0.346 N 
ATOM     14  H2  UNL     1     -28.528 -12.120 -10.616  1.00  0.00     0.167 HD
BRANCH  13  15
HETATM   15  C5  UNL     1     -27.968 -10.612 -12.015  1.00  0.00     0.352 C 
HETATM   16  O1  UNL     1     -27.675 -10.993 -13.161  1.00  0.00    -0.283 OA
ENDBRANCH  13  15
ENDBRANCH  12  13
ENDBRANCH   4  12
TORSDOF 5
ENDMDL
