MODEL 1
REMARK VINA RESULT: -4.238554675      0.000      0.000
REMARK  6 active torsions:
REMARK  status: ('A' for Active; 'I' for Inactive)
REMARK    1  A    between atoms: N1_1  and  C1_5 
REMARK    2  A    between atoms: C1_5  and  C2_6 
REMARK    3  A    between atoms: C2_6  and  N2_7 
REMARK    4  A    between atoms: C3_9  and  C4_10 
REMARK    5  A    between atoms: C5_11  and  C6_12 
REMARK    6  A    between atoms: C6_12  and  C7_13 
ROOT
HETATM    1  N2  UNL     1     -21.946 -17.546 -19.251  1.00  0.00    -0.397 N 
ATOM      2  H2  UNL     1     -22.722 -18.024 -18.791  1.00  0.00     0.158 HD
HETATM    3  C3  UNL     1     -20.786 -17.545 -18.677  1.00  0.00     0.082 C 
ENDROOT
BRANCH   3   4
HETATM    4  C4  UNL     1     -20.606 -18.212 -17.409  1.00  0.00     0.013 C 
HETATM    5  C5  UNL     1     -19.618 -19.047 -17.226  1.00  0.00    -0.023 C 
BRANCH   5   6
HETATM    6  C6  UNL     1     -18.617 -19.393 -18.238  1.00  0.00     0.062 C 
BRANCH   6   7
HETATM    7  C7  UNL     1     -17.762 -20.504 -17.660  1.00  0.00     0.214 A 
HETATM    8  C8  UNL     1     -17.859 -21.797 -18.444  1.00  0.00     0.266 A 
HETATM    9  N3  UNL     1     -16.648 -21.003 -18.426  1.00  0.00    -0.067 N 
ATOM     10  H32 UNL     1     -16.069 -20.597 -19.161  1.00  0.00     0.277 HD
ATOM     11  H31 UNL     1     -15.678 -21.215 -18.190  1.00  0.00     0.277 HD
ENDBRANCH   6   7
ENDBRANCH   5   6
ENDBRANCH   3   4
BRANCH   1  12
HETATM   12  C2  UNL     1     -22.182 -16.894 -20.522  1.00  0.00     0.146 C 
BRANCH  12  13
HETATM   13  C1  UNL     1     -23.361 -17.566 -21.208  1.00  0.00     0.249 C 
BRANCH  13  14
HETATM   14  N1  UNL     1     -24.161 -18.322 -20.293  1.00  0.00    -0.078 N 
ATOM     15  H13 UNL     1     -23.642 -18.538 -19.442  1.00  0.00     0.274 HD
ATOM     16  H12 UNL     1     -24.901 -17.748 -19.890  1.00  0.00     0.274 HD
ATOM     17  H11 UNL     1     -24.540 -19.167 -20.719  1.00  0.00     0.274 HD
ENDBRANCH  13  14
ENDBRANCH  12  13
ENDBRANCH   1  12
TORSDOF 6
ENDMDL
MODEL 2
REMARK VINA RESULT: -3.904105629      4.647      6.263
REMARK  6 active torsions:
REMARK  status: ('A' for Active; 'I' for Inactive)
REMARK    1  A    between atoms: N1_1  and  C1_5 
REMARK    2  A    between atoms: C1_5  and  C2_6 
REMARK    3  A    between atoms: C2_6  and  N2_7 
REMARK    4  A    between atoms: C3_9  and  C4_10 
REMARK    5  A    between atoms: C5_11  and  C6_12 
REMARK    6  A    between atoms: C6_12  and  C7_13 
ROOT
HETATM    1  N2  UNL     1     -26.680 -19.766 -17.938  1.00  0.00    -0.397 N 
ATOM      2  H2  UNL     1     -26.793 -19.185 -17.107  1.00  0.00     0.158 HD
HETATM    3  C3  UNL     1     -25.535 -19.777 -18.542  1.00  0.00     0.082 C 
ENDROOT
BRANCH   3   4
HETATM    4  C4  UNL     1     -24.444 -18.975 -18.037  1.00  0.00     0.013 C 
HETATM    5  C5  UNL     1     -23.716 -18.253 -18.845  1.00  0.00    -0.023 C 
BRANCH   5   6
HETATM    6  C6  UNL     1     -23.906 -18.169 -20.295  1.00  0.00     0.062 C 
BRANCH   6   7
HETATM    7  C7  UNL     1     -22.663 -17.522 -20.874  1.00  0.00     0.214 A 
HETATM    8  C8  UNL     1     -22.906 -16.868 -22.219  1.00  0.00     0.266 A 
HETATM    9  N3  UNL     1     -22.625 -16.090 -21.031  1.00  0.00    -0.067 N 
ATOM     10  H32 UNL     1     -23.114 -15.324 -20.567  1.00  0.00     0.277 HD
ATOM     11  H31 UNL     1     -21.925 -15.382 -20.809  1.00  0.00     0.277 HD
ENDBRANCH   6   7
ENDBRANCH   5   6
ENDBRANCH   3   4
BRANCH   1  12
HETATM   12  C2  UNL     1     -27.806 -20.551 -18.401  1.00  0.00     0.146 C 
BRANCH  12  13
HETATM   13  C1  UNL     1     -29.084 -19.762 -18.165  1.00  0.00     0.249 C 
BRANCH  13  14
HETATM   14  N1  UNL     1     -29.023 -18.977 -16.970  1.00  0.00    -0.078 N 
ATOM     15  H13 UNL     1     -29.785 -19.214 -16.334  1.00  0.00     0.274 HD
ATOM     16  H12 UNL     1     -28.233 -19.254 -16.387  1.00  0.00     0.274 HD
ATOM     17  H11 UNL     1     -29.004 -17.977 -17.166  1.00  0.00     0.274 HD
ENDBRANCH  13  14
ENDBRANCH  12  13
ENDBRANCH   1  12
TORSDOF 6
ENDMDL
MODEL 3
REMARK VINA RESULT: -3.873803519      2.500      3.634
REMARK  6 active torsions:
REMARK  status: ('A' for Active; 'I' for Inactive)
REMARK    1  A    between atoms: N1_1  and  C1_5 
REMARK    2  A    between atoms: C1_5  and  C2_6 
REMARK    3  A    between atoms: C2_6  and  N2_7 
REMARK    4  A    between atoms: C3_9  and  C4_10 
REMARK    5  A    between atoms: C5_11  and  C6_12 
REMARK    6  A    between atoms: C6_12  and  C7_13 
ROOT
HETATM    1  N2  UNL     1     -24.037 -17.952 -19.260  1.00  0.00    -0.397 N 
ATOM      2  H2  UNL     1     -23.965 -17.039 -18.811  1.00  0.00     0.158 HD
HETATM    3  C3  UNL     1     -24.391 -18.972 -18.547  1.00  0.00     0.082 C 
ENDROOT
BRANCH   3   4
HETATM    4  C4  UNL     1     -24.675 -18.808 -17.140  1.00  0.00     0.013 C 
HETATM    5  C5  UNL     1     -23.853 -19.265 -16.234  1.00  0.00    -0.023 C 
BRANCH   5   6
HETATM    6  C6  UNL     1     -22.599 -19.966 -16.519  1.00  0.00     0.062 C 
BRANCH   6   7
HETATM    7  C7  UNL     1     -21.468 -18.997 -16.233  1.00  0.00     0.214 A 
HETATM    8  C8  UNL     1     -20.124 -19.489 -16.730  1.00  0.00     0.266 A 
HETATM    9  N3  UNL     1     -20.795 -18.357 -17.335  1.00  0.00    -0.067 N 
ATOM     10  H32 UNL     1     -21.075 -18.142 -18.292  1.00  0.00     0.277 HD
ATOM     11  H31 UNL     1     -20.514 -17.394 -17.515  1.00  0.00     0.277 HD
ENDBRANCH   6   7
ENDBRANCH   5   6
ENDBRANCH   3   4
BRANCH   1  12
HETATM   12  C2  UNL     1     -23.741 -18.061 -20.674  1.00  0.00     0.146 C 
BRANCH  12  13
HETATM   13  C1  UNL     1     -22.621 -17.093 -21.017  1.00  0.00     0.249 C 
BRANCH  13  14
HETATM   14  N1  UNL     1     -22.954 -16.250 -22.125  1.00  0.00    -0.078 N 
ATOM     15  H13 UNL     1     -22.798 -16.728 -23.012  1.00  0.00     0.274 HD
ATOM     16  H12 UNL     1     -23.962 -16.110 -22.191  1.00  0.00     0.274 HD
ATOM     17  H11 UNL     1     -22.459 -15.359 -22.094  1.00  0.00     0.274 HD
ENDBRANCH  13  14
ENDBRANCH  12  13
ENDBRANCH   1  12
TORSDOF 6
ENDMDL
MODEL 4
REMARK VINA RESULT: -3.781509428      4.381      5.532
REMARK  6 active torsions:
REMARK  status: ('A' for Active; 'I' for Inactive)
REMARK    1  A    between atoms: N1_1  and  C1_5 
REMARK    2  A    between atoms: C1_5  and  C2_6 
REMARK    3  A    between atoms: C2_6  and  N2_7 
REMARK    4  A    between atoms: C3_9  and  C4_10 
REMARK    5  A    between atoms: C5_11  and  C6_12 
REMARK    6  A    between atoms: C6_12  and  C7_13 
ROOT
HETATM    1  N2  UNL     1     -23.482 -17.894 -20.159  1.00  0.00    -0.397 N 
ATOM      2  H2  UNL     1     -24.029 -18.069 -21.002  1.00  0.00     0.158 HD
HETATM    3  C3  UNL     1     -23.866 -18.426 -19.043  1.00  0.00     0.082 C 
ENDROOT
BRANCH   3   4
HETATM    4  C4  UNL     1     -25.050 -19.251 -19.005  1.00  0.00     0.013 C 
HETATM    5  C5  UNL     1     -25.275 -20.052 -17.999  1.00  0.00    -0.023 C 
BRANCH   5   6
HETATM    6  C6  UNL     1     -24.396 -20.204 -16.838  1.00  0.00     0.062 C 
BRANCH   6   7
HETATM    7  C7  UNL     1     -25.159 -19.698 -15.629  1.00  0.00     0.214 A 
HETATM    8  C8  UNL     1     -24.324 -18.812 -14.727  1.00  0.00     0.266 A 
HETATM    9  N3  UNL     1     -25.426 -18.288 -15.506  1.00  0.00    -0.067 N 
ATOM     10  H32 UNL     1     -25.502 -17.531 -16.186  1.00  0.00     0.277 HD
ATOM     11  H31 UNL     1     -26.261 -17.755 -15.263  1.00  0.00     0.277 HD
ENDBRANCH   6   7
ENDBRANCH   5   6
ENDBRANCH   3   4
BRANCH   1  12
HETATM   12  C2  UNL     1     -22.302 -17.058 -20.254  1.00  0.00     0.146 C 
BRANCH  12  13
HETATM   13  C1  UNL     1     -22.084 -16.678 -21.709  1.00  0.00     0.249 C 
BRANCH  13  14
HETATM   14  N1  UNL     1     -23.220 -16.012 -22.270  1.00  0.00    -0.078 N 
ATOM     15  H13 UNL     1     -23.927 -15.824 -21.559  1.00  0.00     0.274 HD
ATOM     16  H12 UNL     1     -22.993 -15.053 -22.531  1.00  0.00     0.274 HD
ATOM     17  H11 UNL     1     -23.617 -16.524 -23.058  1.00  0.00     0.274 HD
ENDBRANCH  13  14
ENDBRANCH  12  13
ENDBRANCH   1  12
TORSDOF 6
ENDMDL
MODEL 5
REMARK VINA RESULT: -3.738314591      4.385      6.445
REMARK  6 active torsions:
REMARK  status: ('A' for Active; 'I' for Inactive)
REMARK    1  A    between atoms: N1_1  and  C1_5 
REMARK    2  A    between atoms: C1_5  and  C2_6 
REMARK    3  A    between atoms: C2_6  and  N2_7 
REMARK    4  A    between atoms: C3_9  and  C4_10 
REMARK    5  A    between atoms: C5_11  and  C6_12 
REMARK    6  A    between atoms: C6_12  and  C7_13 
ROOT
HETATM    1  N2  UNL     1     -23.540 -17.926 -19.993  1.00  0.00    -0.397 N 
ATOM      2  H2  UNL     1     -24.085 -18.122 -20.833  1.00  0.00     0.158 HD
HETATM    3  C3  UNL     1     -23.888 -18.485 -18.878  1.00  0.00     0.082 C 
ENDROOT
BRANCH   3   4
HETATM    4  C4  UNL     1     -25.030 -19.368 -18.837  1.00  0.00     0.013 C 
HETATM    5  C5  UNL     1     -25.687 -19.561 -17.726  1.00  0.00    -0.023 C 
BRANCH   5   6
HETATM    6  C6  UNL     1     -25.364 -18.932 -16.443  1.00  0.00     0.062 C 
BRANCH   6   7
HETATM    7  C7  UNL     1     -26.377 -19.431 -15.431  1.00  0.00     0.214 A 
HETATM    8  C8  UNL     1     -26.648 -18.437 -14.321  1.00  0.00     0.266 A 
HETATM    9  N3  UNL     1     -27.647 -18.760 -15.318  1.00  0.00    -0.067 N 
ATOM     10  H32 UNL     1     -28.196 -18.193 -15.964  1.00  0.00     0.277 HD
ATOM     11  H31 UNL     1     -28.609 -19.092 -15.259  1.00  0.00     0.277 HD
ENDBRANCH   6   7
ENDBRANCH   5   6
ENDBRANCH   3   4
BRANCH   1  12
HETATM   12  C2  UNL     1     -22.404 -17.033 -20.090  1.00  0.00     0.146 C 
BRANCH  12  13
HETATM   13  C1  UNL     1     -22.106 -16.775 -21.558  1.00  0.00     0.249 C 
BRANCH  13  14
HETATM   14  N1  UNL     1     -23.165 -16.065 -22.209  1.00  0.00    -0.078 N 
ATOM     15  H13 UNL     1     -24.073 -16.314 -21.816  1.00  0.00     0.274 HD
ATOM     16  H12 UNL     1     -23.149 -15.075 -21.965  1.00  0.00     0.274 HD
ATOM     17  H11 UNL     1     -23.152 -16.196 -23.220  1.00  0.00     0.274 HD
ENDBRANCH  13  14
ENDBRANCH  12  13
ENDBRANCH   1  12
TORSDOF 6
ENDMDL
