MODEL 1
REMARK VINA RESULT: -6.341405747      0.000      0.000
REMARK  15 active torsions:
REMARK  status: ('A' for Active; 'I' for Inactive)
REMARK    1  A    between atoms: C3_3  and  C4_4 
REMARK    2  A    between atoms: C5_5  and  C6_6 
REMARK    3  A    between atoms: C6_6  and  N1_7 
REMARK    4  A    between atoms: C9_13  and  C10_14 
REMARK    5  A    between atoms: C10_14  and  C11_15 
REMARK    6  A    between atoms: C14_18  and  O2_19 
REMARK    7  A    between atoms: C19_26  and  O3_27 
REMARK    8  A    between atoms: C20_31  and  C21_32 
REMARK    9  A    between atoms: C21_32  and  C22_33 
REMARK   10  A    between atoms: C25_36  and  O4_37 
REMARK   11  A    between atoms: C26_41  and  C27_42 
REMARK   12  A    between atoms: C27_42  and  C28_43 
REMARK   13  A    between atoms: C28_43  and  C29_44 
REMARK   14  A    between atoms: C29_44  and  C30_45 
REMARK   15  A    between atoms: C30_45  and  N6_46 
REMARK       I    between atoms: N6_46  and  C31_48 
ROOT
HETATM    1  C1  UNL     1      31.395 -12.876   0.268  1.00  0.00     0.113 C 
HETATM    2  C2  UNL     1      30.976 -11.947  -0.786  1.00  0.00    -0.097 C 
HETATM    3  C3  UNL     1      30.610 -11.188  -1.658  1.00  0.00    -0.015 C 
ENDROOT
BRANCH   3   4
HETATM    4  C4  UNL     1      30.161 -10.314  -2.676  1.00  0.00    -0.013 C 
HETATM    5  C5  UNL     1      29.761  -9.575  -3.563  1.00  0.00    -0.073 C 
BRANCH   5   6
HETATM    6  C6  UNL     1      29.282  -8.708  -4.648  1.00  0.00     0.221 C 
BRANCH   6   7
HETATM    7  N1  UNL     1      28.707  -7.521  -4.023  1.00  0.00    -0.328 N 
HETATM    8  C7  UNL     1      29.616  -6.457  -3.612  1.00  0.00     0.230 C 
HETATM    9  C8  UNL     1      30.578  -6.063  -4.633  1.00  0.00     0.240 C 
HETATM   10  O1  UNL     1      31.679  -6.740  -4.617  1.00  0.00    -0.271 OA
HETATM   11  N2  UNL     1      30.504  -5.069  -5.633  1.00  0.00    -0.322 N 
HETATM   12  C9  UNL     1      30.241  -3.649  -5.486  1.00  0.00     0.082 C 
ATOM     13  H2  UNL     1      30.655  -5.393  -6.588  1.00  0.00     0.169 HD
HETATM   14  C14 UNL     1      28.846  -3.298  -5.249  1.00  0.00     0.166 C 
HETATM   15  N3  UNL     1      28.138  -2.188  -4.829  1.00  0.00    -0.348 N 
HETATM   16  C15 UNL     1      27.059  -1.493  -5.583  1.00  0.00     0.126 C 
HETATM   17  C18 UNL     1      28.245  -1.441  -3.607  1.00  0.00     0.160 C 
HETATM   18  C16 UNL     1      26.505  -0.440  -4.746  1.00  0.00     0.022 C 
HETATM   19  C17 UNL     1      27.552  -0.136  -3.753  1.00  0.00     0.035 C 
HETATM   20  C19 UNL     1      27.934  -2.132  -2.336  1.00  0.00     0.135 C 
HETATM   21  N4  UNL     1      27.272  -3.258  -1.954  1.00  0.00    -0.361 N 
HETATM   22  C20 UNL     1      25.925  -3.725  -1.749  1.00  0.00     0.158 C 
ATOM     23  H4  UNL     1      27.938  -4.004  -1.750  1.00  0.00     0.162 HD
HETATM   24  C25 UNL     1      25.560  -4.680  -2.787  1.00  0.00     0.139 C 
HETATM   25  N5  UNL     1      25.558  -6.072  -2.862  1.00  0.00    -0.338 N 
HETATM   26  C26 UNL     1      26.520  -7.082  -2.649  1.00  0.00     0.079 C 
ATOM     27  H5  UNL     1      24.650  -6.448  -3.134  1.00  0.00     0.167 HD
HETATM   28  C32 UNL     1      27.312  -7.466  -3.860  1.00  0.00     0.267 C 
HETATM   29  O5  UNL     1      26.597  -7.789  -4.879  1.00  0.00    -0.266 OA
BRANCH  12  30
HETATM   30  C10 UNL     1      31.384  -2.847  -5.063  1.00  0.00     0.011 C 
BRANCH  30  31
HETATM   31  C11 UNL     1      31.818  -1.629  -5.744  1.00  0.00     0.002 C 
HETATM   32  C12 UNL     1      31.320  -0.302  -5.425  1.00  0.00     0.013 C 
HETATM   33  C13 UNL     1      31.469  -1.858  -7.240  1.00  0.00     0.013 C 
ENDBRANCH  30  31
ENDBRANCH  12  30
BRANCH  14  34
HETATM   34  O2  UNL     1      28.078  -4.325  -5.517  1.00  0.00    -0.344 OA
ATOM     35  H2  UNL     1      27.383  -4.062  -6.109  1.00  0.00     0.219 HD
ENDBRANCH  14  34
BRANCH  20  36
HETATM   36  O3  UNL     1      28.459  -1.438  -1.351  1.00  0.00    -0.348 OA
ATOM     37  H3  UNL     1      28.676  -2.037  -0.647  1.00  0.00     0.219 HD
ENDBRANCH  20  36
BRANCH  22  38
HETATM   38  C21 UNL     1      24.899  -2.643  -1.524  1.00  0.00     0.037 C 
BRANCH  38  39
HETATM   39  C22 UNL     1      24.821  -2.104  -0.149  1.00  0.00    -0.020 C 
HETATM   40  C23 UNL     1      23.333  -1.780   0.081  1.00  0.00     0.009 C 
HETATM   41  C24 UNL     1      25.559  -0.802   0.040  1.00  0.00     0.009 C 
ENDBRANCH  38  39
ENDBRANCH  22  38
BRANCH  24  42
HETATM   42  O4  UNL     1      25.147  -4.064  -3.865  1.00  0.00    -0.348 OA
ATOM     43  H4  UNL     1      24.600  -4.634  -4.393  1.00  0.00     0.219 HD
ENDBRANCH  24  42
BRANCH  26  44
HETATM   44  C27 UNL     1      27.274  -7.131  -1.374  1.00  0.00     0.063 C 
BRANCH  44  45
HETATM   45  C28 UNL     1      27.407  -8.539  -0.822  1.00  0.00     0.008 C 
BRANCH  45  46
HETATM   46  C29 UNL     1      26.382  -9.415  -1.498  1.00  0.00     0.020 C 
BRANCH  46  47
HETATM   47  C30 UNL     1      26.818 -10.867  -1.539  1.00  0.00     0.122 C 
BRANCH  47  48
HETATM   48  N6  UNL     1      26.904 -11.460  -0.227  1.00  0.00    -0.365 N 
HETATM   49  C31 UNL     1      27.604 -12.657   0.039  1.00  0.00     0.181 C 
HETATM   50  N7  UNL     1      27.838 -13.508  -0.874  1.00  0.00    -0.374 N 
HETATM   51  N8  UNL     1      28.058 -12.910   1.371  1.00  0.00    -0.064 NA
ATOM     52  H72 UNL     1      27.514 -13.328  -1.824  1.00  0.00     0.158 HD
ATOM     53  H71 UNL     1      28.343 -14.373  -0.682  1.00  0.00     0.158 HD
ATOM     54  H6  UNL     1      26.435 -10.990   0.548  1.00  0.00     0.162 HD
ENDBRANCH  47  48
ENDBRANCH  46  47
ENDBRANCH  45  46
ENDBRANCH  44  45
ENDBRANCH  26  44
ENDBRANCH   6   7
ENDBRANCH   5   6
ENDBRANCH   3   4
TORSDOF 15
ENDMDL
MODEL 2
REMARK VINA RESULT: -6.232723797      1.266      1.601
REMARK  15 active torsions:
REMARK  status: ('A' for Active; 'I' for Inactive)
REMARK    1  A    between atoms: C3_3  and  C4_4 
REMARK    2  A    between atoms: C5_5  and  C6_6 
REMARK    3  A    between atoms: C6_6  and  N1_7 
REMARK    4  A    between atoms: C9_13  and  C10_14 
REMARK    5  A    between atoms: C10_14  and  C11_15 
REMARK    6  A    between atoms: C14_18  and  O2_19 
REMARK    7  A    between atoms: C19_26  and  O3_27 
REMARK    8  A    between atoms: C20_31  and  C21_32 
REMARK    9  A    between atoms: C21_32  and  C22_33 
REMARK   10  A    between atoms: C25_36  and  O4_37 
REMARK   11  A    between atoms: C26_41  and  C27_42 
REMARK   12  A    between atoms: C27_42  and  C28_43 
REMARK   13  A    between atoms: C28_43  and  C29_44 
REMARK   14  A    between atoms: C29_44  and  C30_45 
REMARK   15  A    between atoms: C30_45  and  N6_46 
REMARK       I    between atoms: N6_46  and  C31_48 
ROOT
HETATM    1  C1  UNL     1      31.096 -11.779   0.269  1.00  0.00     0.113 C 
HETATM    2  C2  UNL     1      30.793 -10.836  -0.812  1.00  0.00    -0.097 C 
HETATM    3  C3  UNL     1      30.523 -10.058  -1.703  1.00  0.00    -0.015 C 
ENDROOT
BRANCH   3   4
HETATM    4  C4  UNL     1      30.182  -9.156  -2.739  1.00  0.00    -0.013 C 
HETATM    5  C5  UNL     1      29.869  -8.376  -3.624  1.00  0.00    -0.073 C 
BRANCH   5   6
HETATM    6  C6  UNL     1      29.466  -7.449  -4.691  1.00  0.00     0.221 C 
BRANCH   6   7
HETATM    7  N1  UNL     1      28.684  -6.389  -4.062  1.00  0.00    -0.328 N 
HETATM    8  C7  UNL     1      29.397  -5.217  -3.565  1.00  0.00     0.230 C 
HETATM    9  C8  UNL     1      30.339  -4.641  -4.516  1.00  0.00     0.240 C 
HETATM   10  O1  UNL     1      31.528  -5.144  -4.458  1.00  0.00    -0.271 OA
HETATM   11  N2  UNL     1      30.166  -3.631  -5.485  1.00  0.00    -0.322 N 
HETATM   12  C9  UNL     1      29.681  -2.273  -5.308  1.00  0.00     0.082 C 
ATOM     13  H2  UNL     1      30.415  -3.888  -6.440  1.00  0.00     0.169 HD
HETATM   14  C14 UNL     1      28.239  -2.147  -5.141  1.00  0.00     0.166 C 
HETATM   15  N3  UNL     1      27.348  -1.175  -4.727  1.00  0.00    -0.348 N 
HETATM   16  C15 UNL     1      26.216  -0.620  -5.519  1.00  0.00     0.126 C 
HETATM   17  C18 UNL     1      27.275  -0.471  -3.477  1.00  0.00     0.160 C 
HETATM   18  C16 UNL     1      25.464   0.301  -4.682  1.00  0.00     0.022 C 
HETATM   19  C17 UNL     1      26.400   0.719  -3.620  1.00  0.00     0.035 C 
HETATM   20  C19 UNL     1      27.008  -1.253  -2.249  1.00  0.00     0.135 C 
HETATM   21  N4  UNL     1      26.508  -2.480  -1.943  1.00  0.00    -0.361 N 
HETATM   22  C20 UNL     1      25.239  -3.153  -1.831  1.00  0.00     0.158 C 
ATOM     23  H4  UNL     1      27.268  -3.125  -1.725  1.00  0.00     0.162 HD
HETATM   24  C25 UNL     1      25.079  -4.109  -2.918  1.00  0.00     0.139 C 
HETATM   25  N5  UNL     1      25.294  -5.482  -3.039  1.00  0.00    -0.338 N 
HETATM   26  C26 UNL     1      26.387  -6.342  -2.803  1.00  0.00     0.079 C 
ATOM     27  H5  UNL     1      24.470  -5.979  -3.375  1.00  0.00     0.167 HD
HETATM   28  C32 UNL     1      27.290  -6.553  -3.979  1.00  0.00     0.267 C 
HETATM   29  O5  UNL     1      26.688  -6.937  -5.047  1.00  0.00    -0.266 OA
BRANCH  12  30
HETATM   30  C10 UNL     1      30.665  -1.326  -4.794  1.00  0.00     0.011 C 
BRANCH  30  31
HETATM   31  C11 UNL     1      30.780   0.056  -5.256  1.00  0.00     0.002 C 
HETATM   32  C12 UNL     1      31.918   0.568  -6.000  1.00  0.00     0.013 C 
HETATM   33  C13 UNL     1      30.701   0.919  -3.966  1.00  0.00     0.013 C 
ENDBRANCH  30  31
ENDBRANCH  12  30
BRANCH  14  34
HETATM   34  O2  UNL     1      27.652  -3.267  -5.486  1.00  0.00    -0.344 OA
ATOM     35  H2  UNL     1      27.066  -3.112  -6.218  1.00  0.00     0.219 HD
ENDBRANCH  14  34
BRANCH  20  36
HETATM   36  O3  UNL     1      27.369  -0.527  -1.214  1.00  0.00    -0.348 OA
ATOM     37  H3  UNL     1      26.731  -0.658  -0.522  1.00  0.00     0.219 HD
ENDBRANCH  20  36
BRANCH  22  38
HETATM   38  C21 UNL     1      24.050  -2.249  -1.631  1.00  0.00     0.037 C 
BRANCH  38  39
HETATM   39  C22 UNL     1      23.588  -2.090  -0.235  1.00  0.00    -0.020 C 
HETATM   40  C23 UNL     1      22.281  -1.279  -0.324  1.00  0.00     0.009 C 
HETATM   41  C24 UNL     1      24.519  -1.274   0.628  1.00  0.00     0.009 C 
ENDBRANCH  38  39
ENDBRANCH  22  38
BRANCH  24  42
HETATM   42  O4  UNL     1      24.633  -3.520  -3.998  1.00  0.00    -0.348 OA
ATOM     43  H4  UNL     1      24.696  -4.096  -4.751  1.00  0.00     0.219 HD
ENDBRANCH  24  42
BRANCH  26  44
HETATM   44  C27 UNL     1      27.072  -6.329  -1.489  1.00  0.00     0.063 C 
BRANCH  44  45
HETATM   45  C28 UNL     1      27.355  -7.722  -0.958  1.00  0.00     0.008 C 
BRANCH  45  46
HETATM   46  C29 UNL     1      26.041  -8.375  -0.606  1.00  0.00     0.020 C 
BRANCH  46  47
HETATM   47  C30 UNL     1      25.653  -9.442  -1.612  1.00  0.00     0.122 C 
BRANCH  47  48
HETATM   48  N6  UNL     1      26.796 -10.047  -2.250  1.00  0.00    -0.365 N 
HETATM   49  C31 UNL     1      27.288 -11.326  -1.910  1.00  0.00     0.181 C 
HETATM   50  N7  UNL     1      27.055 -11.848  -0.776  1.00  0.00    -0.374 N 
HETATM   51  N8  UNL     1      28.064 -12.045  -2.871  1.00  0.00    -0.064 NA
ATOM     52  H72 UNL     1      26.501 -11.335  -0.090  1.00  0.00     0.158 HD
ATOM     53  H71 UNL     1      27.411 -12.772  -0.530  1.00  0.00     0.158 HD
ATOM     54  H6  UNL     1      27.273  -9.523  -2.984  1.00  0.00     0.162 HD
ENDBRANCH  47  48
ENDBRANCH  46  47
ENDBRANCH  45  46
ENDBRANCH  44  45
ENDBRANCH  26  44
ENDBRANCH   6   7
ENDBRANCH   5   6
ENDBRANCH   3   4
TORSDOF 15
ENDMDL
MODEL 3
REMARK VINA RESULT: -5.872235926      2.587      3.966
REMARK  15 active torsions:
REMARK  status: ('A' for Active; 'I' for Inactive)
REMARK    1  A    between atoms: C3_3  and  C4_4 
REMARK    2  A    between atoms: C5_5  and  C6_6 
REMARK    3  A    between atoms: C6_6  and  N1_7 
REMARK    4  A    between atoms: C9_13  and  C10_14 
REMARK    5  A    between atoms: C10_14  and  C11_15 
REMARK    6  A    between atoms: C14_18  and  O2_19 
REMARK    7  A    between atoms: C19_26  and  O3_27 
REMARK    8  A    between atoms: C20_31  and  C21_32 
REMARK    9  A    between atoms: C21_32  and  C22_33 
REMARK   10  A    between atoms: C25_36  and  O4_37 
REMARK   11  A    between atoms: C26_41  and  C27_42 
REMARK   12  A    between atoms: C27_42  and  C28_43 
REMARK   13  A    between atoms: C28_43  and  C29_44 
REMARK   14  A    between atoms: C29_44  and  C30_45 
REMARK   15  A    between atoms: C30_45  and  N6_46 
REMARK       I    between atoms: N6_46  and  C31_48 
ROOT
HETATM    1  C1  UNL     1      29.434 -11.401   1.010  1.00  0.00     0.113 C 
HETATM    2  C2  UNL     1      29.335 -10.551  -0.181  1.00  0.00    -0.097 C 
HETATM    3  C3  UNL     1      29.273  -9.850  -1.169  1.00  0.00    -0.015 C 
ENDROOT
BRANCH   3   4
HETATM    4  C4  UNL     1      29.226  -9.034  -2.324  1.00  0.00    -0.013 C 
HETATM    5  C5  UNL     1      29.200  -8.343  -3.331  1.00  0.00    -0.073 C 
BRANCH   5   6
HETATM    6  C6  UNL     1      29.196  -7.516  -4.546  1.00  0.00     0.221 C 
BRANCH   6   7
HETATM    7  N1  UNL     1      28.683  -6.204  -4.167  1.00  0.00    -0.328 N 
HETATM    8  C7  UNL     1      29.610  -5.078  -4.177  1.00  0.00     0.230 C 
HETATM    9  C8  UNL     1      30.405  -4.967  -5.393  1.00  0.00     0.240 C 
HETATM   10  O1  UNL     1      31.515  -5.627  -5.366  1.00  0.00    -0.271 OA
HETATM   11  N2  UNL     1      30.160  -4.262  -6.590  1.00  0.00    -0.322 N 
HETATM   12  C9  UNL     1      29.880  -2.849  -6.774  1.00  0.00     0.082 C 
ATOM     13  H2  UNL     1      30.182  -4.821  -7.443  1.00  0.00     0.169 HD
HETATM   14  C14 UNL     1      28.524  -2.437  -6.433  1.00  0.00     0.166 C 
HETATM   15  N3  UNL     1      27.851  -1.250  -6.211  1.00  0.00    -0.348 N 
HETATM   16  C15 UNL     1      26.656  -0.761  -6.952  1.00  0.00     0.126 C 
HETATM   17  C18 UNL     1      28.110  -0.216  -5.248  1.00  0.00     0.160 C 
HETATM   18  C16 UNL     1      26.198   0.475  -6.338  1.00  0.00     0.022 C 
HETATM   19  C17 UNL     1      27.367   1.015  -5.618  1.00  0.00     0.035 C 
HETATM   20  C19 UNL     1      28.004  -0.556  -3.811  1.00  0.00     0.135 C 
HETATM   21  N4  UNL     1      27.437  -1.541  -3.064  1.00  0.00    -0.361 N 
HETATM   22  C20 UNL     1      26.147  -1.928  -2.553  1.00  0.00     0.158 C 
ATOM     23  H4  UNL     1      28.146  -2.216  -2.776  1.00  0.00     0.162 HD
HETATM   24  C25 UNL     1      25.664  -3.113  -3.249  1.00  0.00     0.139 C 
HETATM   25  N5  UNL     1      25.692  -4.478  -2.966  1.00  0.00    -0.338 N 
HETATM   26  C26 UNL     1      26.703  -5.408  -2.646  1.00  0.00     0.079 C 
ATOM     27  H5  UNL     1      24.766  -4.903  -2.999  1.00  0.00     0.167 HD
HETATM   28  C32 UNL     1      27.324  -6.097  -3.821  1.00  0.00     0.267 C 
HETATM   29  O5  UNL     1      26.481  -6.663  -4.610  1.00  0.00    -0.266 OA
BRANCH  12  30
HETATM   30  C10 UNL     1      31.048  -1.976  -6.739  1.00  0.00     0.011 C 
BRANCH  30  31
HETATM   31  C11 UNL     1      31.680  -1.513  -5.505  1.00  0.00     0.002 C 
HETATM   32  C12 UNL     1      31.184  -1.824  -4.176  1.00  0.00     0.013 C 
HETATM   33  C13 UNL     1      31.665   0.038  -5.604  1.00  0.00     0.013 C 
ENDBRANCH  30  31
ENDBRANCH  12  30
BRANCH  14  34
HETATM   34  O2  UNL     1      27.755  -3.491  -6.316  1.00  0.00    -0.344 OA
ATOM     35  H2  UNL     1      27.186  -3.393  -5.562  1.00  0.00     0.219 HD
ENDBRANCH  14  34
BRANCH  20  36
HETATM   36  O3  UNL     1      28.645   0.363  -3.123  1.00  0.00    -0.348 OA
ATOM     37  H3  UNL     1      29.558   0.105  -3.061  1.00  0.00     0.219 HD
ENDBRANCH  20  36
BRANCH  22  38
HETATM   38  C21 UNL     1      25.133  -0.815  -2.464  1.00  0.00     0.037 C 
BRANCH  38  39
HETATM   39  C22 UNL     1      24.662  -0.480  -1.102  1.00  0.00    -0.020 C 
HETATM   40  C23 UNL     1      25.896   0.076  -0.365  1.00  0.00     0.009 C 
HETATM   41  C24 UNL     1      24.209  -1.675  -0.300  1.00  0.00     0.009 C 
ENDBRANCH  38  39
ENDBRANCH  22  38
BRANCH  24  42
HETATM   42  O4  UNL     1      25.084  -2.790  -4.376  1.00  0.00    -0.348 OA
ATOM     43  H4  UNL     1      24.181  -2.530  -4.231  1.00  0.00     0.219 HD
ENDBRANCH  24  42
BRANCH  26  44
HETATM   44  C27 UNL     1      27.633  -5.137  -1.524  1.00  0.00     0.063 C 
BRANCH  44  45
HETATM   45  C28 UNL     1      26.946  -4.499  -0.331  1.00  0.00     0.008 C 
BRANCH  45  46
HETATM   46  C29 UNL     1      27.780  -3.329   0.132  1.00  0.00     0.020 C 
BRANCH  46  47
HETATM   47  C30 UNL     1      27.244  -2.727   1.416  1.00  0.00     0.122 C 
BRANCH  47  48
HETATM   48  N6  UNL     1      27.860  -3.288   2.593  1.00  0.00    -0.365 N 
HETATM   49  C31 UNL     1      27.552  -2.866   3.905  1.00  0.00     0.181 C 
HETATM   50  N7  UNL     1      27.059  -1.719   4.138  1.00  0.00    -0.374 N 
HETATM   51  N8  UNL     1      27.802  -3.759   4.994  1.00  0.00    -0.064 NA
ATOM     52  H72 UNL     1      26.880  -1.082   3.361  1.00  0.00     0.158 HD
ATOM     53  H71 UNL     1      26.837  -1.414   5.085  1.00  0.00     0.158 HD
ATOM     54  H6  UNL     1      28.553  -4.026   2.471  1.00  0.00     0.162 HD
ENDBRANCH  47  48
ENDBRANCH  46  47
ENDBRANCH  45  46
ENDBRANCH  44  45
ENDBRANCH  26  44
ENDBRANCH   6   7
ENDBRANCH   5   6
ENDBRANCH   3   4
TORSDOF 15
ENDMDL
MODEL 4
REMARK VINA RESULT: -5.745152296      2.785      6.541
REMARK  15 active torsions:
REMARK  status: ('A' for Active; 'I' for Inactive)
REMARK    1  A    between atoms: C3_3  and  C4_4 
REMARK    2  A    between atoms: C5_5  and  C6_6 
REMARK    3  A    between atoms: C6_6  and  N1_7 
REMARK    4  A    between atoms: C9_13  and  C10_14 
REMARK    5  A    between atoms: C10_14  and  C11_15 
REMARK    6  A    between atoms: C14_18  and  O2_19 
REMARK    7  A    between atoms: C19_26  and  O3_27 
REMARK    8  A    between atoms: C20_31  and  C21_32 
REMARK    9  A    between atoms: C21_32  and  C22_33 
REMARK   10  A    between atoms: C25_36  and  O4_37 
REMARK   11  A    between atoms: C26_41  and  C27_42 
REMARK   12  A    between atoms: C27_42  and  C28_43 
REMARK   13  A    between atoms: C28_43  and  C29_44 
REMARK   14  A    between atoms: C29_44  and  C30_45 
REMARK   15  A    between atoms: C30_45  and  N6_46 
REMARK       I    between atoms: N6_46  and  C31_48 
ROOT
HETATM    1  C1  UNL     1      27.224 -10.674  -0.532  1.00  0.00     0.113 C 
HETATM    2  C2  UNL     1      27.127  -9.214  -0.630  1.00  0.00    -0.097 C 
HETATM    3  C3  UNL     1      27.057  -8.008  -0.730  1.00  0.00    -0.015 C 
ENDROOT
BRANCH   3   4
HETATM    4  C4  UNL     1      26.989  -6.601  -0.867  1.00  0.00    -0.013 C 
HETATM    5  C5  UNL     1      26.916  -5.389  -1.003  1.00  0.00    -0.073 C 
BRANCH   5   6
HETATM    6  C6  UNL     1      26.829  -3.935  -1.194  1.00  0.00     0.221 C 
BRANCH   6   7
HETATM    7  N1  UNL     1      27.199  -3.664  -2.579  1.00  0.00    -0.328 N 
HETATM    8  C7  UNL     1      26.131  -3.592  -3.570  1.00  0.00     0.230 C 
HETATM    9  C8  UNL     1      25.009  -2.747  -3.182  1.00  0.00     0.240 C 
HETATM   10  O1  UNL     1      24.085  -3.360  -2.519  1.00  0.00    -0.271 OA
HETATM   11  N2  UNL     1      24.770  -1.375  -3.409  1.00  0.00    -0.322 N 
HETATM   12  C9  UNL     1      24.739  -0.652  -4.668  1.00  0.00     0.082 C 
ATOM     13  H2  UNL     1      24.596  -0.814  -2.575  1.00  0.00     0.169 HD
HETATM   14  C14 UNL     1      26.044  -0.364  -5.249  1.00  0.00     0.166 C 
HETATM   15  N3  UNL     1      26.540   0.057  -6.469  1.00  0.00    -0.348 N 
HETATM   16  C15 UNL     1      27.365   1.271  -6.715  1.00  0.00     0.126 C 
HETATM   17  C18 UNL     1      26.400  -0.538  -7.769  1.00  0.00     0.160 C 
HETATM   18  C16 UNL     1      27.764   1.292  -8.113  1.00  0.00     0.022 C 
HETATM   19  C17 UNL     1      26.782   0.444  -8.815  1.00  0.00     0.035 C 
HETATM   20  C19 UNL     1      26.977  -1.883  -7.989  1.00  0.00     0.135 C 
HETATM   21  N4  UNL     1      27.897  -2.679  -7.380  1.00  0.00    -0.361 N 
HETATM   22  C20 UNL     1      29.326  -2.828  -7.280  1.00  0.00     0.158 C 
ATOM     23  H4  UNL     1      27.429  -3.393  -6.822  1.00  0.00     0.162 HD
HETATM   24  C25 UNL     1      29.780  -2.445  -5.949  1.00  0.00     0.139 C 
HETATM   25  N5  UNL     1      30.069  -3.155  -4.785  1.00  0.00    -0.338 N 
HETATM   26  C26 UNL     1      29.370  -4.083  -3.985  1.00  0.00     0.079 C 
ATOM     27  H5  UNL     1      31.004  -2.958  -4.429  1.00  0.00     0.167 HD
HETATM   28  C32 UNL     1      28.560  -3.480  -2.879  1.00  0.00     0.267 C 
HETATM   29  O5  UNL     1      29.220  -2.690  -2.109  1.00  0.00    -0.266 OA
BRANCH  12  30
HETATM   30  C10 UNL     1      23.500  -0.784  -5.428  1.00  0.00     0.011 C 
BRANCH  30  31
HETATM   31  C11 UNL     1      23.201  -1.916  -6.302  1.00  0.00     0.002 C 
HETATM   32  C12 UNL     1      22.821  -1.782  -7.698  1.00  0.00     0.013 C 
HETATM   33  C13 UNL     1      22.017  -2.652  -5.616  1.00  0.00     0.013 C 
ENDBRANCH  30  31
ENDBRANCH  12  30
BRANCH  14  34
HETATM   34  O2  UNL     1      26.982  -0.560  -4.355  1.00  0.00    -0.344 OA
ATOM     35  H2  UNL     1      27.496   0.232  -4.249  1.00  0.00     0.219 HD
ENDBRANCH  14  34
BRANCH  20  36
HETATM   36  O3  UNL     1      26.418  -2.400  -9.060  1.00  0.00    -0.348 OA
ATOM     37  H3  UNL     1      25.833  -3.096  -8.784  1.00  0.00     0.219 HD
ENDBRANCH  20  36
BRANCH  22  38
HETATM   38  C21 UNL     1      30.117  -2.200  -8.400  1.00  0.00     0.037 C 
BRANCH  38  39
HETATM   39  C22 UNL     1      30.574  -3.123  -9.462  1.00  0.00    -0.020 C 
HETATM   40  C23 UNL     1      31.653  -2.348 -10.243  1.00  0.00     0.009 C 
HETATM   41  C24 UNL     1      29.507  -3.470 -10.471  1.00  0.00     0.009 C 
ENDBRANCH  38  39
ENDBRANCH  22  38
BRANCH  24  42
HETATM   42  O4  UNL     1      29.942  -1.149  -5.865  1.00  0.00    -0.348 OA
ATOM     43  H4  UNL     1      30.128  -0.887  -4.971  1.00  0.00     0.219 HD
ENDBRANCH  24  42
BRANCH  26  44
HETATM   44  C27 UNL     1      28.776  -5.294  -4.600  1.00  0.00     0.063 C 
BRANCH  44  45
HETATM   45  C28 UNL     1      29.667  -6.515  -4.476  1.00  0.00     0.008 C 
BRANCH  45  46
HETATM   46  C29 UNL     1      28.796  -7.746  -4.495  1.00  0.00     0.020 C 
BRANCH  46  47
HETATM   47  C30 UNL     1      29.352  -8.846  -3.611  1.00  0.00     0.122 C 
BRANCH  47  48
HETATM   48  N6  UNL     1      30.329  -8.361  -2.667  1.00  0.00    -0.365 N 
HETATM   49  C31 UNL     1      31.632  -8.895  -2.557  1.00  0.00     0.181 C 
HETATM   50  N7  UNL     1      31.905 -10.071  -2.949  1.00  0.00    -0.374 N 
HETATM   51  N8  UNL     1      32.664  -8.084  -1.991  1.00  0.00    -0.064 NA
ATOM     52  H72 UNL     1      31.169 -10.650  -3.353  1.00  0.00     0.158 HD
ATOM     53  H71 UNL     1      32.846 -10.457  -2.869  1.00  0.00     0.158 HD
ATOM     54  H6  UNL     1      30.065  -7.595  -2.049  1.00  0.00     0.162 HD
ENDBRANCH  47  48
ENDBRANCH  46  47
ENDBRANCH  45  46
ENDBRANCH  44  45
ENDBRANCH  26  44
ENDBRANCH   6   7
ENDBRANCH   5   6
ENDBRANCH   3   4
TORSDOF 15
ENDMDL
MODEL 5
REMARK VINA RESULT: -5.723184926      2.697      6.493
REMARK  15 active torsions:
REMARK  status: ('A' for Active; 'I' for Inactive)
REMARK    1  A    between atoms: C3_3  and  C4_4 
REMARK    2  A    between atoms: C5_5  and  C6_6 
REMARK    3  A    between atoms: C6_6  and  N1_7 
REMARK    4  A    between atoms: C9_13  and  C10_14 
REMARK    5  A    between atoms: C10_14  and  C11_15 
REMARK    6  A    between atoms: C14_18  and  O2_19 
REMARK    7  A    between atoms: C19_26  and  O3_27 
REMARK    8  A    between atoms: C20_31  and  C21_32 
REMARK    9  A    between atoms: C21_32  and  C22_33 
REMARK   10  A    between atoms: C25_36  and  O4_37 
REMARK   11  A    between atoms: C26_41  and  C27_42 
REMARK   12  A    between atoms: C27_42  and  C28_43 
REMARK   13  A    between atoms: C28_43  and  C29_44 
REMARK   14  A    between atoms: C29_44  and  C30_45 
REMARK   15  A    between atoms: C30_45  and  N6_46 
REMARK       I    between atoms: N6_46  and  C31_48 
ROOT
HETATM    1  C1  UNL     1      26.998 -10.407  -0.335  1.00  0.00     0.113 C 
HETATM    2  C2  UNL     1      26.965  -8.950  -0.500  1.00  0.00    -0.097 C 
HETATM    3  C3  UNL     1      26.932  -7.748  -0.656  1.00  0.00    -0.015 C 
ENDROOT
BRANCH   3   4
HETATM    4  C4  UNL     1      26.886  -6.348  -0.862  1.00  0.00    -0.013 C 
HETATM    5  C5  UNL     1      26.866  -5.141  -1.048  1.00  0.00    -0.073 C 
BRANCH   5   6
HETATM    6  C6  UNL     1      26.869  -3.688  -1.264  1.00  0.00     0.221 C 
BRANCH   6   7
HETATM    7  N1  UNL     1      27.220  -3.465  -2.663  1.00  0.00    -0.328 N 
HETATM    8  C7  UNL     1      26.140  -3.454  -3.644  1.00  0.00     0.230 C 
HETATM    9  C8  UNL     1      25.005  -2.617  -3.277  1.00  0.00     0.240 C 
HETATM   10  O1  UNL     1      24.100  -3.221  -2.581  1.00  0.00    -0.271 OA
HETATM   11  N2  UNL     1      24.736  -1.260  -3.556  1.00  0.00    -0.322 N 
HETATM   12  C9  UNL     1      24.677  -0.589  -4.842  1.00  0.00     0.082 C 
ATOM     13  H2  UNL     1      24.558  -0.670  -2.743  1.00  0.00     0.169 HD
HETATM   14  C14 UNL     1      25.970  -0.298  -5.449  1.00  0.00     0.166 C 
HETATM   15  N3  UNL     1      26.444   0.084  -6.690  1.00  0.00    -0.348 N 
HETATM   16  C15 UNL     1      27.242   1.304  -6.992  1.00  0.00     0.126 C 
HETATM   17  C18 UNL     1      26.304  -0.564  -7.963  1.00  0.00     0.160 C 
HETATM   18  C16 UNL     1      27.627   1.277  -8.394  1.00  0.00     0.022 C 
HETATM   19  C17 UNL     1      26.655   0.383  -9.052  1.00  0.00     0.035 C 
HETATM   20  C19 UNL     1      26.907  -1.905  -8.136  1.00  0.00     0.135 C 
HETATM   21  N4  UNL     1      27.849  -2.658  -7.506  1.00  0.00    -0.361 N 
HETATM   22  C20 UNL     1      29.282  -2.774  -7.415  1.00  0.00     0.158 C 
ATOM     23  H4  UNL     1      27.402  -3.359  -6.915  1.00  0.00     0.162 HD
HETATM   24  C25 UNL     1      29.741  -2.329  -6.106  1.00  0.00     0.139 C 
HETATM   25  N5  UNL     1      30.056  -2.986  -4.917  1.00  0.00    -0.338 N 
HETATM   26  C26 UNL     1      29.385  -3.895  -4.074  1.00  0.00     0.079 C 
ATOM     27  H5  UNL     1      30.991  -2.756  -4.580  1.00  0.00     0.167 HD
HETATM   28  C32 UNL     1      28.574  -3.266  -2.984  1.00  0.00     0.267 C 
HETATM   29  O5  UNL     1      29.225  -2.432  -2.253  1.00  0.00    -0.266 OA
BRANCH  12  30
HETATM   30  C10 UNL     1      23.434  -0.776  -5.583  1.00  0.00     0.011 C 
BRANCH  30  31
HETATM   31  C11 UNL     1      23.144  -1.953  -6.399  1.00  0.00     0.002 C 
HETATM   32  C12 UNL     1      22.787  -1.895  -7.806  1.00  0.00     0.013 C 
HETATM   33  C13 UNL     1      21.946  -2.647  -5.692  1.00  0.00     0.013 C 
ENDBRANCH  30  31
ENDBRANCH  12  30
BRANCH  14  34
HETATM   34  O2  UNL     1      26.920  -0.439  -4.558  1.00  0.00    -0.344 OA
ATOM     35  H2  UNL     1      27.748  -0.145  -4.920  1.00  0.00     0.219 HD
ENDBRANCH  14  34
BRANCH  20  36
HETATM   36  O3  UNL     1      26.348  -2.476  -9.180  1.00  0.00    -0.348 OA
ATOM     37  H3  UNL     1      25.537  -2.884  -8.897  1.00  0.00     0.219 HD
ENDBRANCH  20  36
BRANCH  22  38
HETATM   38  C21 UNL     1      30.048  -2.175  -8.568  1.00  0.00     0.037 C 
BRANCH  38  39
HETATM   39  C22 UNL     1      30.526  -3.131  -9.590  1.00  0.00    -0.020 C 
HETATM   40  C23 UNL     1      31.641  -2.392 -10.355  1.00  0.00     0.009 C 
HETATM   41  C24 UNL     1      29.488  -3.491 -10.624  1.00  0.00     0.009 C 
ENDBRANCH  38  39
ENDBRANCH  22  38
BRANCH  24  42
HETATM   42  O4  UNL     1      29.877  -1.028  -6.075  1.00  0.00    -0.348 OA
ATOM     43  H4  UNL     1      30.626  -0.777  -5.546  1.00  0.00     0.219 HD
ENDBRANCH  24  42
BRANCH  26  44
HETATM   44  C27 UNL     1      28.809  -5.141  -4.634  1.00  0.00     0.063 C 
BRANCH  44  45
HETATM   45  C28 UNL     1      29.647  -6.368  -4.325  1.00  0.00     0.008 C 
BRANCH  45  46
HETATM   46  C29 UNL     1      28.720  -7.501  -3.961  1.00  0.00     0.020 C 
BRANCH  46  47
HETATM   47  C30 UNL     1      29.462  -8.654  -3.313  1.00  0.00     0.122 C 
BRANCH  47  48
HETATM   48  N6  UNL     1      28.821  -9.925  -3.538  1.00  0.00    -0.365 N 
HETATM   49  C31 UNL     1      29.363 -11.155  -3.104  1.00  0.00     0.181 C 
HETATM   50  N7  UNL     1      30.605 -11.292  -2.878  1.00  0.00    -0.374 N 
HETATM   51  N8  UNL     1      28.486 -12.268  -2.915  1.00  0.00    -0.064 NA
ATOM     52  H72 UNL     1      31.231 -10.498  -3.013  1.00  0.00     0.158 HD
ATOM     53  H71 UNL     1      30.997 -12.180  -2.565  1.00  0.00     0.158 HD
ATOM     54  H6  UNL     1      27.930  -9.937  -4.035  1.00  0.00     0.162 HD
ENDBRANCH  47  48
ENDBRANCH  46  47
ENDBRANCH  45  46
ENDBRANCH  44  45
ENDBRANCH  26  44
ENDBRANCH   6   7
ENDBRANCH   5   6
ENDBRANCH   3   4
TORSDOF 15
ENDMDL
