MODEL 1
REMARK VINA RESULT: -7.398641665      0.000      0.000
REMARK  19 active torsions:
REMARK  status: ('A' for Active; 'I' for Inactive)
REMARK    1  A    between atoms: S1_2  and  C2_3 
REMARK    2  A    between atoms: C3_5  and  O2_6 
REMARK    3  A    between atoms: O2_6  and  C4_7 
REMARK    4  A    between atoms: C5_8  and  C6_9 
REMARK    5  A    between atoms: C6_9  and  O3_10 
REMARK    6  A    between atoms: C7_13  and  N1_14 
REMARK    7  A    between atoms: N1_14  and  C8_16 
REMARK    8  A    between atoms: C11_19  and  O5_20 
REMARK    9  A    between atoms: C14_24  and  O6_25 
REMARK   10  A    between atoms: O6_25  and  C15_26 
REMARK   11  A    between atoms: C16_28  and  O8_29 
REMARK   12  A    between atoms: C17_31  and  O9_32 
REMARK   13  A    between atoms: C18_34  and  C19_35 
REMARK   14  A    between atoms: C19_35  and  O10_36 
REMARK   15  A    between atoms: C20_39  and  O12_40 
REMARK   16  A    between atoms: C21_42  and  O13_43 
REMARK   17  A    between atoms: C22_45  and  O14_46 
REMARK   18  A    between atoms: C23_48  and  O15_49 
REMARK   19  A    between atoms: C24_51  and  O16_52 
ROOT
HETATM    1  C4  UNL     1     -11.003  -1.574  11.061  1.00  0.00     0.187 C 
HETATM    2  C5  UNL     1     -11.676  -2.416  12.108  1.00  0.00     0.179 C 
HETATM    3  O4  UNL     1     -10.972  -2.673  13.237  1.00  0.00    -0.354 OA
HETATM    4  C7  UNL     1      -9.588  -2.651  13.146  1.00  0.00     0.253 C 
HETATM    5  C14 UNL     1      -9.151  -1.239  13.423  1.00  0.00     0.207 C 
HETATM    6  C20 UNL     1      -9.083  -0.472  12.096  1.00  0.00     0.183 C 
HETATM    7  C21 UNL     1     -10.555  -0.281  11.706  1.00  0.00     0.181 C 
ENDROOT
BRANCH   1   8
HETATM    8  O2  UNL     1     -11.891  -1.196  10.050  1.00  0.00    -0.348 OA
BRANCH   8   9
HETATM    9  C3  UNL     1     -11.510  -1.613   8.789  1.00  0.00     0.293 C 
HETATM   10  O1  UNL     1     -10.125  -1.679   8.764  1.00  0.00    -0.340 OA
HETATM   11  C2  UNL     1      -9.680  -2.387   7.621  1.00  0.00     0.217 C 
HETATM   12  C24 UNL     1     -10.509  -2.000   6.441  1.00  0.00     0.188 C 
HETATM   13  C23 UNL     1     -11.147  -0.648   6.567  1.00  0.00     0.183 C 
HETATM   14  C22 UNL     1     -11.965  -0.573   7.806  1.00  0.00     0.204 C 
BRANCH  11  15
HETATM   15  S1  UNL     1      -7.942  -2.204   7.481  1.00  0.00    -0.139 SA
HETATM   16  C1  UNL     1      -6.898  -3.250   8.430  1.00  0.00     0.092 C 
ENDBRANCH  11  15
BRANCH  12  17
HETATM   17  O16 UNL     1      -9.763  -2.141   5.279  1.00  0.00    -0.389 OA
ATOM     18  H16 UNL     1     -10.320  -2.455   4.576  1.00  0.00     0.210 HD
ENDBRANCH  12  17
BRANCH  13  19
HETATM   19  O15 UNL     1     -10.244   0.404   6.437  1.00  0.00    -0.390 OA
ATOM     20  H15 UNL     1      -9.592   0.259   5.762  1.00  0.00     0.210 HD
ENDBRANCH  13  19
BRANCH  14  21
HETATM   21  O14 UNL     1     -11.980   0.694   8.381  1.00  0.00    -0.388 OA
ATOM     22  H14 UNL     1     -11.684   1.355   7.767  1.00  0.00     0.210 HD
ENDBRANCH  14  21
ENDBRANCH   8   9
ENDBRANCH   1   8
BRANCH   2  23
HETATM   23  C6  UNL     1     -13.016  -1.801  12.527  1.00  0.00     0.198 C 
BRANCH  23  24
HETATM   24  O3  UNL     1     -14.026  -2.255  11.664  1.00  0.00    -0.398 OA
ATOM     25  H3  UNL     1     -14.844  -1.826  11.884  1.00  0.00     0.209 HD
ENDBRANCH  23  24
ENDBRANCH   2  23
BRANCH   7  26
HETATM   26  O13 UNL     1     -10.705   0.801  10.842  1.00  0.00    -0.390 OA
ATOM     27  H13 UNL     1     -10.221   1.561  11.145  1.00  0.00     0.210 HD
ENDBRANCH   7  26
BRANCH   6  28
HETATM   28  O12 UNL     1      -8.363  -1.142  11.136  1.00  0.00    -0.390 OA
ATOM     29  H12 UNL     1      -7.520  -0.739  10.966  1.00  0.00     0.210 HD
ENDBRANCH   6  28
BRANCH   4  30
HETATM   30  N1  UNL     1      -9.084  -3.534  14.173  1.00  0.00    -0.362 N 
ATOM     31  H1  UNL     1      -9.397  -3.374  15.131  1.00  0.00     0.162 HD
BRANCH  30  32
HETATM   32  C8  UNL     1      -8.182  -4.610  13.943  1.00  0.00     0.030 A 
HETATM   33  C9  UNL     1      -7.494  -5.175  15.024  1.00  0.00     0.032 A 
HETATM   34  C10 UNL     1      -6.601  -6.211  14.871  1.00  0.00     0.039 A 
HETATM   35  C11 UNL     1      -6.341  -6.748  13.637  1.00  0.00     0.065 A 
HETATM   36  C12 UNL     1      -7.007  -6.208  12.561  1.00  0.00     0.039 A 
HETATM   37  C13 UNL     1      -7.917  -5.153  12.707  1.00  0.00     0.032 A 
BRANCH  35  38
HETATM   38  O5  UNL     1      -5.452  -7.793  13.428  1.00  0.00    -0.361 OA
ATOM     39  H5  UNL     1      -5.707  -8.708  13.441  1.00  0.00     0.217 HD
ENDBRANCH  35  38
ENDBRANCH  30  32
ENDBRANCH   4  30
BRANCH   5  40
HETATM   40  O6  UNL     1      -8.003  -1.080  14.150  1.00  0.00    -0.326 OA
BRANCH  40  41
HETATM   41  C15 UNL     1      -8.239  -0.782  15.500  1.00  0.00     0.416 C 
HETATM   42  O7  UNL     1      -7.483   0.307  15.909  1.00  0.00    -0.306 OA
HETATM   43  C16 UNL     1      -7.470   0.366  17.292  1.00  0.00     0.293 C 
HETATM   44  C17 UNL     1      -6.489  -0.711  17.737  1.00  0.00     0.204 C 
HETATM   45  C18 UNL     1      -6.889  -1.951  16.941  1.00  0.00     0.184 C 
HETATM   46  O11 UNL     1      -8.114  -1.815  16.360  1.00  0.00    -0.329 OA
BRANCH  43  47
HETATM   47  O8  UNL     1      -7.024   1.629  17.659  1.00  0.00    -0.368 OA
ATOM     48  H8  UNL     1      -7.239   2.229  16.955  1.00  0.00     0.212 HD
ENDBRANCH  43  47
BRANCH  44  49
HETATM   49  O9  UNL     1      -5.206  -0.275  17.418  1.00  0.00    -0.388 OA
ATOM     50  H9  UNL     1      -4.795  -0.947  16.887  1.00  0.00     0.210 HD
ENDBRANCH  44  49
BRANCH  45  51
HETATM   51  C19 UNL     1      -5.822  -2.177  15.901  1.00  0.00     0.199 C 
BRANCH  51  52
HETATM   52  O10 UNL     1      -4.697  -2.821  16.396  1.00  0.00    -0.398 OA
ATOM     53  H10 UNL     1      -4.447  -3.587  15.891  1.00  0.00     0.209 HD
ENDBRANCH  51  52
ENDBRANCH  45  51
ENDBRANCH  40  41
ENDBRANCH   5  40
TORSDOF 19
ENDMDL
MODEL 2
REMARK VINA RESULT: -7.249269602      1.402      2.000
REMARK  19 active torsions:
REMARK  status: ('A' for Active; 'I' for Inactive)
REMARK    1  A    between atoms: S1_2  and  C2_3 
REMARK    2  A    between atoms: C3_5  and  O2_6 
REMARK    3  A    between atoms: O2_6  and  C4_7 
REMARK    4  A    between atoms: C5_8  and  C6_9 
REMARK    5  A    between atoms: C6_9  and  O3_10 
REMARK    6  A    between atoms: C7_13  and  N1_14 
REMARK    7  A    between atoms: N1_14  and  C8_16 
REMARK    8  A    between atoms: C11_19  and  O5_20 
REMARK    9  A    between atoms: C14_24  and  O6_25 
REMARK   10  A    between atoms: O6_25  and  C15_26 
REMARK   11  A    between atoms: C16_28  and  O8_29 
REMARK   12  A    between atoms: C17_31  and  O9_32 
REMARK   13  A    between atoms: C18_34  and  C19_35 
REMARK   14  A    between atoms: C19_35  and  O10_36 
REMARK   15  A    between atoms: C20_39  and  O12_40 
REMARK   16  A    between atoms: C21_42  and  O13_43 
REMARK   17  A    between atoms: C22_45  and  O14_46 
REMARK   18  A    between atoms: C23_48  and  O15_49 
REMARK   19  A    between atoms: C24_51  and  O16_52 
ROOT
HETATM    1  C4  UNL     1     -10.789  -1.073  11.157  1.00  0.00     0.187 C 
HETATM    2  C5  UNL     1     -10.959  -2.141  12.201  1.00  0.00     0.179 C 
HETATM    3  O4  UNL     1     -10.134  -2.089  13.275  1.00  0.00    -0.354 OA
HETATM    4  C7  UNL     1      -8.904  -1.471  13.105  1.00  0.00     0.253 C 
HETATM    5  C14 UNL     1      -9.095  -0.014  13.422  1.00  0.00     0.207 C 
HETATM    6  C20 UNL     1      -9.458   0.731  12.130  1.00  0.00     0.183 C 
HETATM    7  C21 UNL     1     -10.894   0.275  11.835  1.00  0.00     0.181 C 
ENDROOT
BRANCH   1   8
HETATM    8  O2  UNL     1     -11.824  -1.098  10.218  1.00  0.00    -0.348 OA
BRANCH   8   9
HETATM    9  C3  UNL     1     -11.442  -1.581   8.981  1.00  0.00     0.293 C 
HETATM   10  O1  UNL     1     -10.056  -1.586   8.936  1.00  0.00    -0.340 OA
HETATM   11  C2  UNL     1      -9.596  -2.349   7.836  1.00  0.00     0.217 C 
HETATM   12  C24 UNL     1     -10.459  -2.081   6.646  1.00  0.00     0.188 C 
HETATM   13  C23 UNL     1     -11.157  -0.754   6.693  1.00  0.00     0.183 C 
HETATM   14  C22 UNL     1     -11.960  -0.633   7.938  1.00  0.00     0.204 C 
BRANCH  11  15
HETATM   15  S1  UNL     1      -7.870  -2.097   7.653  1.00  0.00    -0.139 SA
HETATM   16  C1  UNL     1      -6.761  -3.106   8.569  1.00  0.00     0.092 C 
ENDBRANCH  11  15
BRANCH  12  17
HETATM   17  O16 UNL     1      -9.724  -2.267   5.484  1.00  0.00    -0.389 OA
ATOM     18  H16 UNL     1     -10.222  -1.957   4.737  1.00  0.00     0.210 HD
ENDBRANCH  12  17
BRANCH  13  19
HETATM   19  O15 UNL     1     -10.306   0.326   6.477  1.00  0.00    -0.390 OA
ATOM     20  H15 UNL     1      -9.871   0.299   5.633  1.00  0.00     0.210 HD
ENDBRANCH  13  19
BRANCH  14  21
HETATM   21  O14 UNL     1     -12.025   0.668   8.428  1.00  0.00    -0.388 OA
ATOM     22  H14 UNL     1     -11.647   1.286   7.813  1.00  0.00     0.210 HD
ENDBRANCH  14  21
ENDBRANCH   8   9
ENDBRANCH   1   8
BRANCH   2  23
HETATM   23  C6  UNL     1     -12.400  -2.171  12.725  1.00  0.00     0.198 C 
BRANCH  23  24
HETATM   24  O3  UNL     1     -13.168  -3.030  11.923  1.00  0.00    -0.398 OA
ATOM     25  H3  UNL     1     -13.289  -3.857  12.373  1.00  0.00     0.209 HD
ENDBRANCH  23  24
ENDBRANCH   2  23
BRANCH   7  26
HETATM   26  O13 UNL     1     -11.555   1.202  11.031  1.00  0.00    -0.390 OA
ATOM     27  H13 UNL     1     -12.304   1.579  11.478  1.00  0.00     0.210 HD
ENDBRANCH   7  26
BRANCH   6  28
HETATM   28  O12 UNL     1      -8.592   0.452  11.101  1.00  0.00    -0.390 OA
ATOM     29  H12 UNL     1      -9.022   0.025  10.369  1.00  0.00     0.210 HD
ENDBRANCH   6  28
BRANCH   4  30
HETATM   30  N1  UNL     1      -7.998  -2.068  14.060  1.00  0.00    -0.362 N 
ATOM     31  H1  UNL     1      -7.724  -1.509  14.868  1.00  0.00     0.162 HD
BRANCH  30  32
HETATM   32  C8  UNL     1      -7.460  -3.381  13.952  1.00  0.00     0.030 A 
HETATM   33  C9  UNL     1      -6.902  -3.799  12.738  1.00  0.00     0.032 A 
HETATM   34  C10 UNL     1      -6.373  -5.057  12.562  1.00  0.00     0.039 A 
HETATM   35  C11 UNL     1      -6.367  -5.974  13.580  1.00  0.00     0.065 A 
HETATM   36  C12 UNL     1      -6.910  -5.584  14.782  1.00  0.00     0.039 A 
HETATM   37  C13 UNL     1      -7.451  -4.306  14.971  1.00  0.00     0.032 A 
BRANCH  35  38
HETATM   38  O5  UNL     1      -5.846  -7.254  13.456  1.00  0.00    -0.361 OA
ATOM     39  H5  UNL     1      -6.366  -8.043  13.547  1.00  0.00     0.217 HD
ENDBRANCH  35  38
ENDBRANCH  30  32
ENDBRANCH   4  30
BRANCH   5  40
HETATM   40  O6  UNL     1      -8.077   0.611  14.088  1.00  0.00    -0.326 OA
BRANCH  40  41
HETATM   41  C15 UNL     1      -8.478   1.793  14.730  1.00  0.00     0.416 C 
HETATM   42  O7  UNL     1      -7.380   2.523  15.159  1.00  0.00    -0.306 OA
HETATM   43  C16 UNL     1      -7.791   3.484  16.067  1.00  0.00     0.293 C 
HETATM   44  C17 UNL     1      -8.031   2.735  17.372  1.00  0.00     0.204 C 
HETATM   45  C18 UNL     1      -8.871   1.523  16.974  1.00  0.00     0.184 C 
HETATM   46  O11 UNL     1      -9.386   1.646  15.718  1.00  0.00    -0.329 OA
BRANCH  43  47
HETATM   47  O8  UNL     1      -6.763   4.408  16.204  1.00  0.00    -0.368 OA
ATOM     48  H8  UNL     1      -6.467   4.381  17.106  1.00  0.00     0.212 HD
ENDBRANCH  43  47
BRANCH  44  49
HETATM   49  O9  UNL     1      -6.790   2.367  17.885  1.00  0.00    -0.388 OA
ATOM     50  H9  UNL     1      -6.319   1.907  17.200  1.00  0.00     0.210 HD
ENDBRANCH  44  49
BRANCH  45  51
HETATM   51  C19 UNL     1      -7.982   0.311  17.076  1.00  0.00     0.199 C 
BRANCH  51  52
HETATM   52  O10 UNL     1      -8.634  -0.878  16.779  1.00  0.00    -0.398 OA
ATOM     53  H10 UNL     1      -8.276  -1.327  16.023  1.00  0.00     0.209 HD
ENDBRANCH  51  52
ENDBRANCH  45  51
ENDBRANCH  40  41
ENDBRANCH   5  40
TORSDOF 19
ENDMDL
MODEL 3
REMARK VINA RESULT: -7.247253767      2.984      8.243
REMARK  19 active torsions:
REMARK  status: ('A' for Active; 'I' for Inactive)
REMARK    1  A    between atoms: S1_2  and  C2_3 
REMARK    2  A    between atoms: C3_5  and  O2_6 
REMARK    3  A    between atoms: O2_6  and  C4_7 
REMARK    4  A    between atoms: C5_8  and  C6_9 
REMARK    5  A    between atoms: C6_9  and  O3_10 
REMARK    6  A    between atoms: C7_13  and  N1_14 
REMARK    7  A    between atoms: N1_14  and  C8_16 
REMARK    8  A    between atoms: C11_19  and  O5_20 
REMARK    9  A    between atoms: C14_24  and  O6_25 
REMARK   10  A    between atoms: O6_25  and  C15_26 
REMARK   11  A    between atoms: C16_28  and  O8_29 
REMARK   12  A    between atoms: C17_31  and  O9_32 
REMARK   13  A    between atoms: C18_34  and  C19_35 
REMARK   14  A    between atoms: C19_35  and  O10_36 
REMARK   15  A    between atoms: C20_39  and  O12_40 
REMARK   16  A    between atoms: C21_42  and  O13_43 
REMARK   17  A    between atoms: C22_45  and  O14_46 
REMARK   18  A    between atoms: C23_48  and  O15_49 
REMARK   19  A    between atoms: C24_51  and  O16_52 
ROOT
HETATM    1  C4  UNL     1      -7.118  -0.828  16.185  1.00  0.00     0.187 C 
HETATM    2  C5  UNL     1      -6.373  -2.099  16.487  1.00  0.00     0.179 C 
HETATM    3  O4  UNL     1      -6.672  -3.182  15.731  1.00  0.00    -0.354 OA
HETATM    4  C7  UNL     1      -7.937  -3.235  15.164  1.00  0.00     0.253 C 
HETATM    5  C14 UNL     1      -7.847  -2.562  13.822  1.00  0.00     0.207 C 
HETATM    6  C20 UNL     1      -8.170  -1.072  13.993  1.00  0.00     0.183 C 
HETATM    7  C21 UNL     1      -6.939  -0.510  14.717  1.00  0.00     0.181 C 
ENDROOT
BRANCH   1   8
HETATM    8  O2  UNL     1      -6.578   0.264  16.870  1.00  0.00    -0.348 OA
BRANCH   8   9
HETATM    9  C3  UNL     1      -7.475   0.890  17.715  1.00  0.00     0.293 C 
HETATM   10  O1  UNL     1      -7.730   2.153  17.203  1.00  0.00    -0.340 OA
HETATM   11  C2  UNL     1      -8.861   2.727  17.833  1.00  0.00     0.217 C 
HETATM   12  C24 UNL     1      -8.826   2.421  19.294  1.00  0.00     0.188 C 
HETATM   13  C23 UNL     1      -7.450   2.140  19.820  1.00  0.00     0.183 C 
HETATM   14  C22 UNL     1      -6.817   1.033  19.057  1.00  0.00     0.204 C 
BRANCH  11  15
HETATM   15  S1  UNL     1      -8.976   4.413  17.364  1.00  0.00    -0.139 SA
HETATM   16  C1  UNL     1      -7.666   5.130  16.440  1.00  0.00     0.092 C 
ENDBRANCH  11  15
BRANCH  12  17
HETATM   17  O16 UNL     1      -9.482   3.422  19.997  1.00  0.00    -0.389 OA
ATOM     18  H16 UNL     1     -10.098   3.034  20.608  1.00  0.00     0.210 HD
ENDBRANCH  12  17
BRANCH  13  19
HETATM   19  O15 UNL     1      -6.650   3.276  19.911  1.00  0.00    -0.390 OA
ATOM     20  H15 UNL     1      -7.119   4.082  19.732  1.00  0.00     0.210 HD
ENDBRANCH  13  19
BRANCH  14  21
HETATM   21  O14 UNL     1      -5.438   1.167  18.931  1.00  0.00    -0.388 OA
ATOM     22  H14 UNL     1      -5.208   1.621  18.129  1.00  0.00     0.210 HD
ENDBRANCH  14  21
ENDBRANCH   8   9
ENDBRANCH   1   8
BRANCH   2  23
HETATM   23  C6  UNL     1      -4.858  -1.878  16.402  1.00  0.00     0.198 C 
BRANCH  23  24
HETATM   24  O3  UNL     1      -4.418  -1.221  17.562  1.00  0.00    -0.398 OA
ATOM     25  H3  UNL     1      -3.671  -0.674  17.350  1.00  0.00     0.209 HD
ENDBRANCH  23  24
ENDBRANCH   2  23
BRANCH   7  26
HETATM   26  O13 UNL     1      -6.817   0.861  14.502  1.00  0.00    -0.390 OA
ATOM     27  H13 UNL     1      -6.692   1.061  13.581  1.00  0.00     0.210 HD
ENDBRANCH   7  26
BRANCH   6  28
HETATM   28  O12 UNL     1      -9.336  -0.862  14.690  1.00  0.00    -0.390 OA
ATOM     29  H12 UNL     1      -9.918  -0.253  14.250  1.00  0.00     0.210 HD
ENDBRANCH   6  28
BRANCH   4  30
HETATM   30  N1  UNL     1      -8.264  -4.633  14.993  1.00  0.00    -0.362 N 
ATOM     31  H1  UNL     1      -9.242  -4.907  15.092  1.00  0.00     0.162 HD
BRANCH  30  32
HETATM   32  C8  UNL     1      -7.317  -5.653  14.697  1.00  0.00     0.030 A 
HETATM   33  C9  UNL     1      -7.671  -6.687  13.822  1.00  0.00     0.032 A 
HETATM   34  C10 UNL     1      -6.807  -7.710  13.499  1.00  0.00     0.039 A 
HETATM   35  C11 UNL     1      -5.543  -7.765  14.026  1.00  0.00     0.065 A 
HETATM   36  C12 UNL     1      -5.175  -6.758  14.888  1.00  0.00     0.039 A 
HETATM   37  C13 UNL     1      -6.046  -5.714  15.222  1.00  0.00     0.032 A 
BRANCH  35  38
HETATM   38  O5  UNL     1      -4.634  -8.772  13.733  1.00  0.00    -0.361 OA
ATOM     39  H5  UNL     1      -3.823  -8.625  13.262  1.00  0.00     0.217 HD
ENDBRANCH  35  38
ENDBRANCH  30  32
ENDBRANCH   4  30
BRANCH   5  40
HETATM   40  O6  UNL     1      -8.574  -3.116  12.805  1.00  0.00    -0.326 OA
BRANCH  40  41
HETATM   41  C15 UNL     1      -7.778  -3.739  11.831  1.00  0.00     0.416 C 
HETATM   42  O7  UNL     1      -6.754  -2.900  11.415  1.00  0.00    -0.306 OA
HETATM   43  C16 UNL     1      -6.207  -3.389  10.241  1.00  0.00     0.293 C 
HETATM   44  C17 UNL     1      -7.198  -3.018   9.144  1.00  0.00     0.204 C 
HETATM   45  C18 UNL     1      -8.558  -3.445   9.693  1.00  0.00     0.184 C 
HETATM   46  O11 UNL     1      -8.441  -4.262  10.777  1.00  0.00    -0.329 OA
BRANCH  43  47
HETATM   47  O8  UNL     1      -4.987  -2.753  10.044  1.00  0.00    -0.368 OA
ATOM     48  H8  UNL     1      -4.728  -2.894   9.142  1.00  0.00     0.212 HD
ENDBRANCH  43  47
BRANCH  44  49
HETATM   49  O9  UNL     1      -7.121  -1.642   8.948  1.00  0.00    -0.388 OA
ATOM     50  H9  UNL     1      -6.901  -1.491   8.037  1.00  0.00     0.210 HD
ENDBRANCH  44  49
BRANCH  45  51
HETATM   51  C19 UNL     1      -9.312  -2.189  10.044  1.00  0.00     0.199 C 
BRANCH  51  52
HETATM   52  O10 UNL     1     -10.057  -1.679   8.989  1.00  0.00    -0.398 OA
ATOM     53  H10 UNL     1     -10.688  -1.022   9.256  1.00  0.00     0.209 HD
ENDBRANCH  51  52
ENDBRANCH  45  51
ENDBRANCH  40  41
ENDBRANCH   5  40
TORSDOF 19
ENDMDL
MODEL 4
REMARK VINA RESULT: -7.146721637      2.053      5.361
REMARK  19 active torsions:
REMARK  status: ('A' for Active; 'I' for Inactive)
REMARK    1  A    between atoms: S1_2  and  C2_3 
REMARK    2  A    between atoms: C3_5  and  O2_6 
REMARK    3  A    between atoms: O2_6  and  C4_7 
REMARK    4  A    between atoms: C5_8  and  C6_9 
REMARK    5  A    between atoms: C6_9  and  O3_10 
REMARK    6  A    between atoms: C7_13  and  N1_14 
REMARK    7  A    between atoms: N1_14  and  C8_16 
REMARK    8  A    between atoms: C11_19  and  O5_20 
REMARK    9  A    between atoms: C14_24  and  O6_25 
REMARK   10  A    between atoms: O6_25  and  C15_26 
REMARK   11  A    between atoms: C16_28  and  O8_29 
REMARK   12  A    between atoms: C17_31  and  O9_32 
REMARK   13  A    between atoms: C18_34  and  C19_35 
REMARK   14  A    between atoms: C19_35  and  O10_36 
REMARK   15  A    between atoms: C20_39  and  O12_40 
REMARK   16  A    between atoms: C21_42  and  O13_43 
REMARK   17  A    between atoms: C22_45  and  O14_46 
REMARK   18  A    between atoms: C23_48  and  O15_49 
REMARK   19  A    between atoms: C24_51  and  O16_52 
ROOT
HETATM    1  C4  UNL     1      -9.124  -0.809  12.477  1.00  0.00     0.187 C 
HETATM    2  C5  UNL     1      -8.910   0.014  13.716  1.00  0.00     0.179 C 
HETATM    3  O4  UNL     1      -8.331  -0.605  14.774  1.00  0.00    -0.354 OA
HETATM    4  C7  UNL     1      -8.483  -1.981  14.869  1.00  0.00     0.253 C 
HETATM    5  C14 UNL     1      -7.336  -2.604  14.121  1.00  0.00     0.207 C 
HETATM    6  C20 UNL     1      -7.758  -2.827  12.663  1.00  0.00     0.183 C 
HETATM    7  C21 UNL     1      -7.797  -1.412  12.071  1.00  0.00     0.181 C 
ENDROOT
BRANCH   1   8
HETATM    8  O2  UNL     1      -9.520  -0.020  11.394  1.00  0.00    -0.348 OA
BRANCH   8   9
HETATM    9  C3  UNL     1     -10.679  -0.456  10.780  1.00  0.00     0.293 C 
HETATM   10  O1  UNL     1     -10.317  -1.169   9.647  1.00  0.00    -0.340 OA
HETATM   11  C2  UNL     1     -11.421  -1.902   9.146  1.00  0.00     0.217 C 
HETATM   12  C24 UNL     1     -12.656  -1.067   9.236  1.00  0.00     0.188 C 
HETATM   13  C23 UNL     1     -12.389   0.409   9.255  1.00  0.00     0.183 C 
HETATM   14  C22 UNL     1     -11.462   0.755  10.364  1.00  0.00     0.204 C 
BRANCH  11  15
HETATM   15  S1  UNL     1     -11.001  -2.554   7.573  1.00  0.00    -0.139 SA
HETATM   16  C1  UNL     1     -10.048  -1.572   6.472  1.00  0.00     0.092 C 
ENDBRANCH  11  15
BRANCH  12  17
HETATM   17  O16 UNL     1     -13.549  -1.445   8.244  1.00  0.00    -0.389 OA
ATOM     18  H16 UNL     1     -13.628  -2.391   8.226  1.00  0.00     0.210 HD
ENDBRANCH  12  17
BRANCH  13  19
HETATM   19  O15 UNL     1     -11.987   0.913   8.021  1.00  0.00    -0.390 OA
ATOM     20  H15 UNL     1     -12.531   1.627   7.711  1.00  0.00     0.210 HD
ENDBRANCH  13  19
BRANCH  14  21
HETATM   21  O14 UNL     1     -10.620   1.822  10.066  1.00  0.00    -0.388 OA
ATOM     22  H14 UNL     1     -10.812   2.575  10.612  1.00  0.00     0.210 HD
ENDBRANCH  14  21
ENDBRANCH   8   9
ENDBRANCH   1   8
BRANCH   2  23
HETATM   23  C6  UNL     1      -8.084   1.268  13.405  1.00  0.00     0.198 C 
BRANCH  23  24
HETATM   24  O3  UNL     1      -6.968   1.312  14.255  1.00  0.00    -0.398 OA
ATOM     25  H3  UNL     1      -6.177   1.369  13.733  1.00  0.00     0.209 HD
ENDBRANCH  23  24
ENDBRANCH   2  23
BRANCH   7  26
HETATM   26  O13 UNL     1      -7.654  -1.447  10.685  1.00  0.00    -0.390 OA
ATOM     27  H13 UNL     1      -6.802  -1.126  10.414  1.00  0.00     0.210 HD
ENDBRANCH   7  26
BRANCH   6  28
HETATM   28  O12 UNL     1      -8.964  -3.478  12.558  1.00  0.00    -0.390 OA
ATOM     29  H12 UNL     1      -9.215  -3.636  11.655  1.00  0.00     0.210 HD
ENDBRANCH   6  28
BRANCH   4  30
HETATM   30  N1  UNL     1      -8.397  -2.318  16.272  1.00  0.00    -0.362 N 
ATOM     31  H1  UNL     1      -8.690  -3.254  16.554  1.00  0.00     0.162 HD
BRANCH  30  32
HETATM   32  C8  UNL     1      -7.931  -1.436  17.287  1.00  0.00     0.030 A 
HETATM   33  C9  UNL     1      -8.822  -0.986  18.269  1.00  0.00     0.032 A 
HETATM   34  C10 UNL     1      -8.441  -0.126  19.274  1.00  0.00     0.039 A 
HETATM   35  C11 UNL     1      -7.154   0.336  19.363  1.00  0.00     0.065 A 
HETATM   36  C12 UNL     1      -6.262  -0.095  18.408  1.00  0.00     0.039 A 
HETATM   37  C13 UNL     1      -6.640  -0.969  17.382  1.00  0.00     0.032 A 
BRANCH  35  38
HETATM   38  O5  UNL     1      -6.717   1.202  20.356  1.00  0.00    -0.361 OA
ATOM     39  H5  UNL     1      -5.824   1.518  20.420  1.00  0.00     0.217 HD
ENDBRANCH  35  38
ENDBRANCH  30  32
ENDBRANCH   4  30
BRANCH   5  40
HETATM   40  O6  UNL     1      -6.790  -3.735  14.661  1.00  0.00    -0.326 OA
BRANCH  40  41
HETATM   41  C15 UNL     1      -6.627  -4.771  13.728  1.00  0.00     0.416 C 
HETATM   42  O7  UNL     1      -7.336  -5.901  14.111  1.00  0.00    -0.306 OA
HETATM   43  C16 UNL     1      -6.896  -6.991  13.379  1.00  0.00     0.293 C 
HETATM   44  C17 UNL     1      -5.566  -7.392  14.005  1.00  0.00     0.204 C 
HETATM   45  C18 UNL     1      -4.790  -6.083  14.136  1.00  0.00     0.184 C 
HETATM   46  O11 UNL     1      -5.352  -5.078  13.408  1.00  0.00    -0.329 OA
BRANCH  43  47
HETATM   47  O8  UNL     1      -7.837  -8.003  13.517  1.00  0.00    -0.368 OA
ATOM     48  H8  UNL     1      -7.384  -8.833  13.437  1.00  0.00     0.212 HD
ENDBRANCH  43  47
BRANCH  44  49
HETATM   49  O9  UNL     1      -5.836  -7.967  15.244  1.00  0.00    -0.388 OA
ATOM     50  H9  UNL     1      -5.045  -7.915  15.767  1.00  0.00     0.210 HD
ENDBRANCH  44  49
BRANCH  45  51
HETATM   51  C19 UNL     1      -4.751  -5.732  15.600  1.00  0.00     0.199 C 
BRANCH  51  52
HETATM   52  O10 UNL     1      -3.616  -6.199  16.250  1.00  0.00    -0.398 OA
ATOM     53  H10 UNL     1      -3.118  -5.513  16.679  1.00  0.00     0.209 HD
ENDBRANCH  51  52
ENDBRANCH  45  51
ENDBRANCH  40  41
ENDBRANCH   5  40
TORSDOF 19
ENDMDL
MODEL 5
REMARK VINA RESULT: -7.141413976      1.196      1.404
REMARK  19 active torsions:
REMARK  status: ('A' for Active; 'I' for Inactive)
REMARK    1  A    between atoms: S1_2  and  C2_3 
REMARK    2  A    between atoms: C3_5  and  O2_6 
REMARK    3  A    between atoms: O2_6  and  C4_7 
REMARK    4  A    between atoms: C5_8  and  C6_9 
REMARK    5  A    between atoms: C6_9  and  O3_10 
REMARK    6  A    between atoms: C7_13  and  N1_14 
REMARK    7  A    between atoms: N1_14  and  C8_16 
REMARK    8  A    between atoms: C11_19  and  O5_20 
REMARK    9  A    between atoms: C14_24  and  O6_25 
REMARK   10  A    between atoms: O6_25  and  C15_26 
REMARK   11  A    between atoms: C16_28  and  O8_29 
REMARK   12  A    between atoms: C17_31  and  O9_32 
REMARK   13  A    between atoms: C18_34  and  C19_35 
REMARK   14  A    between atoms: C19_35  and  O10_36 
REMARK   15  A    between atoms: C20_39  and  O12_40 
REMARK   16  A    between atoms: C21_42  and  O13_43 
REMARK   17  A    between atoms: C22_45  and  O14_46 
REMARK   18  A    between atoms: C23_48  and  O15_49 
REMARK   19  A    between atoms: C24_51  and  O16_52 
ROOT
HETATM    1  C4  UNL     1     -10.680  -1.837  11.303  1.00  0.00     0.187 C 
HETATM    2  C5  UNL     1     -10.618  -3.085  12.139  1.00  0.00     0.179 C 
HETATM    3  O4  UNL     1      -9.743  -3.090  13.173  1.00  0.00    -0.354 OA
HETATM    4  C7  UNL     1      -8.633  -2.263  13.074  1.00  0.00     0.253 C 
HETATM    5  C14 UNL     1      -9.020  -0.934  13.659  1.00  0.00     0.207 C 
HETATM    6  C20 UNL     1      -9.575  -0.042  12.541  1.00  0.00     0.183 C 
HETATM    7  C21 UNL     1     -10.941  -0.663  12.220  1.00  0.00     0.181 C 
ENDROOT
BRANCH   1   8
HETATM    8  O2  UNL     1     -11.758  -1.862  10.414  1.00  0.00    -0.348 OA
BRANCH   8   9
HETATM    9  C3  UNL     1     -11.394  -2.108   9.104  1.00  0.00     0.293 C 
HETATM   10  O1  UNL     1     -10.027  -1.900   8.996  1.00  0.00    -0.340 OA
HETATM   11  C2  UNL     1      -9.538  -2.428   7.777  1.00  0.00     0.217 C 
HETATM   12  C24 UNL     1     -10.507  -2.131   6.680  1.00  0.00     0.188 C 
HETATM   13  C23 UNL     1     -11.380  -0.942   6.951  1.00  0.00     0.183 C 
HETATM   14  C22 UNL     1     -12.108  -1.114   8.235  1.00  0.00     0.204 C 
BRANCH  11  15
HETATM   15  S1  UNL     1      -7.881  -1.899   7.555  1.00  0.00    -0.139 SA
HETATM   16  C1  UNL     1      -6.587  -2.816   8.311  1.00  0.00     0.092 C 
ENDBRANCH  11  15
BRANCH  12  17
HETATM   17  O16 UNL     1      -9.831  -2.045   5.470  1.00  0.00    -0.389 OA
ATOM     18  H16 UNL     1     -10.343  -1.535   4.853  1.00  0.00     0.210 HD
ENDBRANCH  12  17
BRANCH  13  19
HETATM   19  O15 UNL     1     -10.707   0.272   6.855  1.00  0.00    -0.390 OA
ATOM     20  H15 UNL     1      -9.836   0.251   7.235  1.00  0.00     0.210 HD
ENDBRANCH  13  19
BRANCH  14  21
HETATM   21  O14 UNL     1     -12.324   0.084   8.911  1.00  0.00    -0.388 OA
ATOM     22  H14 UNL     1     -13.215   0.141   9.233  1.00  0.00     0.210 HD
ENDBRANCH  14  21
ENDBRANCH   8   9
ENDBRANCH   1   8
BRANCH   2  23
HETATM   23  C6  UNL     1     -12.001  -3.436  12.701  1.00  0.00     0.198 C 
BRANCH  23  24
HETATM   24  O3  UNL     1     -12.630  -4.355  11.847  1.00  0.00    -0.398 OA
ATOM     25  H3  UNL     1     -13.568  -4.211  11.867  1.00  0.00     0.209 HD
ENDBRANCH  23  24
ENDBRANCH   2  23
BRANCH   7  26
HETATM   26  O13 UNL     1     -11.786   0.273  11.625  1.00  0.00    -0.390 OA
ATOM     27  H13 UNL     1     -11.417   1.148  11.658  1.00  0.00     0.210 HD
ENDBRANCH   7  26
BRANCH   6  28
HETATM   28  O12 UNL     1      -8.745   0.006  11.446  1.00  0.00    -0.390 OA
ATOM     29  H12 UNL     1      -9.225   0.088  10.630  1.00  0.00     0.210 HD
ENDBRANCH   6  28
BRANCH   4  30
HETATM   30  N1  UNL     1      -7.587  -2.866  13.869  1.00  0.00    -0.362 N 
ATOM     31  H1  UNL     1      -7.082  -2.266  14.522  1.00  0.00     0.162 HD
BRANCH  30  32
HETATM   32  C8  UNL     1      -7.212  -4.237  13.806  1.00  0.00     0.030 A 
HETATM   33  C9  UNL     1      -7.038  -4.959  14.993  1.00  0.00     0.032 A 
HETATM   34  C10 UNL     1      -6.667  -6.285  15.004  1.00  0.00     0.039 A 
HETATM   35  C11 UNL     1      -6.450  -6.971  13.838  1.00  0.00     0.065 A 
HETATM   36  C12 UNL     1      -6.617  -6.281  12.660  1.00  0.00     0.039 A 
HETATM   37  C13 UNL     1      -6.993  -4.932  12.638  1.00  0.00     0.032 A 
BRANCH  35  38
HETATM   38  O5  UNL     1      -6.077  -8.307  13.794  1.00  0.00    -0.361 OA
ATOM     39  H5  UNL     1      -6.443  -8.933  13.181  1.00  0.00     0.217 HD
ENDBRANCH  35  38
ENDBRANCH  30  32
ENDBRANCH   4  30
BRANCH   5  40
HETATM   40  O6  UNL     1      -8.067  -0.280  14.391  1.00  0.00    -0.326 OA
BRANCH  40  41
HETATM   41  C15 UNL     1      -8.599   0.686  15.257  1.00  0.00     0.416 C 
HETATM   42  O7  UNL     1      -7.630   1.606  15.632  1.00  0.00    -0.306 OA
HETATM   43  C16 UNL     1      -8.078   2.327  16.726  1.00  0.00     0.293 C 
HETATM   44  C17 UNL     1      -7.914   1.396  17.922  1.00  0.00     0.204 C 
HETATM   45  C18 UNL     1      -8.523   0.072  17.466  1.00  0.00     0.184 C 
HETATM   46  O11 UNL     1      -9.264   0.211  16.332  1.00  0.00    -0.329 OA
BRANCH  43  47
HETATM   47  O8  UNL     1      -7.269   3.449  16.854  1.00  0.00    -0.368 OA
ATOM     48  H8  UNL     1      -7.547   3.920  17.630  1.00  0.00     0.212 HD
ENDBRANCH  43  47
BRANCH  44  49
HETATM   49  O9  UNL     1      -6.552   1.283  18.188  1.00  0.00    -0.388 OA
ATOM     50  H9  UNL     1      -6.451   1.110  19.117  1.00  0.00     0.210 HD
ENDBRANCH  44  49
BRANCH  45  51
HETATM   51  C19 UNL     1      -7.385  -0.893  17.252  1.00  0.00     0.199 C 
BRANCH  51  52
HETATM   52  O10 UNL     1      -7.803  -2.170  16.904  1.00  0.00    -0.398 OA
ATOM     53  H10 UNL     1      -7.567  -2.832  17.543  1.00  0.00     0.209 HD
ENDBRANCH  51  52
ENDBRANCH  45  51
ENDBRANCH  40  41
ENDBRANCH   5  40
TORSDOF 19
ENDMDL
