MODEL 1
REMARK VINA RESULT: -7.659201202      0.000      0.000
REMARK  18 active torsions:
REMARK  status: ('A' for Active; 'I' for Inactive)
REMARK    1  A    between atoms: C3_4  and  O2_5 
REMARK    2  A    between atoms: O2_5  and  C4_6 
REMARK    3  A    between atoms: C4_6  and  C5_7 
REMARK    4  A    between atoms: C5_7  and  O3_8 
REMARK    5  A    between atoms: C5_7  and  C6_10 
REMARK    6  A    between atoms: C6_10  and  C7_11 
REMARK    7  A    between atoms: C6_10  and  O4_13 
REMARK    8  A    between atoms: O4_13  and  C8_14 
REMARK    9  A    between atoms: C10_18  and  C11_19 
REMARK   10  A    between atoms: C12_23  and  C13_24 
REMARK   11  A    between atoms: C13_24  and  O10_25 
REMARK   12  A    between atoms: C13_24  and  C14_27 
REMARK   13  A    between atoms: C14_27  and  O11_28 
REMARK   14  A    between atoms: C15_31  and  O13_32 
REMARK   15  A    between atoms: C17_36  and  O14_37 
REMARK   16  A    between atoms: C18_39  and  O15_40 
REMARK   17  A    between atoms: C19_42  and  O16_43 
REMARK   18  A    between atoms: C20_45  and  O17_46 
ROOT
HETATM    1  C8  UNL     1      -9.567  -3.860  14.607  1.00  0.00     0.296 C 
HETATM    2  O5  UNL     1      -8.545  -4.148  13.703  1.00  0.00    -0.297 OA
HETATM    3  C9  UNL     1      -7.286  -4.215  14.224  1.00  0.00     0.318 C 
HETATM    4  O6  UNL     1      -6.391  -4.160  13.141  1.00  0.00    -0.289 OA
HETATM    5  C10 UNL     1      -6.484  -5.284  12.374  1.00  0.00     0.370 C 
HETATM    6  O9  UNL     1      -6.893  -6.428  12.993  1.00  0.00    -0.318 OA
HETATM    7  C12 UNL     1      -6.688  -6.452  14.362  1.00  0.00     0.300 C 
HETATM    8  O12 UNL     1      -7.142  -5.319  15.008  1.00  0.00    -0.297 OA
HETATM    9  C15 UNL     1      -6.968  -2.947  15.029  1.00  0.00     0.228 C 
HETATM   10  C16 UNL     1      -7.952  -2.727  16.123  1.00  0.00     0.129 C 
HETATM   11  S2  UNL     1      -8.467  -0.990  16.262  1.00  0.00    -0.087 SA
HETATM   12  C17 UNL     1      -9.143  -3.636  15.999  1.00  0.00     0.190 C 
ENDROOT
BRANCH   1  13
HETATM   13  O4  UNL     1     -10.202  -2.733  14.095  1.00  0.00    -0.350 OA
BRANCH  13  14
HETATM   14  C6  UNL     1     -11.278  -3.021  13.288  1.00  0.00     0.165 C 
BRANCH  14  15
HETATM   15  C5  UNL     1     -10.986  -3.079  11.829  1.00  0.00     0.171 C 
BRANCH  15  16
HETATM   16  C4  UNL     1     -10.052  -2.064  11.292  1.00  0.00     0.205 C 
BRANCH  16  17
HETATM   17  O2  UNL     1      -9.578  -2.341  10.053  1.00  0.00    -0.356 OA
BRANCH  17  18
HETATM   18  C3  UNL     1     -10.399  -2.299   8.971  1.00  0.00     0.291 C 
HETATM   19  O1  UNL     1     -11.155  -1.123   9.070  1.00  0.00    -0.351 OA
HETATM   20  C2  UNL     1     -12.000  -0.907   8.013  1.00  0.00     0.152 C 
HETATM   21  C1  UNL     1     -13.266  -1.746   8.068  1.00  0.00     0.042 C 
HETATM   22  C20 UNL     1     -11.349  -0.976   6.657  1.00  0.00     0.178 C 
HETATM   23  C19 UNL     1     -10.413  -2.159   6.535  1.00  0.00     0.183 C 
HETATM   24  C18 UNL     1      -9.509  -2.117   7.744  1.00  0.00     0.204 C 
BRANCH  22  25
HETATM   25  O17 UNL     1     -10.573   0.177   6.457  1.00  0.00    -0.390 OA
ATOM     26  H17 UNL     1      -9.806   0.139   7.017  1.00  0.00     0.210 HD
ENDBRANCH  22  25
BRANCH  23  27
HETATM   27  O16 UNL     1      -9.634  -1.969   5.375  1.00  0.00    -0.390 OA
ATOM     28  H16 UNL     1      -9.905  -1.163   4.951  1.00  0.00     0.210 HD
ENDBRANCH  23  27
BRANCH  24  29
HETATM   29  O15 UNL     1      -8.559  -3.101   7.618  1.00  0.00    -0.388 OA
ATOM     30  H15 UNL     1      -7.724  -2.864   8.004  1.00  0.00     0.210 HD
ENDBRANCH  24  29
ENDBRANCH  17  18
ENDBRANCH  16  17
ENDBRANCH  15  16
BRANCH  15  31
HETATM   31  O3  UNL     1     -10.676  -4.352  11.420  1.00  0.00    -0.391 OA
ATOM     32  H3  UNL     1     -11.444  -4.904  11.331  1.00  0.00     0.210 HD
ENDBRANCH  15  31
ENDBRANCH  14  15
BRANCH  14  33
HETATM   33  C7  UNL     1     -12.106  -4.177  13.816  1.00  0.00     0.120 C 
HETATM   34  S1  UNL     1     -13.414  -3.705  14.939  1.00  0.00    -0.095 SA
ENDBRANCH  14  33
ENDBRANCH  13  14
ENDBRANCH   1  13
BRANCH  12  35
HETATM   35  O14 UNL     1     -10.205  -3.081  16.727  1.00  0.00    -0.389 OA
ATOM     36  H14 UNL     1     -10.092  -2.139  16.782  1.00  0.00     0.210 HD
ENDBRANCH  12  35
BRANCH   9  37
HETATM   37  O13 UNL     1      -6.918  -1.855  14.136  1.00  0.00    -0.386 OA
ATOM     38  H13 UNL     1      -6.739  -1.067  14.636  1.00  0.00     0.210 HD
ENDBRANCH   9  37
BRANCH   5  39
HETATM   39  C11 UNL     1      -7.304  -5.090  11.146  1.00  0.00     0.231 C 
HETATM   40  O7  UNL     1      -8.355  -5.750  10.995  1.00  0.00    -0.644 OA
HETATM   41  O8  UNL     1      -6.932  -4.191  10.158  1.00  0.00    -0.644 OA
ENDBRANCH   5  39
BRANCH   7  42
HETATM   42  C13 UNL     1      -5.249  -6.790  14.705  1.00  0.00     0.197 C 
BRANCH  42  43
HETATM   43  O10 UNL     1      -4.781  -6.127  15.802  1.00  0.00    -0.389 OA
ATOM     44  H10 UNL     1      -3.876  -5.851  15.720  1.00  0.00     0.210 HD
ENDBRANCH  42  43
BRANCH  42  45
HETATM   45  C14 UNL     1      -5.111  -8.293  14.812  1.00  0.00     0.200 C 
BRANCH  45  46
HETATM   46  O11 UNL     1      -4.613  -8.731  13.578  1.00  0.00    -0.398 OA
ATOM     47  H11 UNL     1      -3.740  -8.365  13.498  1.00  0.00     0.209 HD
ENDBRANCH  45  46
ENDBRANCH  42  45
ENDBRANCH   7  42
TORSDOF 18
ENDMDL
MODEL 2
REMARK VINA RESULT: -7.652228800      1.482      1.789
REMARK  18 active torsions:
REMARK  status: ('A' for Active; 'I' for Inactive)
REMARK    1  A    between atoms: C3_4  and  O2_5 
REMARK    2  A    between atoms: O2_5  and  C4_6 
REMARK    3  A    between atoms: C4_6  and  C5_7 
REMARK    4  A    between atoms: C5_7  and  O3_8 
REMARK    5  A    between atoms: C5_7  and  C6_10 
REMARK    6  A    between atoms: C6_10  and  C7_11 
REMARK    7  A    between atoms: C6_10  and  O4_13 
REMARK    8  A    between atoms: O4_13  and  C8_14 
REMARK    9  A    between atoms: C10_18  and  C11_19 
REMARK   10  A    between atoms: C12_23  and  C13_24 
REMARK   11  A    between atoms: C13_24  and  O10_25 
REMARK   12  A    between atoms: C13_24  and  C14_27 
REMARK   13  A    between atoms: C14_27  and  O11_28 
REMARK   14  A    between atoms: C15_31  and  O13_32 
REMARK   15  A    between atoms: C17_36  and  O14_37 
REMARK   16  A    between atoms: C18_39  and  O15_40 
REMARK   17  A    between atoms: C19_42  and  O16_43 
REMARK   18  A    between atoms: C20_45  and  O17_46 
ROOT
HETATM    1  C8  UNL     1      -9.180  -3.037  14.679  1.00  0.00     0.296 C 
HETATM    2  O5  UNL     1      -8.147  -3.250  13.767  1.00  0.00    -0.297 OA
HETATM    3  C9  UNL     1      -6.960  -3.668  14.293  1.00  0.00     0.318 C 
HETATM    4  O6  UNL     1      -5.984  -3.485  13.297  1.00  0.00    -0.289 OA
HETATM    5  C10 UNL     1      -6.190  -4.336  12.251  1.00  0.00     0.370 C 
HETATM    6  O9  UNL     1      -6.822  -5.514  12.521  1.00  0.00    -0.318 OA
HETATM    7  C12 UNL     1      -6.733  -5.931  13.838  1.00  0.00     0.300 C 
HETATM    8  O12 UNL     1      -7.054  -4.946  14.751  1.00  0.00    -0.297 OA
HETATM    9  C15 UNL     1      -6.512  -2.730  15.423  1.00  0.00     0.228 C 
HETATM   10  C16 UNL     1      -7.534  -2.637  16.501  1.00  0.00     0.129 C 
HETATM   11  S2  UNL     1      -7.779  -0.936  17.089  1.00  0.00    -0.087 SA
HETATM   12  C17 UNL     1      -8.838  -3.262  16.093  1.00  0.00     0.190 C 
ENDROOT
BRANCH   1  13
HETATM   13  O4  UNL     1      -9.588  -1.723  14.471  1.00  0.00    -0.350 OA
BRANCH  13  14
HETATM   14  C6  UNL     1      -9.435  -1.294  13.174  1.00  0.00     0.165 C 
BRANCH  14  15
HETATM   15  C5  UNL     1     -10.639  -1.431  12.308  1.00  0.00     0.171 C 
BRANCH  15  16
HETATM   16  C4  UNL     1     -10.619  -2.512  11.298  1.00  0.00     0.205 C 
BRANCH  16  17
HETATM   17  O2  UNL     1     -10.021  -2.175  10.130  1.00  0.00    -0.356 OA
BRANCH  17  18
HETATM   18  C3  UNL     1     -10.739  -2.110   8.978  1.00  0.00     0.291 C 
HETATM   19  O1  UNL     1     -11.396  -0.871   8.968  1.00  0.00    -0.351 OA
HETATM   20  C2  UNL     1     -12.124  -0.629   7.833  1.00  0.00     0.152 C 
HETATM   21  C1  UNL     1     -13.458  -1.357   7.802  1.00  0.00     0.042 C 
HETATM   22  C20 UNL     1     -11.366  -0.808   6.544  1.00  0.00     0.178 C 
HETATM   23  C19 UNL     1     -10.529  -2.069   6.547  1.00  0.00     0.183 C 
HETATM   24  C18 UNL     1      -9.733  -2.053   7.829  1.00  0.00     0.204 C 
BRANCH  22  25
HETATM   25  O17 UNL     1     -10.479   0.267   6.376  1.00  0.00    -0.390 OA
ATOM     26  H17 UNL     1      -9.659  -0.056   6.021  1.00  0.00     0.210 HD
ENDBRANCH  22  25
BRANCH  23  27
HETATM   27  O16 UNL     1      -9.639  -1.993   5.455  1.00  0.00    -0.390 OA
ATOM     28  H16 UNL     1     -10.078  -2.315   4.677  1.00  0.00     0.210 HD
ENDBRANCH  23  27
BRANCH  24  29
HETATM   29  O15 UNL     1      -8.865  -3.117   7.823  1.00  0.00    -0.388 OA
ATOM     30  H15 UNL     1      -7.953  -2.853   7.808  1.00  0.00     0.210 HD
ENDBRANCH  24  29
ENDBRANCH  17  18
ENDBRANCH  16  17
ENDBRANCH  15  16
BRANCH  15  31
HETATM   31  O3  UNL     1     -11.800  -1.414  13.041  1.00  0.00    -0.391 OA
ATOM     32  H3  UNL     1     -12.391  -0.721  12.773  1.00  0.00     0.210 HD
ENDBRANCH  15  31
ENDBRANCH  14  15
BRANCH  14  33
HETATM   33  C7  UNL     1      -8.740   0.051  13.086  1.00  0.00     0.120 C 
HETATM   34  S1  UNL     1      -9.282   1.083  11.730  1.00  0.00    -0.095 SA
ENDBRANCH  14  33
ENDBRANCH  13  14
ENDBRANCH   1  13
BRANCH  12  35
HETATM   35  O14 UNL     1      -9.854  -2.743  16.907  1.00  0.00    -0.389 OA
ATOM     36  H14 UNL     1      -9.741  -1.803  16.993  1.00  0.00     0.210 HD
ENDBRANCH  12  35
BRANCH   9  37
HETATM   37  O13 UNL     1      -6.220  -1.467  14.863  1.00  0.00    -0.386 OA
ATOM     38  H13 UNL     1      -5.550  -1.052  15.393  1.00  0.00     0.210 HD
ENDBRANCH   9  37
BRANCH   5  39
HETATM   39  C11 UNL     1      -6.869  -3.687  11.094  1.00  0.00     0.231 C 
HETATM   40  O7  UNL     1      -7.623  -4.365  10.362  1.00  0.00    -0.644 OA
HETATM   41  O8  UNL     1      -6.686  -2.344  10.804  1.00  0.00    -0.644 OA
ENDBRANCH   5  39
BRANCH   7  42
HETATM   42  C13 UNL     1      -5.397  -6.590  14.125  1.00  0.00     0.197 C 
BRANCH  42  43
HETATM   43  O10 UNL     1      -4.663  -5.940  15.075  1.00  0.00    -0.389 OA
ATOM     44  H10 UNL     1      -3.762  -6.235  15.124  1.00  0.00     0.210 HD
ENDBRANCH  42  43
BRANCH  42  45
HETATM   45  C14 UNL     1      -5.630  -8.050  14.447  1.00  0.00     0.200 C 
BRANCH  45  46
HETATM   46  O11 UNL     1      -4.690  -8.772  13.700  1.00  0.00    -0.398 OA
ATOM     47  H11 UNL     1      -4.774  -9.678  13.972  1.00  0.00     0.209 HD
ENDBRANCH  45  46
ENDBRANCH  42  45
ENDBRANCH   7  42
TORSDOF 18
ENDMDL
MODEL 3
REMARK VINA RESULT: -7.519197586      1.645      7.175
REMARK  18 active torsions:
REMARK  status: ('A' for Active; 'I' for Inactive)
REMARK    1  A    between atoms: C3_4  and  O2_5 
REMARK    2  A    between atoms: O2_5  and  C4_6 
REMARK    3  A    between atoms: C4_6  and  C5_7 
REMARK    4  A    between atoms: C5_7  and  O3_8 
REMARK    5  A    between atoms: C5_7  and  C6_10 
REMARK    6  A    between atoms: C6_10  and  C7_11 
REMARK    7  A    between atoms: C6_10  and  O4_13 
REMARK    8  A    between atoms: O4_13  and  C8_14 
REMARK    9  A    between atoms: C10_18  and  C11_19 
REMARK   10  A    between atoms: C12_23  and  C13_24 
REMARK   11  A    between atoms: C13_24  and  O10_25 
REMARK   12  A    between atoms: C13_24  and  C14_27 
REMARK   13  A    between atoms: C14_27  and  O11_28 
REMARK   14  A    between atoms: C15_31  and  O13_32 
REMARK   15  A    between atoms: C17_36  and  O14_37 
REMARK   16  A    between atoms: C18_39  and  O15_40 
REMARK   17  A    between atoms: C19_42  and  O16_43 
REMARK   18  A    between atoms: C20_45  and  O17_46 
ROOT
HETATM    1  C8  UNL     1     -10.571  -1.387  12.535  1.00  0.00     0.296 C 
HETATM    2  O5  UNL     1      -9.876  -2.084  11.547  1.00  0.00    -0.297 OA
HETATM    3  C9  UNL     1     -10.640  -2.747  10.632  1.00  0.00     0.318 C 
HETATM    4  O6  UNL     1      -9.790  -3.644   9.963  1.00  0.00    -0.289 OA
HETATM    5  C10 UNL     1      -8.880  -2.976   9.198  1.00  0.00     0.370 C 
HETATM    6  O9  UNL     1      -9.239  -1.745   8.734  1.00  0.00    -0.318 OA
HETATM    7  C12 UNL     1     -10.605  -1.532   8.657  1.00  0.00     0.300 C 
HETATM    8  O12 UNL     1     -11.283  -1.873   9.810  1.00  0.00    -0.297 OA
HETATM    9  C15 UNL     1     -11.655  -3.657  11.337  1.00  0.00     0.228 C 
HETATM   10  C16 UNL     1     -12.533  -2.892  12.264  1.00  0.00     0.129 C 
HETATM   11  S2  UNL     1     -12.788  -3.742  13.849  1.00  0.00    -0.087 SA
HETATM   12  C17 UNL     1     -12.038  -1.489  12.475  1.00  0.00     0.190 C 
ENDROOT
BRANCH   1  13
HETATM   13  O4  UNL     1     -10.089  -1.885  13.742  1.00  0.00    -0.350 OA
BRANCH  13  14
HETATM   14  C6  UNL     1      -9.258  -1.015  14.408  1.00  0.00     0.165 C 
BRANCH  14  15
HETATM   15  C5  UNL     1      -7.844  -1.462  14.548  1.00  0.00     0.171 C 
BRANCH  15  16
HETATM   16  C4  UNL     1      -7.579  -2.560  15.503  1.00  0.00     0.205 C 
BRANCH  16  17
HETATM   17  O2  UNL     1      -7.987  -3.781  15.080  1.00  0.00    -0.356 OA
BRANCH  17  18
HETATM   18  C3  UNL     1      -7.105  -4.653  14.526  1.00  0.00     0.291 C 
HETATM   19  O1  UNL     1      -7.032  -5.766  15.376  1.00  0.00    -0.351 OA
HETATM   20  C2  UNL     1      -6.217  -6.769  14.921  1.00  0.00     0.152 C 
HETATM   21  C1  UNL     1      -4.738  -6.490  15.132  1.00  0.00     0.042 C 
HETATM   22  C20 UNL     1      -6.499  -7.226  13.515  1.00  0.00     0.178 C 
HETATM   23  C19 UNL     1      -6.718  -6.063  12.572  1.00  0.00     0.183 C 
HETATM   24  C18 UNL     1      -7.735  -5.162  13.231  1.00  0.00     0.204 C 
BRANCH  22  25
HETATM   25  O17 UNL     1      -7.679  -7.986  13.503  1.00  0.00    -0.390 OA
ATOM     26  H17 UNL     1      -7.489  -8.865  13.811  1.00  0.00     0.210 HD
ENDBRANCH  22  25
BRANCH  23  27
HETATM   27  O16 UNL     1      -7.268  -6.578  11.380  1.00  0.00    -0.390 OA
ATOM     28  H16 UNL     1      -6.564  -6.902  10.830  1.00  0.00     0.210 HD
ENDBRANCH  23  27
BRANCH  24  29
HETATM   29  O15 UNL     1      -8.060  -4.152  12.359  1.00  0.00    -0.388 OA
ATOM     30  H15 UNL     1      -7.769  -4.320  11.470  1.00  0.00     0.210 HD
ENDBRANCH  24  29
ENDBRANCH  17  18
ENDBRANCH  16  17
ENDBRANCH  15  16
BRANCH  15  31
HETATM   31  O3  UNL     1      -7.250  -1.669  13.327  1.00  0.00    -0.391 OA
ATOM     32  H3  UNL     1      -7.217  -0.880  12.799  1.00  0.00     0.210 HD
ENDBRANCH  15  31
ENDBRANCH  14  15
BRANCH  14  33
HETATM   33  C7  UNL     1      -9.428   0.418  13.946  1.00  0.00     0.120 C 
HETATM   34  S1  UNL     1      -8.177   1.548  14.544  1.00  0.00    -0.095 SA
ENDBRANCH  14  33
ENDBRANCH  13  14
ENDBRANCH   1  13
BRANCH  12  35
HETATM   35  O14 UNL     1     -12.589  -0.998  13.667  1.00  0.00    -0.389 OA
ATOM     36  H14 UNL     1     -12.338  -1.563  14.388  1.00  0.00     0.210 HD
ENDBRANCH  12  35
BRANCH   9  37
HETATM   37  O13 UNL     1     -10.946  -4.679  12.006  1.00  0.00    -0.386 OA
ATOM     38  H13 UNL     1     -11.405  -5.500  11.871  1.00  0.00     0.210 HD
ENDBRANCH   9  37
BRANCH   5  39
HETATM   39  C11 UNL     1      -7.541  -2.867   9.844  1.00  0.00     0.231 C 
HETATM   40  O7  UNL     1      -7.203  -1.791  10.385  1.00  0.00    -0.644 OA
HETATM   41  O8  UNL     1      -6.653  -3.932   9.861  1.00  0.00    -0.644 OA
ENDBRANCH   5  39
BRANCH   7  42
HETATM   42  C13 UNL     1     -11.199  -2.167   7.413  1.00  0.00     0.197 C 
BRANCH  42  43
HETATM   43  O10 UNL     1     -12.563  -2.235   7.436  1.00  0.00    -0.389 OA
ATOM     44  H10 UNL     1     -12.909  -3.014   7.017  1.00  0.00     0.210 HD
ENDBRANCH  42  43
BRANCH  42  45
HETATM   45  C14 UNL     1     -10.658  -1.454   6.193  1.00  0.00     0.200 C 
BRANCH  45  46
HETATM   46  O11 UNL     1      -9.511  -2.157   5.804  1.00  0.00    -0.398 OA
ATOM     47  H11 UNL     1      -9.212  -1.754   4.997  1.00  0.00     0.209 HD
ENDBRANCH  45  46
ENDBRANCH  42  45
ENDBRANCH   7  42
TORSDOF 18
ENDMDL
MODEL 4
REMARK VINA RESULT: -7.486976891      1.466      2.274
REMARK  18 active torsions:
REMARK  status: ('A' for Active; 'I' for Inactive)
REMARK    1  A    between atoms: C3_4  and  O2_5 
REMARK    2  A    between atoms: O2_5  and  C4_6 
REMARK    3  A    between atoms: C4_6  and  C5_7 
REMARK    4  A    between atoms: C5_7  and  O3_8 
REMARK    5  A    between atoms: C5_7  and  C6_10 
REMARK    6  A    between atoms: C6_10  and  C7_11 
REMARK    7  A    between atoms: C6_10  and  O4_13 
REMARK    8  A    between atoms: O4_13  and  C8_14 
REMARK    9  A    between atoms: C10_18  and  C11_19 
REMARK   10  A    between atoms: C12_23  and  C13_24 
REMARK   11  A    between atoms: C13_24  and  O10_25 
REMARK   12  A    between atoms: C13_24  and  C14_27 
REMARK   13  A    between atoms: C14_27  and  O11_28 
REMARK   14  A    between atoms: C15_31  and  O13_32 
REMARK   15  A    between atoms: C17_36  and  O14_37 
REMARK   16  A    between atoms: C18_39  and  O15_40 
REMARK   17  A    between atoms: C19_42  and  O16_43 
REMARK   18  A    between atoms: C20_45  and  O17_46 
ROOT
HETATM    1  C8  UNL     1      -9.352  -3.323  14.461  1.00  0.00     0.296 C 
HETATM    2  O5  UNL     1      -8.252  -3.485  13.619  1.00  0.00    -0.297 OA
HETATM    3  C9  UNL     1      -7.079  -3.829  14.224  1.00  0.00     0.318 C 
HETATM    4  O6  UNL     1      -6.054  -3.601  13.290  1.00  0.00    -0.289 OA
HETATM    5  C10 UNL     1      -6.144  -4.472  12.244  1.00  0.00     0.370 C 
HETATM    6  O9  UNL     1      -6.724  -5.682  12.489  1.00  0.00    -0.318 OA
HETATM    7  C12 UNL     1      -6.696  -6.080  13.815  1.00  0.00     0.300 C 
HETATM    8  O12 UNL     1      -7.129  -5.106  14.693  1.00  0.00    -0.297 OA
HETATM    9  C15 UNL     1      -6.759  -2.856  15.368  1.00  0.00     0.228 C 
HETATM   10  C16 UNL     1      -7.850  -2.812  16.377  1.00  0.00     0.129 C 
HETATM   11  S2  UNL     1      -8.229  -1.122  16.926  1.00  0.00    -0.087 SA
HETATM   12  C17 UNL     1      -9.089  -3.515  15.897  1.00  0.00     0.190 C 
ENDROOT
BRANCH   1  13
HETATM   13  O4  UNL     1      -9.819  -2.038  14.210  1.00  0.00    -0.350 OA
BRANCH  13  14
HETATM   14  C6  UNL     1      -9.656  -1.633  12.906  1.00  0.00     0.165 C 
BRANCH  14  15
HETATM   15  C5  UNL     1     -10.804  -1.914  12.000  1.00  0.00     0.171 C 
BRANCH  15  16
HETATM   16  C4  UNL     1     -10.727  -3.146  11.183  1.00  0.00     0.205 C 
BRANCH  16  17
HETATM   17  O2  UNL     1     -11.262  -3.030   9.944  1.00  0.00    -0.356 OA
BRANCH  17  18
HETATM   18  C3  UNL     1     -10.671  -2.244   9.005  1.00  0.00     0.291 C 
HETATM   19  O1  UNL     1      -9.846  -3.071   8.231  1.00  0.00    -0.351 OA
HETATM   20  C2  UNL     1      -9.217  -2.430   7.196  1.00  0.00     0.152 C 
HETATM   21  C1  UNL     1      -8.015  -1.609   7.632  1.00  0.00     0.042 C 
HETATM   22  C20 UNL     1     -10.129  -1.640   6.294  1.00  0.00     0.178 C 
HETATM   23  C19 UNL     1     -11.135  -0.824   7.076  1.00  0.00     0.183 C 
HETATM   24  C18 UNL     1     -11.777  -1.766   8.066  1.00  0.00     0.204 C 
BRANCH  22  25
HETATM   25  O17 UNL     1     -10.863  -2.525   5.488  1.00  0.00    -0.390 OA
ATOM     26  H17 UNL     1     -11.509  -2.971   6.023  1.00  0.00     0.210 HD
ENDBRANCH  22  25
BRANCH  23  27
HETATM   27  O16 UNL     1     -12.117  -0.375   6.169  1.00  0.00    -0.390 OA
ATOM     28  H16 UNL     1     -12.174   0.572   6.220  1.00  0.00     0.210 HD
ENDBRANCH  23  27
BRANCH  24  29
HETATM   29  O15 UNL     1     -12.785  -1.101   8.717  1.00  0.00    -0.388 OA
ATOM     30  H15 UNL     1     -12.498  -0.288   9.116  1.00  0.00     0.210 HD
ENDBRANCH  24  29
ENDBRANCH  17  18
ENDBRANCH  16  17
ENDBRANCH  15  16
BRANCH  15  31
HETATM   31  O3  UNL     1     -12.008  -1.782  12.645  1.00  0.00    -0.391 OA
ATOM     32  H3  UNL     1     -12.513  -1.042  12.329  1.00  0.00     0.210 HD
ENDBRANCH  15  31
ENDBRANCH  14  15
BRANCH  14  33
HETATM   33  C7  UNL     1      -9.094  -0.229  12.801  1.00  0.00     0.120 C 
HETATM   34  S1  UNL     1      -9.786   0.755  11.478  1.00  0.00    -0.095 SA
ENDBRANCH  14  33
ENDBRANCH  13  14
ENDBRANCH   1  13
BRANCH  12  35
HETATM   35  O14 UNL     1     -10.182  -3.046  16.638  1.00  0.00    -0.389 OA
ATOM     36  H14 UNL     1     -10.705  -3.783  16.930  1.00  0.00     0.210 HD
ENDBRANCH  12  35
BRANCH   9  37
HETATM   37  O13 UNL     1      -6.504  -1.584  14.809  1.00  0.00    -0.386 OA
ATOM     38  H13 UNL     1      -5.563  -1.460  14.765  1.00  0.00     0.210 HD
ENDBRANCH   9  37
BRANCH   5  39
HETATM   39  C11 UNL     1      -6.784  -3.875  11.038  1.00  0.00     0.231 C 
HETATM   40  O7  UNL     1      -7.490  -4.592  10.296  1.00  0.00    -0.644 OA
HETATM   41  O8  UNL     1      -6.616  -2.538  10.713  1.00  0.00    -0.644 OA
ENDBRANCH   5  39
BRANCH   7  42
HETATM   42  C13 UNL     1      -5.345  -6.659  14.195  1.00  0.00     0.197 C 
BRANCH  42  43
HETATM   43  O10 UNL     1      -4.715  -5.962  15.186  1.00  0.00    -0.389 OA
ATOM     44  H10 UNL     1      -4.274  -6.518  15.817  1.00  0.00     0.210 HD
ENDBRANCH  42  43
BRANCH  42  45
HETATM   45  C14 UNL     1      -5.514  -8.128  14.513  1.00  0.00     0.200 C 
BRANCH  45  46
HETATM   46  O11 UNL     1      -4.622  -8.815  13.680  1.00  0.00    -0.398 OA
ATOM     47  H11 UNL     1      -4.888  -9.727  13.699  1.00  0.00     0.209 HD
ENDBRANCH  45  46
ENDBRANCH  42  45
ENDBRANCH   7  42
TORSDOF 18
ENDMDL
MODEL 5
REMARK VINA RESULT: -7.458812661      2.063      8.199
REMARK  18 active torsions:
REMARK  status: ('A' for Active; 'I' for Inactive)
REMARK    1  A    between atoms: C3_4  and  O2_5 
REMARK    2  A    between atoms: O2_5  and  C4_6 
REMARK    3  A    between atoms: C4_6  and  C5_7 
REMARK    4  A    between atoms: C5_7  and  O3_8 
REMARK    5  A    between atoms: C5_7  and  C6_10 
REMARK    6  A    between atoms: C6_10  and  C7_11 
REMARK    7  A    between atoms: C6_10  and  O4_13 
REMARK    8  A    between atoms: O4_13  and  C8_14 
REMARK    9  A    between atoms: C10_18  and  C11_19 
REMARK   10  A    between atoms: C12_23  and  C13_24 
REMARK   11  A    between atoms: C13_24  and  O10_25 
REMARK   12  A    between atoms: C13_24  and  C14_27 
REMARK   13  A    between atoms: C14_27  and  O11_28 
REMARK   14  A    between atoms: C15_31  and  O13_32 
REMARK   15  A    between atoms: C17_36  and  O14_37 
REMARK   16  A    between atoms: C18_39  and  O15_40 
REMARK   17  A    between atoms: C19_42  and  O16_43 
REMARK   18  A    between atoms: C20_45  and  O17_46 
ROOT
HETATM    1  C8  UNL     1     -10.695  -1.166  11.073  1.00  0.00     0.296 C 
HETATM    2  O5  UNL     1     -10.695  -1.516   9.723  1.00  0.00    -0.297 OA
HETATM    3  C9  UNL     1     -11.903  -1.869   9.197  1.00  0.00     0.318 C 
HETATM    4  O6  UNL     1     -11.644  -2.508   7.972  1.00  0.00    -0.289 OA
HETATM    5  C10 UNL     1     -11.140  -1.628   7.060  1.00  0.00     0.370 C 
HETATM    6  O9  UNL     1     -11.488  -0.317   7.200  1.00  0.00    -0.318 OA
HETATM    7  C12 UNL     1     -12.662  -0.102   7.901  1.00  0.00     0.300 C 
HETATM    8  O12 UNL     1     -12.725  -0.789   9.097  1.00  0.00    -0.297 OA
HETATM    9  C15 UNL     1     -12.563  -2.962  10.050  1.00  0.00     0.228 C 
HETATM   10  C16 UNL     1     -12.739  -2.529  11.462  1.00  0.00     0.129 C 
HETATM   11  S2  UNL     1     -12.305  -3.830  12.653  1.00  0.00    -0.087 SA
HETATM   12  C17 UNL     1     -11.996  -1.256  11.756  1.00  0.00     0.190 C 
ENDROOT
BRANCH   1  13
HETATM   13  O4  UNL     1      -9.763  -2.009  11.670  1.00  0.00    -0.350 OA
BRANCH  13  14
HETATM   14  C6  UNL     1      -8.498  -1.474  11.744  1.00  0.00     0.165 C 
BRANCH  14  15
HETATM   15  C5  UNL     1      -7.525  -1.994  10.744  1.00  0.00     0.171 C 
BRANCH  15  16
HETATM   16  C4  UNL     1      -7.322  -3.459  10.703  1.00  0.00     0.205 C 
BRANCH  16  17
HETATM   17  O2  UNL     1      -6.102  -3.867  11.130  1.00  0.00    -0.356 OA
BRANCH  17  18
HETATM   18  C3  UNL     1      -5.978  -4.629  12.248  1.00  0.00     0.291 C 
HETATM   19  O1  UNL     1      -6.351  -3.828  13.338  1.00  0.00    -0.351 OA
HETATM   20  C2  UNL     1      -6.333  -4.477  14.545  1.00  0.00     0.152 C 
HETATM   21  C1  UNL     1      -4.936  -4.644  15.122  1.00  0.00     0.042 C 
HETATM   22  C20 UNL     1      -7.104  -5.770  14.581  1.00  0.00     0.178 C 
HETATM   23  C19 UNL     1      -6.843  -6.622  13.358  1.00  0.00     0.183 C 
HETATM   24  C18 UNL     1      -7.038  -5.725  12.159  1.00  0.00     0.204 C 
BRANCH  22  25
HETATM   25  O17 UNL     1      -8.479  -5.487  14.592  1.00  0.00    -0.390 OA
ATOM     26  H17 UNL     1      -8.955  -6.233  14.246  1.00  0.00     0.210 HD
ENDBRANCH  22  25
BRANCH  23  27
HETATM   27  O16 UNL     1      -7.819  -7.640  13.331  1.00  0.00    -0.390 OA
ATOM     28  H16 UNL     1      -7.388  -8.483  13.410  1.00  0.00     0.210 HD
ENDBRANCH  23  27
BRANCH  24  29
HETATM   29  O15 UNL     1      -6.931  -6.483  11.019  1.00  0.00    -0.388 OA
ATOM     30  H15 UNL     1      -7.094  -7.407  11.171  1.00  0.00     0.210 HD
ENDBRANCH  24  29
ENDBRANCH  17  18
ENDBRANCH  16  17
ENDBRANCH  15  16
BRANCH  15  31
HETATM   31  O3  UNL     1      -7.734  -1.454   9.499  1.00  0.00    -0.391 OA
ATOM     32  H3  UNL     1      -6.954  -1.046   9.141  1.00  0.00     0.210 HD
ENDBRANCH  15  31
ENDBRANCH  14  15
BRANCH  14  33
HETATM   33  C7  UNL     1      -8.514   0.035  11.890  1.00  0.00     0.120 C 
HETATM   34  S1  UNL     1      -8.176   0.628  13.543  1.00  0.00    -0.095 SA
ENDBRANCH  14  33
ENDBRANCH  13  14
ENDBRANCH   1  13
BRANCH  12  35
HETATM   35  O14 UNL     1     -11.803  -1.163  13.141  1.00  0.00    -0.389 OA
ATOM     36  H14 UNL     1     -12.623  -0.926  13.559  1.00  0.00     0.210 HD
ENDBRANCH  12  35
BRANCH   9  37
HETATM   37  O13 UNL     1     -11.783  -4.135   9.950  1.00  0.00    -0.386 OA
ATOM     38  H13 UNL     1     -10.876  -3.881   9.826  1.00  0.00     0.210 HD
ENDBRANCH   9  37
BRANCH   5  39
HETATM   39  C11 UNL     1      -9.658  -1.714   6.921  1.00  0.00     0.231 C 
HETATM   40  O7  UNL     1      -9.086  -2.813   7.084  1.00  0.00    -0.644 OA
HETATM   41  O8  UNL     1      -8.892  -0.600   6.614  1.00  0.00    -0.644 OA
ENDBRANCH   5  39
BRANCH   7  42
HETATM   42  C13 UNL     1     -13.882  -0.325   7.027  1.00  0.00     0.197 C 
BRANCH  42  43
HETATM   43  O10 UNL     1     -14.813  -1.148   7.593  1.00  0.00    -0.389 OA
ATOM     44  H10 UNL     1     -15.449  -1.483   6.972  1.00  0.00     0.210 HD
ENDBRANCH  42  43
BRANCH  42  45
HETATM   45  C14 UNL     1     -14.444   1.019   6.617  1.00  0.00     0.200 C 
BRANCH  45  46
HETATM   46  O11 UNL     1     -14.518   1.004   5.219  1.00  0.00    -0.398 OA
ATOM     47  H11 UNL     1     -13.691   1.351   4.905  1.00  0.00     0.209 HD
ENDBRANCH  45  46
ENDBRANCH  42  45
ENDBRANCH   7  42
TORSDOF 18
ENDMDL
