MODEL 1
REMARK VINA RESULT: -5.991329598      0.000      0.000
REMARK  2 active torsions:
REMARK  status: ('A' for Active; 'I' for Inactive)
REMARK    1  A    between atoms: N1_3  and  C3_4 
REMARK    2  A    between atoms: C3_4  and  C4_5 
ROOT
HETATM    1  C4  UNL     1      27.050  -6.636  13.659  1.00  0.00     0.058 C 
HETATM    2  C5  UNL     1      26.371  -7.874  14.244  1.00  0.00     0.204 C 
HETATM    3  O1  UNL     1      25.468  -7.414  15.185  1.00  0.00    -0.285 OA
HETATM    4  N2  UNL     1      25.905  -6.201  15.592  1.00  0.00    -0.088 NA
HETATM    5  C6  UNL     1      26.245  -5.568  14.355  1.00  0.00     0.087 C 
HETATM    6  C7  UNL     1      26.992  -4.267  14.541  1.00  0.00     0.058 C 
HETATM    7  C8  UNL     1      25.812  -3.324  14.765  1.00  0.00     0.170 C 
HETATM    8  O2  UNL     1      24.674  -3.977  14.357  1.00  0.00    -0.389 OA
HETATM    9  C9  UNL     1      25.038  -5.102  13.615  1.00  0.00     0.197 C 
ENDROOT
BRANCH   1  10
HETATM   10  C3  UNL     1      28.512  -6.560  14.116  1.00  0.00     0.131 C 
BRANCH  10  11
HETATM   11  N1  UNL     1      29.322  -6.430  12.978  1.00  0.00    -0.389 N 
HETATM   12  C2  UNL     1      30.709  -6.360  13.118  1.00  0.00     0.084 C 
HETATM   13  C1  UNL     1      31.514  -6.443  11.865  1.00  0.00     0.212 C 
HETATM   14  O3  UNL     1      30.913  -7.211  10.857  1.00  0.00    -0.385 OA
HETATM   15  C11 UNL     1      29.681  -6.562  10.607  1.00  0.00     0.187 C 
HETATM   16  C10 UNL     1      28.785  -6.895  11.752  1.00  0.00     0.148 C 
ENDBRANCH  10  11
ENDBRANCH   1  10
TORSDOF 2
ENDMDL
MODEL 2
REMARK VINA RESULT: -5.986496355      2.735      3.754
REMARK  2 active torsions:
REMARK  status: ('A' for Active; 'I' for Inactive)
REMARK    1  A    between atoms: N1_3  and  C3_4 
REMARK    2  A    between atoms: C3_4  and  C4_5 
ROOT
HETATM    1  C4  UNL     1      26.598  -4.124  13.814  1.00  0.00     0.058 C 
HETATM    2  C5  UNL     1      25.576  -4.055  14.948  1.00  0.00     0.204 C 
HETATM    3  O1  UNL     1      25.889  -2.929  15.687  1.00  0.00    -0.285 OA
HETATM    4  N2  UNL     1      27.200  -2.671  15.477  1.00  0.00    -0.088 NA
HETATM    5  C6  UNL     1      27.318  -2.822  14.060  1.00  0.00     0.087 C 
HETATM    6  C7  UNL     1      28.752  -2.820  13.581  1.00  0.00     0.058 C 
HETATM    7  C8  UNL     1      28.992  -1.313  13.498  1.00  0.00     0.170 C 
HETATM    8  O2  UNL     1      27.767  -0.694  13.539  1.00  0.00    -0.389 OA
HETATM    9  C9  UNL     1      26.769  -1.647  13.324  1.00  0.00     0.197 C 
ENDROOT
BRANCH   1  10
HETATM   10  C3  UNL     1      27.564  -5.295  14.034  1.00  0.00     0.131 C 
BRANCH  10  11
HETATM   11  N1  UNL     1      27.205  -6.331  13.158  1.00  0.00    -0.389 N 
HETATM   12  C2  UNL     1      26.936  -7.605  13.663  1.00  0.00     0.084 C 
HETATM   13  C1  UNL     1      26.353  -8.593  12.710  1.00  0.00     0.212 C 
HETATM   14  O3  UNL     1      25.558  -8.014  11.711  1.00  0.00    -0.385 OA
HETATM   15  C11 UNL     1      26.433  -7.134  11.031  1.00  0.00     0.187 C 
HETATM   16  C10 UNL     1      26.626  -5.953  11.922  1.00  0.00     0.148 C 
ENDBRANCH  10  11
ENDBRANCH   1  10
TORSDOF 2
ENDMDL
MODEL 3
REMARK VINA RESULT: -5.969295029      1.967      2.423
REMARK  2 active torsions:
REMARK  status: ('A' for Active; 'I' for Inactive)
REMARK    1  A    between atoms: N1_3  and  C3_4 
REMARK    2  A    between atoms: C3_4  and  C4_5 
ROOT
HETATM    1  C4  UNL     1      26.233  -6.580  13.322  1.00  0.00     0.058 C 
HETATM    2  C5  UNL     1      25.361  -7.450  14.227  1.00  0.00     0.204 C 
HETATM    3  O1  UNL     1      25.271  -6.785  15.436  1.00  0.00    -0.285 OA
HETATM    4  N2  UNL     1      26.354  -5.982  15.528  1.00  0.00    -0.088 NA
HETATM    5  C6  UNL     1      26.405  -5.387  14.229  1.00  0.00     0.087 C 
HETATM    6  C7  UNL     1      27.680  -4.613  13.981  1.00  0.00     0.058 C 
HETATM    7  C8  UNL     1      27.305  -3.285  14.637  1.00  0.00     0.170 C 
HETATM    8  O2  UNL     1      25.943  -3.279  14.814  1.00  0.00    -0.389 OA
HETATM    9  C9  UNL     1      25.382  -4.314  14.064  1.00  0.00     0.197 C 
ENDROOT
BRANCH   1  10
HETATM   10  C3  UNL     1      27.593  -7.247  13.085  1.00  0.00     0.131 C 
BRANCH  10  11
HETATM   11  N1  UNL     1      27.696  -7.565  11.723  1.00  0.00    -0.389 N 
HETATM   12  C2  UNL     1      26.957  -8.628  11.201  1.00  0.00     0.084 C 
HETATM   13  C1  UNL     1      26.947  -8.771   9.716  1.00  0.00     0.212 C 
HETATM   14  O3  UNL     1      27.071  -7.555   9.030  1.00  0.00    -0.385 OA
HETATM   15  C11 UNL     1      28.312  -7.032   9.464  1.00  0.00     0.187 C 
HETATM   16  C10 UNL     1      28.099  -6.524  10.850  1.00  0.00     0.148 C 
ENDBRANCH  10  11
ENDBRANCH   1  10
TORSDOF 2
ENDMDL
MODEL 4
REMARK VINA RESULT: -5.943794296      2.581      3.733
REMARK  2 active torsions:
REMARK  status: ('A' for Active; 'I' for Inactive)
REMARK    1  A    between atoms: N1_3  and  C3_4 
REMARK    2  A    between atoms: C3_4  and  C4_5 
ROOT
HETATM    1  C4  UNL     1      26.635  -4.126  13.409  1.00  0.00     0.058 C 
HETATM    2  C5  UNL     1      25.611  -4.249  14.537  1.00  0.00     0.204 C 
HETATM    3  O1  UNL     1      25.908  -3.248  15.444  1.00  0.00    -0.285 OA
HETATM    4  N2  UNL     1      27.215  -2.941  15.279  1.00  0.00    -0.088 NA
HETATM    5  C6  UNL     1      27.335  -2.867  13.856  1.00  0.00     0.087 C 
HETATM    6  C7  UNL     1      28.769  -2.770  13.387  1.00  0.00     0.058 C 
HETATM    7  C8  UNL     1      28.986  -1.265  13.541  1.00  0.00     0.170 C 
HETATM    8  O2  UNL     1      27.752  -0.678  13.675  1.00  0.00    -0.389 OA
HETATM    9  C9  UNL     1      26.768  -1.600  13.312  1.00  0.00     0.197 C 
ENDROOT
BRANCH   1  10
HETATM   10  C3  UNL     1      27.617  -5.303  13.445  1.00  0.00     0.131 C 
BRANCH  10  11
HETATM   11  N1  UNL     1      26.992  -6.416  12.864  1.00  0.00    -0.389 N 
HETATM   12  C2  UNL     1      26.953  -6.543  11.474  1.00  0.00     0.084 C 
HETATM   13  C1  UNL     1      26.471  -7.847  10.934  1.00  0.00     0.212 C 
HETATM   14  O3  UNL     1      26.749  -8.941  11.766  1.00  0.00    -0.385 OA
HETATM   15  C11 UNL     1      26.088  -8.638  12.980  1.00  0.00     0.187 C 
HETATM   16  C10 UNL     1      26.902  -7.587  13.657  1.00  0.00     0.148 C 
ENDBRANCH  10  11
ENDBRANCH   1  10
TORSDOF 2
ENDMDL
MODEL 5
REMARK VINA RESULT: -5.861696114      6.025      6.855
REMARK  2 active torsions:
REMARK  status: ('A' for Active; 'I' for Inactive)
REMARK    1  A    between atoms: N1_3  and  C3_4 
REMARK    2  A    between atoms: C3_4  and  C4_5 
ROOT
HETATM    1  C4  UNL     1      30.296  -1.324  14.822  1.00  0.00     0.058 C 
HETATM    2  C5  UNL     1      30.579  -2.397  15.873  1.00  0.00     0.204 C 
HETATM    3  O1  UNL     1      29.388  -3.070  16.073  1.00  0.00    -0.285 OA
HETATM    4  N2  UNL     1      28.393  -2.226  15.717  1.00  0.00    -0.088 NA
HETATM    5  C6  UNL     1      28.874  -1.690  14.482  1.00  0.00     0.087 C 
HETATM    6  C7  UNL     1      28.049  -0.526  13.980  1.00  0.00     0.058 C 
HETATM    7  C8  UNL     1      26.928  -1.290  13.278  1.00  0.00     0.170 C 
HETATM    8  O2  UNL     1      27.347  -2.588  13.117  1.00  0.00    -0.389 OA
HETATM    9  C9  UNL     1      28.721  -2.655  13.356  1.00  0.00     0.197 C 
ENDROOT
BRANCH   1  10
HETATM   10  C3  UNL     1      30.331   0.072  15.458  1.00  0.00     0.131 C 
BRANCH  10  11
HETATM   11  N1  UNL     1      31.419   0.774  14.918  1.00  0.00    -0.389 N 
HETATM   12  C2  UNL     1      31.748   2.035  15.418  1.00  0.00     0.084 C 
HETATM   13  C1  UNL     1      33.038   2.624  14.953  1.00  0.00     0.212 C 
HETATM   14  O3  UNL     1      34.021   1.669  14.657  1.00  0.00    -0.385 OA
HETATM   15  C11 UNL     1      33.447   0.877  13.636  1.00  0.00     0.187 C 
HETATM   16  C10 UNL     1      32.432   0.004  14.294  1.00  0.00     0.148 C 
ENDBRANCH  10  11
ENDBRANCH   1  10
TORSDOF 2
ENDMDL
