MODEL 1
REMARK VINA RESULT: -5.147280492      0.000      0.000
REMARK  2 active torsions:
REMARK  status: ('A' for Active; 'I' for Inactive)
REMARK    1  A    between atoms: S1_2  and  O4_5 
REMARK    2  A    between atoms: O4_5  and  C1_6 
ROOT
HETATM    1  C1  UNL     1      39.351  -1.246  13.732  1.00  0.00     0.169 C 
HETATM    2  C2  UNL     1      39.949  -1.519  12.419  1.00  0.00     0.109 C 
HETATM    3  S2  UNL     1      41.577  -2.666  13.140  1.00  0.00    -0.155 SA
HETATM    4  C3  UNL     1      40.816  -2.722  15.036  1.00  0.00     0.093 C 
HETATM    5  C4  UNL     1      40.341  -1.300  14.833  1.00  0.00     0.098 C 
HETATM    6  S3  UNL     1      41.579  -0.019  14.550  1.00  0.00    -0.100 SA
ENDROOT
BRANCH   1   7
HETATM    7  O4  UNL     1      38.663  -0.048  13.838  1.00  0.00    -0.249 OA
BRANCH   7   8
HETATM    8  S1  UNL     1      37.406  -0.065  14.904  1.00  0.00     0.252 S 
HETATM    9  O1  UNL     1      37.701   0.963  15.989  1.00  0.00    -0.572 OA
HETATM   10  O2  UNL     1      36.079   0.223  14.296  1.00  0.00    -0.572 OA
HETATM   11  O3  UNL     1      37.272  -1.536  15.722  1.00  0.00    -0.572 OA
ENDBRANCH   7   8
ENDBRANCH   1   7
TORSDOF 2
ENDMDL
MODEL 2
REMARK VINA RESULT: -5.022752789     11.319     12.375
REMARK  2 active torsions:
REMARK  status: ('A' for Active; 'I' for Inactive)
REMARK    1  A    between atoms: S1_2  and  O4_5 
REMARK    2  A    between atoms: O4_5  and  C1_6 
ROOT
HETATM    1  C1  UNL     1      27.865  -5.205  14.083  1.00  0.00     0.169 C 
HETATM    2  C2  UNL     1      27.796  -5.358  12.624  1.00  0.00     0.109 C 
HETATM    3  S2  UNL     1      29.755  -6.125  12.379  1.00  0.00    -0.155 SA
HETATM    4  C3  UNL     1      30.027  -6.324  14.394  1.00  0.00     0.093 C 
HETATM    5  C4  UNL     1      29.252  -5.038  14.575  1.00  0.00     0.098 C 
HETATM    6  S3  UNL     1      29.931  -3.525  13.862  1.00  0.00    -0.100 SA
ENDROOT
BRANCH   1   7
HETATM    7  O4  UNL     1      27.099  -4.179  14.613  1.00  0.00    -0.249 OA
BRANCH   7   8
HETATM    8  S1  UNL     1      25.577  -4.619  15.068  1.00  0.00     0.252 S 
HETATM    9  O1  UNL     1      25.062  -3.571  16.048  1.00  0.00    -0.572 OA
HETATM   10  O2  UNL     1      24.614  -4.761  13.943  1.00  0.00    -0.572 OA
HETATM   11  O3  UNL     1      25.554  -6.070  15.932  1.00  0.00    -0.572 OA
ENDBRANCH   7   8
ENDBRANCH   1   7
TORSDOF 2
ENDMDL
MODEL 3
REMARK VINA RESULT: -4.999294243     11.335     12.455
REMARK  2 active torsions:
REMARK  status: ('A' for Active; 'I' for Inactive)
REMARK    1  A    between atoms: S1_2  and  O4_5 
REMARK    2  A    between atoms: O4_5  and  C1_6 
ROOT
HETATM    1  C1  UNL     1      27.846  -5.314  13.804  1.00  0.00     0.169 C 
HETATM    2  C2  UNL     1      28.059  -5.479  12.361  1.00  0.00     0.109 C 
HETATM    3  S2  UNL     1      30.039  -6.219  12.504  1.00  0.00    -0.155 SA
HETATM    4  C3  UNL     1      29.922  -6.398  14.536  1.00  0.00     0.093 C 
HETATM    5  C4  UNL     1      29.110  -5.121  14.551  1.00  0.00     0.098 C 
HETATM    6  S3  UNL     1      29.893  -3.605  13.965  1.00  0.00    -0.100 SA
ENDROOT
BRANCH   1   7
HETATM    7  O4  UNL     1      26.978  -4.294  14.166  1.00  0.00    -0.249 OA
BRANCH   7   8
HETATM    8  S1  UNL     1      25.621  -4.792  14.958  1.00  0.00     0.252 S 
HETATM    9  O1  UNL     1      24.527  -5.003  13.919  1.00  0.00    -0.572 OA
HETATM   10  O2  UNL     1      25.794  -6.035  15.756  1.00  0.00    -0.572 OA
HETATM   11  O3  UNL     1      25.011  -3.611  15.999  1.00  0.00    -0.572 OA
ENDBRANCH   7   8
ENDBRANCH   1   7
TORSDOF 2
ENDMDL
MODEL 4
REMARK VINA RESULT: -4.996796327     11.193     12.451
REMARK  2 active torsions:
REMARK  status: ('A' for Active; 'I' for Inactive)
REMARK    1  A    between atoms: S1_2  and  O4_5 
REMARK    2  A    between atoms: O4_5  and  C1_6 
ROOT
HETATM    1  C1  UNL     1      27.433  -2.545  14.495  1.00  0.00     0.169 C 
HETATM    2  C2  UNL     1      27.769  -1.512  15.482  1.00  0.00     0.109 C 
HETATM    3  S2  UNL     1      28.809  -0.243  14.142  1.00  0.00    -0.155 SA
HETATM    4  C3  UNL     1      28.225  -1.332  12.515  1.00  0.00     0.093 C 
HETATM    5  C4  UNL     1      28.380  -2.579  13.357  1.00  0.00     0.098 C 
HETATM    6  S3  UNL     1      30.020  -2.982  13.992  1.00  0.00    -0.100 SA
ENDROOT
BRANCH   1   7
HETATM    7  O4  UNL     1      27.321  -3.834  14.994  1.00  0.00    -0.249 OA
BRANCH   7   8
HETATM    8  S1  UNL     1      25.784  -4.425  15.043  1.00  0.00     0.252 S 
HETATM    9  O1  UNL     1      24.977  -3.548  15.992  1.00  0.00    -0.572 OA
HETATM   10  O2  UNL     1      25.104  -4.483  13.721  1.00  0.00    -0.572 OA
HETATM   11  O3  UNL     1      25.708  -5.974  15.712  1.00  0.00    -0.572 OA
ENDBRANCH   7   8
ENDBRANCH   1   7
TORSDOF 2
ENDMDL
MODEL 5
REMARK VINA RESULT: -4.981272642     11.349     12.455
REMARK  2 active torsions:
REMARK  status: ('A' for Active; 'I' for Inactive)
REMARK    1  A    between atoms: S1_2  and  O4_5 
REMARK    2  A    between atoms: O4_5  and  C1_6 
ROOT
HETATM    1  C1  UNL     1      27.844  -5.252  14.098  1.00  0.00     0.169 C 
HETATM    2  C2  UNL     1      27.748  -5.382  12.639  1.00  0.00     0.109 C 
HETATM    3  S2  UNL     1      29.672  -6.221  12.355  1.00  0.00    -0.155 SA
HETATM    4  C3  UNL     1      29.966  -6.456  14.363  1.00  0.00     0.093 C 
HETATM    5  C4  UNL     1      29.244  -5.144  14.571  1.00  0.00     0.098 C 
HETATM    6  S3  UNL     1      29.969  -3.648  13.868  1.00  0.00    -0.100 SA
ENDROOT
BRANCH   1   7
HETATM    7  O4  UNL     1      27.125  -4.204  14.653  1.00  0.00    -0.249 OA
BRANCH   7   8
HETATM    8  S1  UNL     1      25.607  -4.599  15.158  1.00  0.00     0.252 S 
HETATM    9  O1  UNL     1      25.686  -5.952  15.856  1.00  0.00    -0.572 OA
HETATM   10  O2  UNL     1      24.984  -3.605  16.073  1.00  0.00    -0.572 OA
HETATM   11  O3  UNL     1      24.538  -4.834  13.872  1.00  0.00    -0.572 OA
ENDBRANCH   7   8
ENDBRANCH   1   7
TORSDOF 2
ENDMDL
