MODEL 1
REMARK VINA RESULT: -5.956169808      0.000      0.000
REMARK  1 active torsions:
REMARK  status: ('A' for Active; 'I' for Inactive)
REMARK    1  A    between atoms: N1_1  and  C1_5 
ROOT
HETATM    1  C1  UNL     1      23.953  38.518  43.286  1.00  0.00     0.183 C 
HETATM    2  C2  UNL     1      24.803  39.734  43.144  1.00  0.00     0.033 C 
HETATM    3  C3  UNL     1      26.012  39.579  42.308  1.00  0.00     0.002 C 
HETATM    4  C4  UNL     1      26.232  38.216  41.739  1.00  0.00     0.000 C 
HETATM    5  C5  UNL     1      25.269  37.813  40.681  1.00  0.00     0.000 C 
HETATM    6  C6  UNL     1      23.967  37.270  41.202  1.00  0.00     0.002 C 
HETATM    7  C7  UNL     1      23.209  38.325  41.963  1.00  0.00     0.033 C 
ENDROOT
BRANCH   1   8
HETATM    8  N1  UNL     1      22.965  38.692  44.313  1.00  0.00    -0.075 N 
ATOM      9  H13 UNL     1      23.099  38.032  45.079  1.00  0.00     0.274 HD
ATOM     10  H12 UNL     1      23.109  39.561  44.829  1.00  0.00     0.274 HD
ATOM     11  H11 UNL     1      22.021  38.635  43.930  1.00  0.00     0.274 HD
ENDBRANCH   1   8
TORSDOF 1
ENDMDL
MODEL 2
REMARK VINA RESULT: -5.877580804      0.957      2.354
REMARK  1 active torsions:
REMARK  status: ('A' for Active; 'I' for Inactive)
REMARK    1  A    between atoms: N1_1  and  C1_5 
ROOT
HETATM    1  C1  UNL     1      23.249  38.497  42.216  1.00  0.00     0.183 C 
HETATM    2  C2  UNL     1      23.844  37.164  41.914  1.00  0.00     0.033 C 
HETATM    3  C3  UNL     1      25.220  37.184  41.374  1.00  0.00     0.002 C 
HETATM    4  C4  UNL     1      25.818  38.538  41.181  1.00  0.00     0.000 C 
HETATM    5  C5  UNL     1      26.143  39.268  42.434  1.00  0.00     0.000 C 
HETATM    6  C6  UNL     1      24.975  39.988  43.052  1.00  0.00     0.002 C 
HETATM    7  C7  UNL     1      23.915  39.015  43.493  1.00  0.00     0.033 C 
ENDROOT
BRANCH   1   8
HETATM    8  N1  UNL     1      21.841  38.388  42.479  1.00  0.00    -0.075 N 
ATOM      9  H13 UNL     1      21.585  37.442  42.763  1.00  0.00     0.274 HD
ATOM     10  H12 UNL     1      21.579  38.883  43.332  1.00  0.00     0.274 HD
ATOM     11  H11 UNL     1      21.292  38.702  41.679  1.00  0.00     0.274 HD
ENDBRANCH   1   8
TORSDOF 1
ENDMDL
MODEL 3
REMARK VINA RESULT: -5.867086905      1.277      1.538
REMARK  1 active torsions:
REMARK  status: ('A' for Active; 'I' for Inactive)
REMARK    1  A    between atoms: N1_1  and  C1_5 
ROOT
HETATM    1  C1  UNL     1      23.826  38.266  42.215  1.00  0.00     0.183 C 
HETATM    2  C2  UNL     1      24.568  39.510  41.861  1.00  0.00     0.033 C 
HETATM    3  C3  UNL     1      26.015  39.502  42.164  1.00  0.00     0.002 C 
HETATM    4  C4  UNL     1      26.533  38.259  42.807  1.00  0.00     0.000 C 
HETATM    5  C5  UNL     1      26.561  37.061  41.929  1.00  0.00     0.000 C 
HETATM    6  C6  UNL     1      25.248  36.334  41.828  1.00  0.00     0.002 C 
HETATM    7  C7  UNL     1      24.201  37.202  41.181  1.00  0.00     0.033 C 
ENDROOT
BRANCH   1   8
HETATM    8  N1  UNL     1      22.407  38.467  42.130  1.00  0.00    -0.075 N 
ATOM      9  H13 UNL     1      22.083  38.450  41.162  1.00  0.00     0.274 HD
ATOM     10  H12 UNL     1      21.892  37.660  42.481  1.00  0.00     0.274 HD
ATOM     11  H11 UNL     1      22.127  39.326  42.604  1.00  0.00     0.274 HD
ENDBRANCH   1   8
TORSDOF 1
ENDMDL
MODEL 4
REMARK VINA RESULT: -5.610561491      0.872      2.243
REMARK  1 active torsions:
REMARK  status: ('A' for Active; 'I' for Inactive)
REMARK    1  A    between atoms: N1_1  and  C1_5 
ROOT
HETATM    1  C1  UNL     1      24.063  38.925  42.787  1.00  0.00     0.183 C 
HETATM    2  C2  UNL     1      23.262  37.924  42.026  1.00  0.00     0.033 C 
HETATM    3  C3  UNL     1      23.927  37.337  40.842  1.00  0.00     0.002 C 
HETATM    4  C4  UNL     1      25.300  37.845  40.555  1.00  0.00     0.000 C 
HETATM    5  C5  UNL     1      26.342  37.428  41.529  1.00  0.00     0.000 C 
HETATM    6  C6  UNL     1      26.404  38.275  42.771  1.00  0.00     0.002 C 
HETATM    7  C7  UNL     1      25.131  38.155  43.567  1.00  0.00     0.033 C 
ENDROOT
BRANCH   1   8
HETATM    8  N1  UNL     1      23.249  39.620  43.744  1.00  0.00    -0.075 N 
ATOM      9  H13 UNL     1      23.813  40.036  44.485  1.00  0.00     0.274 HD
ATOM     10  H12 UNL     1      22.853  40.474  43.350  1.00  0.00     0.274 HD
ATOM     11  H11 UNL     1      22.524  39.010  44.123  1.00  0.00     0.274 HD
ENDBRANCH   1   8
TORSDOF 1
ENDMDL
MODEL 5
REMARK VINA RESULT: -5.534902825      1.764      2.713
REMARK  1 active torsions:
REMARK  status: ('A' for Active; 'I' for Inactive)
REMARK    1  A    between atoms: N1_1  and  C1_5 
ROOT
HETATM    1  C1  UNL     1      24.153  37.997  41.202  1.00  0.00     0.183 C 
HETATM    2  C2  UNL     1      25.602  37.797  41.491  1.00  0.00     0.033 C 
HETATM    3  C3  UNL     1      26.246  38.852  42.301  1.00  0.00     0.002 C 
HETATM    4  C4  UNL     1      25.364  39.989  42.699  1.00  0.00     0.000 C 
HETATM    5  C5  UNL     1      24.319  39.654  43.700  1.00  0.00     0.000 C 
HETATM    6  C6  UNL     1      23.078  39.035  43.118  1.00  0.00     0.002 C 
HETATM    7  C7  UNL     1      23.385  37.700  42.492  1.00  0.00     0.033 C 
ENDROOT
BRANCH   1   8
HETATM    8  N1  UNL     1      23.691  37.073  40.205  1.00  0.00    -0.075 N 
ATOM      9  H13 UNL     1      22.803  36.647  40.471  1.00  0.00     0.274 HD
ATOM     10  H12 UNL     1      23.386  37.555  39.359  1.00  0.00     0.274 HD
ATOM     11  H11 UNL     1      24.399  36.367  40.000  1.00  0.00     0.274 HD
ENDBRANCH   1   8
TORSDOF 1
ENDMDL
