MODEL 1
REMARK VINA RESULT: -7.778567126      0.000      0.000
REMARK  11 active torsions:
REMARK  status: ('A' for Active; 'I' for Inactive)
REMARK    1  A    between atoms: C2_2  and  C3_3 
REMARK    2  A    between atoms: C2_2  and  C11_36 
REMARK    3  A    between atoms: C3_3  and  N1_4 
REMARK    4  A    between atoms: N1_4  and  C4_6 
REMARK    5  A    between atoms: C5_9  and  N3_10 
REMARK    6  A    between atoms: N4_13  and  N5_14 
REMARK    7  A    between atoms: C6_17  and  N6_18 
REMARK    8  A    between atoms: N6_18  and  N7_20 
REMARK    9  A    between atoms: C8_24  and  C9_25 
REMARK   10  A    between atoms: C9_25  and  N9_26 
REMARK   11  A    between atoms: C10_30  and  N11_31 
REMARK       I    between atoms: N15_42  and  C13_44 
REMARK       I    between atoms: C13_44  and  N16_45 
REMARK       I    between atoms: C13_44  and  N17_49 
ROOT
HETATM    1  C4  UNL     1      22.153  63.492 -16.290  1.00  0.00     0.707 A 
HETATM    2  N2  UNL     1      23.191  64.178 -15.804  1.00  0.00    -0.020 N 
ATOM      3  H2  UNL     1      24.066  63.683 -15.634  1.00  0.00     0.203 HD
HETATM    4  C5  UNL     1      23.135  65.490 -15.529  1.00  0.00     0.726 A 
HETATM    5  N4  UNL     1      21.949  66.133 -15.764  1.00  0.00     0.085 N 
HETATM    6  C6  UNL     1      20.870  65.506 -16.250  1.00  0.00     0.747 A 
HETATM    7  N12 UNL     1      21.018  64.160 -16.504  1.00  0.00    -0.018 N 
ATOM      8  H12 UNL     1      20.218  63.648 -16.876  1.00  0.00     0.203 HD
ENDROOT
BRANCH   1   9
HETATM    9  N1  UNL     1      22.165  62.240 -16.566  1.00  0.00    -0.224 N 
ATOM     10  H1  UNL     1      21.675  61.949 -17.412  1.00  0.00     0.177 HD
BRANCH   9  11
HETATM   11  C3  UNL     1      22.799  61.214 -15.804  1.00  0.00     0.150 C 
BRANCH  11  12
HETATM   12  C2  UNL     1      24.077  60.704 -16.473  1.00  0.00     0.076 C 
HETATM   13  C1  UNL     1      23.909  59.283 -16.954  1.00  0.00     0.020 C 
BRANCH  12  14
HETATM   14  C11 UNL     1      25.136  60.695 -15.424  1.00  0.00     0.147 A 
HETATM   15  N13 UNL     1      26.075  61.649 -15.324  1.00  0.00    -0.280 N 
HETATM   16  N14 UNL     1      26.873  61.386 -14.313  1.00  0.00    -0.263 N 
ATOM     17  H13 UNL     1      26.156  62.458 -15.941  1.00  0.00     0.189 HD
HETATM   18  C12 UNL     1      26.402  60.241 -13.788  1.00  0.00     0.243 A 
ATOM     19  H14 UNL     1      27.674  61.932 -13.996  1.00  0.00     0.190 HD
HETATM   20  N15 UNL     1      26.949  59.671 -12.756  1.00  0.00    -0.305 N 
HETATM   21  O3  UNL     1      25.358  59.837 -14.466  1.00  0.00    -0.263 OA
HETATM   22  C13 UNL     1      28.109  60.214 -12.084  1.00  0.00     0.483 C 
ATOM     23  H15 UNL     1      26.544  58.804 -12.405  1.00  0.00     0.166 HD
HETATM   24  N16 UNL     1      29.267  60.238 -12.976  1.00  0.00    -0.033 N 
HETATM   25  N17 UNL     1      27.878  61.512 -11.499  1.00  0.00    -0.033 N 
ATOM     26 3H16 UNL     1      29.458  59.317 -13.370  1.00  0.00     0.278 HD
ATOM     27 2H16 UNL     1      29.065  60.739 -13.841  1.00  0.00     0.278 HD
ATOM     28 1H16 UNL     1      30.085  60.621 -12.502  1.00  0.00     0.278 HD
ATOM     29 3H17 UNL     1      27.526  62.165 -12.198  1.00  0.00     0.278 HD
ATOM     30 2H17 UNL     1      27.074  61.487 -10.871  1.00  0.00     0.278 HD
ATOM     31 1H17 UNL     1      28.695  61.894 -11.025  1.00  0.00     0.278 HD
ENDBRANCH  12  14
ENDBRANCH  11  12
ENDBRANCH   9  11
ENDBRANCH   1   9
BRANCH   4  32
HETATM   32  N3  UNL     1      24.145  66.155 -15.057  1.00  0.00    -0.232 N 
ATOM     33  H32 UNL     1      24.524  65.917 -14.141  1.00  0.00     0.174 HD
ATOM     34  H31 UNL     1      24.590  66.920 -15.564  1.00  0.00     0.174 HD
ENDBRANCH   4  32
BRANCH   6  35
HETATM   35  N6  UNL     1      19.752  66.042 -16.486  1.00  0.00    -0.120 N 
ATOM     36  H6  UNL     1      19.828  67.021 -16.762  1.00  0.00     0.206 HD
BRANCH  35  37
HETATM   37  N7  UNL     1      18.468  65.596 -16.451  1.00  0.00    -0.214 N 
HETATM   38  C7  UNL     1      17.679  65.378 -17.525  1.00  0.00     0.210 A 
HETATM   39  N8  UNL     1      16.483  64.961 -17.154  1.00  0.00    -0.345 N 
HETATM   40  C8  UNL     1      16.442  64.887 -15.768  1.00  0.00     0.127 A 
ATOM     41  H8  UNL     1      15.714  64.731 -17.783  1.00  0.00     0.167 HD
HETATM   42  C10 UNL     1      17.666  65.281 -15.359  1.00  0.00     0.226 A 
BRANCH  40  43
HETATM   43  C9  UNL     1      15.282  64.468 -15.031  1.00  0.00     0.141 C 
HETATM   44  N10 UNL     1      15.205  63.548 -13.972  1.00  0.00    -0.081 NA
BRANCH  43  45
HETATM   45  N9  UNL     1      14.140  65.042 -15.423  1.00  0.00    -0.386 N 
ATOM     46  H92 UNL     1      13.850  65.885 -14.927  1.00  0.00     0.157 HD
ATOM     47  H91 UNL     1      13.671  64.566 -16.193  1.00  0.00     0.157 HD
ENDBRANCH  43  45
ENDBRANCH  40  43
BRANCH  42  48
HETATM   48  N11 UNL     1      18.194  65.406 -14.066  1.00  0.00    -0.093 N 
HETATM   49  O1  UNL     1      19.015  64.502 -13.642  1.00  0.00    -0.530 OA
HETATM   50  O2  UNL     1      17.981  66.361 -13.137  1.00  0.00    -0.530 OA
ENDBRANCH  42  48
ENDBRANCH  35  37
ENDBRANCH   6  35
BRANCH   5  51
HETATM   51  N5  UNL     1      21.924  67.500 -15.470  1.00  0.00    -0.309 N 
ATOM     52  H52 UNL     1      21.574  67.843 -14.576  1.00  0.00     0.178 HD
ATOM     53  H51 UNL     1      22.271  68.121 -16.201  1.00  0.00     0.178 HD
ENDBRANCH   5  51
TORSDOF 11
ENDMDL
MODEL 2
REMARK VINA RESULT: -7.520711864      0.743      1.044
REMARK  11 active torsions:
REMARK  status: ('A' for Active; 'I' for Inactive)
REMARK    1  A    between atoms: C2_2  and  C3_3 
REMARK    2  A    between atoms: C2_2  and  C11_36 
REMARK    3  A    between atoms: C3_3  and  N1_4 
REMARK    4  A    between atoms: N1_4  and  C4_6 
REMARK    5  A    between atoms: C5_9  and  N3_10 
REMARK    6  A    between atoms: N4_13  and  N5_14 
REMARK    7  A    between atoms: C6_17  and  N6_18 
REMARK    8  A    between atoms: N6_18  and  N7_20 
REMARK    9  A    between atoms: C8_24  and  C9_25 
REMARK   10  A    between atoms: C9_25  and  N9_26 
REMARK   11  A    between atoms: C10_30  and  N11_31 
REMARK       I    between atoms: N15_42  and  C13_44 
REMARK       I    between atoms: C13_44  and  N16_45 
REMARK       I    between atoms: C13_44  and  N17_49 
ROOT
HETATM    1  C4  UNL     1      22.178  63.516 -16.325  1.00  0.00     0.707 A 
HETATM    2  N2  UNL     1      23.204  64.195 -15.805  1.00  0.00    -0.020 N 
ATOM      3  H2  UNL     1      24.080  63.701 -15.639  1.00  0.00     0.203 HD
HETATM    4  C5  UNL     1      23.134  65.497 -15.489  1.00  0.00     0.726 A 
HETATM    5  N4  UNL     1      21.946  66.138 -15.721  1.00  0.00     0.085 N 
HETATM    6  C6  UNL     1      20.878  65.518 -16.240  1.00  0.00     0.747 A 
HETATM    7  N12 UNL     1      21.040  64.182 -16.534  1.00  0.00    -0.018 N 
ATOM      8  H12 UNL     1      20.249  63.676 -16.933  1.00  0.00     0.203 HD
ENDROOT
BRANCH   1   9
HETATM    9  N1  UNL     1      22.204  62.274 -16.640  1.00  0.00    -0.224 N 
ATOM     10  H1  UNL     1      21.709  62.003 -17.490  1.00  0.00     0.177 HD
BRANCH   9  11
HETATM   11  C3  UNL     1      22.858  61.234 -15.916  1.00  0.00     0.150 C 
BRANCH  11  12
HETATM   12  C2  UNL     1      24.131  60.754 -16.618  1.00  0.00     0.076 C 
HETATM   13  C1  UNL     1      24.023  59.300 -17.006  1.00  0.00     0.020 C 
BRANCH  12  14
HETATM   14  C11 UNL     1      25.236  60.867 -15.624  1.00  0.00     0.147 A 
HETATM   15  N13 UNL     1      25.541  59.891 -14.756  1.00  0.00    -0.280 N 
HETATM   16  N14 UNL     1      26.553  60.263 -14.003  1.00  0.00    -0.263 N 
ATOM     17  H13 UNL     1      25.061  58.994 -14.690  1.00  0.00     0.189 HD
HETATM   18  C12 UNL     1      26.866  61.499 -14.429  1.00  0.00     0.243 A 
ATOM     19  H14 UNL     1      27.001  59.729 -13.258  1.00  0.00     0.190 HD
HETATM   20  N15 UNL     1      27.835  62.191 -13.907  1.00  0.00    -0.305 N 
HETATM   21  O3  UNL     1      26.066  61.850 -15.403  1.00  0.00    -0.263 OA
HETATM   22  C13 UNL     1      28.658  61.696 -12.825  1.00  0.00     0.483 C 
ATOM     23  H15 UNL     1      28.023  63.123 -14.275  1.00  0.00     0.166 HD
HETATM   24  N16 UNL     1      27.860  61.471 -11.621  1.00  0.00    -0.033 N 
HETATM   25  N17 UNL     1      29.415  60.519 -13.173  1.00  0.00    -0.033 N 
ATOM     26 3H16 UNL     1      27.345  62.308 -11.349  1.00  0.00     0.278 HD
ATOM     27 2H16 UNL     1      27.069  60.854 -11.804  1.00  0.00     0.278 HD
ATOM     28 1H16 UNL     1      28.440  61.122 -10.859  1.00  0.00     0.278 HD
ATOM     29 3H17 UNL     1      28.800  59.785 -13.525  1.00  0.00     0.278 HD
ATOM     30 2H17 UNL     1      29.976  60.684 -14.009  1.00  0.00     0.278 HD
ATOM     31 1H17 UNL     1      29.994  60.170 -12.411  1.00  0.00     0.278 HD
ENDBRANCH  12  14
ENDBRANCH  11  12
ENDBRANCH   9  11
ENDBRANCH   1   9
BRANCH   4  32
HETATM   32  N3  UNL     1      24.132  66.154 -14.984  1.00  0.00    -0.232 N 
ATOM     33  H32 UNL     1      24.293  66.135 -13.977  1.00  0.00     0.174 HD
ATOM     34  H31 UNL     1      24.780  66.701 -15.551  1.00  0.00     0.174 HD
ENDBRANCH   4  32
BRANCH   6  35
HETATM   35  N6  UNL     1      19.759  66.053 -16.474  1.00  0.00    -0.120 N 
ATOM     36  H6  UNL     1      19.833  67.035 -16.742  1.00  0.00     0.206 HD
BRANCH  35  37
HETATM   37  N7  UNL     1      18.476  65.603 -16.446  1.00  0.00    -0.214 N 
HETATM   38  C7  UNL     1      17.693  65.384 -17.524  1.00  0.00     0.210 A 
HETATM   39  N8  UNL     1      16.497  64.963 -17.159  1.00  0.00    -0.345 N 
HETATM   40  C8  UNL     1      16.449  64.888 -15.773  1.00  0.00     0.127 A 
ATOM     41  H8  UNL     1      15.732  64.731 -17.792  1.00  0.00     0.167 HD
HETATM   42  C10 UNL     1      17.670  65.284 -15.359  1.00  0.00     0.226 A 
BRANCH  40  43
HETATM   43  C9  UNL     1      15.287  64.464 -15.043  1.00  0.00     0.141 C 
HETATM   44  N10 UNL     1      15.205  63.534 -13.992  1.00  0.00    -0.081 NA
BRANCH  43  45
HETATM   45  N9  UNL     1      14.147  65.044 -15.432  1.00  0.00    -0.386 N 
ATOM     46  H92 UNL     1      14.214  65.762 -16.153  1.00  0.00     0.157 HD
ATOM     47  H91 UNL     1      13.314  64.698 -14.956  1.00  0.00     0.157 HD
ENDBRANCH  43  45
ENDBRANCH  40  43
BRANCH  42  48
HETATM   48  N11 UNL     1      18.191  65.410 -14.062  1.00  0.00    -0.093 N 
HETATM   49  O1  UNL     1      18.996  64.497 -13.627  1.00  0.00    -0.530 OA
HETATM   50  O2  UNL     1      17.986  66.374 -13.140  1.00  0.00    -0.530 OA
ENDBRANCH  42  48
ENDBRANCH  35  37
ENDBRANCH   6  35
BRANCH   5  51
HETATM   51  N5  UNL     1      21.906  67.495 -15.384  1.00  0.00    -0.309 N 
ATOM     52  H52 UNL     1      21.662  68.205 -16.075  1.00  0.00     0.178 HD
ATOM     53  H51 UNL     1      22.136  67.723 -14.417  1.00  0.00     0.178 HD
ENDBRANCH   5  51
TORSDOF 11
ENDMDL
MODEL 3
REMARK VINA RESULT: -7.266067811      1.089      1.141
REMARK  11 active torsions:
REMARK  status: ('A' for Active; 'I' for Inactive)
REMARK    1  A    between atoms: C2_2  and  C3_3 
REMARK    2  A    between atoms: C2_2  and  C11_36 
REMARK    3  A    between atoms: C3_3  and  N1_4 
REMARK    4  A    between atoms: N1_4  and  C4_6 
REMARK    5  A    between atoms: C5_9  and  N3_10 
REMARK    6  A    between atoms: N4_13  and  N5_14 
REMARK    7  A    between atoms: C6_17  and  N6_18 
REMARK    8  A    between atoms: N6_18  and  N7_20 
REMARK    9  A    between atoms: C8_24  and  C9_25 
REMARK   10  A    between atoms: C9_25  and  N9_26 
REMARK   11  A    between atoms: C10_30  and  N11_31 
REMARK       I    between atoms: N15_42  and  C13_44 
REMARK       I    between atoms: C13_44  and  N16_45 
REMARK       I    between atoms: C13_44  and  N17_49 
ROOT
HETATM    1  C4  UNL     1      22.473  63.885 -16.329  1.00  0.00     0.707 A 
HETATM    2  N2  UNL     1      23.279  64.350 -17.288  1.00  0.00    -0.020 N 
ATOM      3  H2  UNL     1      24.167  63.875 -17.449  1.00  0.00     0.203 HD
HETATM    4  C5  UNL     1      22.974  65.413 -18.047  1.00  0.00     0.726 A 
HETATM    5  N4  UNL     1      21.777  66.033 -17.809  1.00  0.00     0.085 N 
HETATM    6  C6  UNL     1      20.922  65.620 -16.865  1.00  0.00     0.747 A 
HETATM    7  N12 UNL     1      21.316  64.521 -16.134  1.00  0.00    -0.018 N 
ATOM      8  H12 UNL     1      20.690  64.175 -15.407  1.00  0.00     0.203 HD
ENDROOT
BRANCH   1   9
HETATM    9  N1  UNL     1      22.726  62.873 -15.583  1.00  0.00    -0.224 N 
ATOM     10  H1  UNL     1      23.002  63.068 -14.621  1.00  0.00     0.177 HD
BRANCH   9  11
HETATM   11  C3  UNL     1      22.660  61.502 -15.970  1.00  0.00     0.150 C 
BRANCH  11  12
HETATM   12  C2  UNL     1      23.942  61.036 -16.664  1.00  0.00     0.076 C 
HETATM   13  C1  UNL     1      23.767  59.662 -17.263  1.00  0.00     0.020 C 
BRANCH  12  14
HETATM   14  C11 UNL     1      24.987  60.929 -15.607  1.00  0.00     0.147 A 
HETATM   15  N13 UNL     1      25.995  61.807 -15.483  1.00  0.00    -0.280 N 
HETATM   16  N14 UNL     1      26.761  61.467 -14.470  1.00  0.00    -0.263 N 
ATOM     17  H13 UNL     1      26.145  62.616 -16.085  1.00  0.00     0.189 HD
HETATM   18  C12 UNL     1      26.200  60.353 -13.968  1.00  0.00     0.243 A 
ATOM     19  H14 UNL     1      27.599  61.945 -14.138  1.00  0.00     0.190 HD
HETATM   20  N15 UNL     1      26.692  59.726 -12.942  1.00  0.00    -0.305 N 
HETATM   21  O3  UNL     1      25.134  60.041 -14.661  1.00  0.00    -0.263 OA
HETATM   22  C13 UNL     1      27.884  60.168 -12.251  1.00  0.00     0.483 C 
ATOM     23  H15 UNL     1      26.218  58.887 -12.609  1.00  0.00     0.166 HD
HETATM   24  N16 UNL     1      29.049  60.117 -13.133  1.00  0.00    -0.033 N 
HETATM   25  N17 UNL     1      27.747  61.469 -11.647  1.00  0.00    -0.033 N 
ATOM     26 3H16 UNL     1      29.172  59.191 -13.541  1.00  0.00     0.278 HD
ATOM     27 2H16 UNL     1      28.894  60.646 -13.991  1.00  0.00     0.278 HD
ATOM     28 1H16 UNL     1      29.889  60.428 -12.647  1.00  0.00     0.278 HD
ATOM     29 3H17 UNL     1      27.453  62.159 -12.337  1.00  0.00     0.278 HD
ATOM     30 2H17 UNL     1      26.938  61.497 -11.025  1.00  0.00     0.278 HD
ATOM     31 1H17 UNL     1      28.587  61.781 -11.160  1.00  0.00     0.278 HD
ENDBRANCH  12  14
ENDBRANCH  11  12
ENDBRANCH   9  11
ENDBRANCH   1   9
BRANCH   4  32
HETATM   32  N3  UNL     1      23.759  65.863 -18.978  1.00  0.00    -0.232 N 
ATOM     33  H32 UNL     1      24.320  66.697 -18.807  1.00  0.00     0.174 HD
ATOM     34  H31 UNL     1      23.848  65.417 -19.891  1.00  0.00     0.174 HD
ENDBRANCH   4  32
BRANCH   6  35
HETATM   35  N6  UNL     1      19.808  66.150 -16.599  1.00  0.00    -0.120 N 
ATOM     36  H6  UNL     1      19.877  67.147 -16.395  1.00  0.00     0.206 HD
BRANCH  35  37
HETATM   37  N7  UNL     1      18.534  65.678 -16.525  1.00  0.00    -0.214 N 
HETATM   38  C7  UNL     1      17.713  65.457 -17.574  1.00  0.00     0.210 A 
HETATM   39  N8  UNL     1      16.539  65.012 -17.167  1.00  0.00    -0.345 N 
HETATM   40  C8  UNL     1      16.547  64.921 -15.781  1.00  0.00     0.127 A 
ATOM     41  H8  UNL     1      15.753  64.774 -17.772  1.00  0.00     0.167 HD
HETATM   42  C10 UNL     1      17.777  65.334 -15.411  1.00  0.00     0.226 A 
BRANCH  40  43
HETATM   43  C9  UNL     1      15.423  64.469 -15.010  1.00  0.00     0.141 C 
HETATM   44  N10 UNL     1      15.400  63.535 -13.961  1.00  0.00    -0.081 NA
BRANCH  43  45
HETATM   45  N9  UNL     1      14.257  65.026 -15.355  1.00  0.00    -0.386 N 
ATOM     46  H92 UNL     1      14.215  65.492 -16.261  1.00  0.00     0.157 HD
ATOM     47  H91 UNL     1      13.518  64.921 -14.660  1.00  0.00     0.157 HD
ENDBRANCH  43  45
ENDBRANCH  40  43
BRANCH  42  48
HETATM   48  N11 UNL     1      18.347  65.454 -14.135  1.00  0.00    -0.093 N 
HETATM   49  O1  UNL     1      19.299  64.646 -13.803  1.00  0.00    -0.530 OA
HETATM   50  O2  UNL     1      18.057  66.318 -13.139  1.00  0.00    -0.530 OA
ENDBRANCH  42  48
ENDBRANCH  35  37
ENDBRANCH   6  35
BRANCH   5  51
HETATM   51  N5  UNL     1      21.487  67.136 -18.619  1.00  0.00    -0.309 N 
ATOM     52  H52 UNL     1      22.016  68.005 -18.541  1.00  0.00     0.178 HD
ATOM     53  H51 UNL     1      20.720  67.016 -19.281  1.00  0.00     0.178 HD
ENDBRANCH   5  51
TORSDOF 11
ENDMDL
MODEL 4
REMARK VINA RESULT: -7.246823980      1.045      1.242
REMARK  11 active torsions:
REMARK  status: ('A' for Active; 'I' for Inactive)
REMARK    1  A    between atoms: C2_2  and  C3_3 
REMARK    2  A    between atoms: C2_2  and  C11_36 
REMARK    3  A    between atoms: C3_3  and  N1_4 
REMARK    4  A    between atoms: N1_4  and  C4_6 
REMARK    5  A    between atoms: C5_9  and  N3_10 
REMARK    6  A    between atoms: N4_13  and  N5_14 
REMARK    7  A    between atoms: C6_17  and  N6_18 
REMARK    8  A    between atoms: N6_18  and  N7_20 
REMARK    9  A    between atoms: C8_24  and  C9_25 
REMARK   10  A    between atoms: C9_25  and  N9_26 
REMARK   11  A    between atoms: C10_30  and  N11_31 
REMARK       I    between atoms: N15_42  and  C13_44 
REMARK       I    between atoms: C13_44  and  N16_45 
REMARK       I    between atoms: C13_44  and  N17_49 
ROOT
HETATM    1  C4  UNL     1      23.035  64.758 -16.112  1.00  0.00     0.707 A 
HETATM    2  N2  UNL     1      23.902  65.773 -16.068  1.00  0.00    -0.020 N 
ATOM      3  H2  UNL     1      24.885  65.567 -15.891  1.00  0.00     0.203 HD
HETATM    4  C5  UNL     1      23.539  67.052 -16.246  1.00  0.00     0.726 A 
HETATM    5  N4  UNL     1      22.213  67.303 -16.481  1.00  0.00     0.085 N 
HETATM    6  C6  UNL     1      21.292  66.333 -16.538  1.00  0.00     0.747 A 
HETATM    7  N12 UNL     1      21.754  65.050 -16.345  1.00  0.00    -0.018 N 
ATOM      8  H12 UNL     1      21.081  64.284 -16.382  1.00  0.00     0.203 HD
ENDROOT
BRANCH   1   9
HETATM    9  N1  UNL     1      23.341  63.523 -15.948  1.00  0.00    -0.224 N 
ATOM     10  H1  UNL     1      22.906  63.041 -15.161  1.00  0.00     0.177 HD
BRANCH   9  11
HETATM   11  C3  UNL     1      24.230  62.760 -16.760  1.00  0.00     0.150 C 
BRANCH  11  12
HETATM   12  C2  UNL     1      24.220  61.275 -16.389  1.00  0.00     0.076 C 
HETATM   13  C1  UNL     1      22.893  60.873 -15.791  1.00  0.00     0.020 C 
BRANCH  12  14
HETATM   14  C11 UNL     1      25.256  61.090 -15.334  1.00  0.00     0.147 A 
HETATM   15  N13 UNL     1      26.282  61.938 -15.159  1.00  0.00    -0.280 N 
HETATM   16  N14 UNL     1      27.035  61.529 -14.162  1.00  0.00    -0.263 N 
ATOM     17  H13 UNL     1      26.451  62.775 -15.715  1.00  0.00     0.189 HD
HETATM   18  C12 UNL     1      26.447  60.401 -13.723  1.00  0.00     0.243 A 
ATOM     19  H14 UNL     1      27.880  61.970 -13.800  1.00  0.00     0.190 HD
HETATM   20  N15 UNL     1      26.921  59.710 -12.729  1.00  0.00    -0.305 N 
HETATM   21  O3  UNL     1      25.380  60.149 -14.437  1.00  0.00    -0.263 OA
HETATM   22  C13 UNL     1      28.117  60.089 -12.011  1.00  0.00     0.483 C 
ATOM     23  H15 UNL     1      26.427  58.864 -12.444  1.00  0.00     0.166 HD
HETATM   24  N16 UNL     1      29.286  60.062 -12.889  1.00  0.00    -0.033 N 
HETATM   25  N17 UNL     1      28.004  61.359 -11.337  1.00  0.00    -0.033 N 
ATOM     26 3H16 UNL     1      29.392  59.156 -13.345  1.00  0.00     0.278 HD
ATOM     27 2H16 UNL     1      29.147  60.639 -13.718  1.00  0.00     0.278 HD
ATOM     28 1H16 UNL     1      30.129  60.329 -12.382  1.00  0.00     0.278 HD
ATOM     29 3H17 UNL     1      27.727  62.091 -11.991  1.00  0.00     0.278 HD
ATOM     30 2H17 UNL     1      27.192  61.370 -10.719  1.00  0.00     0.278 HD
ATOM     31 1H17 UNL     1      28.847  61.626 -10.831  1.00  0.00     0.278 HD
ENDBRANCH  12  14
ENDBRANCH  11  12
ENDBRANCH   9  11
ENDBRANCH   1   9
BRANCH   4  32
HETATM   32  N3  UNL     1      24.383  68.037 -16.203  1.00  0.00    -0.232 N 
ATOM     33  H32 UNL     1      24.690  68.479 -17.070  1.00  0.00     0.174 HD
ATOM     34  H31 UNL     1      24.765  68.402 -15.330  1.00  0.00     0.174 HD
ENDBRANCH   4  32
BRANCH   6  35
HETATM   35  N6  UNL     1      20.059  66.502 -16.749  1.00  0.00    -0.120 N 
ATOM     36  H6  UNL     1      19.816  67.473 -16.949  1.00  0.00     0.206 HD
BRANCH  35  37
HETATM   37  N7  UNL     1      18.984  65.669 -16.767  1.00  0.00    -0.214 N 
HETATM   38  C7  UNL     1      18.320  65.262 -17.870  1.00  0.00     0.210 A 
HETATM   39  N8  UNL     1      17.315  64.469 -17.548  1.00  0.00    -0.345 N 
HETATM   40  C8  UNL     1      17.282  64.320 -16.168  1.00  0.00     0.127 A 
ATOM     41  H8  UNL     1      16.668  64.036 -18.207  1.00  0.00     0.167 HD
HETATM   42  C10 UNL     1      18.311  65.064 -15.711  1.00  0.00     0.226 A 
BRANCH  40  43
HETATM   43  C9  UNL     1      16.308  63.519 -15.480  1.00  0.00     0.141 C 
HETATM   44  N10 UNL     1      16.171  62.121 -15.478  1.00  0.00    -0.081 NA
BRANCH  43  45
HETATM   45  N9  UNL     1      15.429  64.218 -14.755  1.00  0.00    -0.386 N 
ATOM     46  H92 UNL     1      15.206  65.160 -15.077  1.00  0.00     0.157 HD
ATOM     47  H91 UNL     1      15.068  63.724 -13.939  1.00  0.00     0.157 HD
ENDBRANCH  43  45
ENDBRANCH  40  43
BRANCH  42  48
HETATM   48  N11 UNL     1      18.755  65.289 -14.400  1.00  0.00    -0.093 N 
HETATM   49  O1  UNL     1      19.716  64.560 -13.937  1.00  0.00    -0.530 OA
HETATM   50  O2  UNL     1      18.328  66.188 -13.488  1.00  0.00    -0.530 OA
ENDBRANCH  42  48
ENDBRANCH  35  37
ENDBRANCH   6  35
BRANCH   5  51
HETATM   51  N5  UNL     1      21.867  68.646 -16.665  1.00  0.00    -0.309 N 
ATOM     52  H52 UNL     1      20.949  68.912 -17.021  1.00  0.00     0.178 HD
ATOM     53  H51 UNL     1      22.585  69.329 -16.425  1.00  0.00     0.178 HD
ENDBRANCH   5  51
TORSDOF 11
ENDMDL
MODEL 5
REMARK VINA RESULT: -7.194568892      0.887      1.051
REMARK  11 active torsions:
REMARK  status: ('A' for Active; 'I' for Inactive)
REMARK    1  A    between atoms: C2_2  and  C3_3 
REMARK    2  A    between atoms: C2_2  and  C11_36 
REMARK    3  A    between atoms: C3_3  and  N1_4 
REMARK    4  A    between atoms: N1_4  and  C4_6 
REMARK    5  A    between atoms: C5_9  and  N3_10 
REMARK    6  A    between atoms: N4_13  and  N5_14 
REMARK    7  A    between atoms: C6_17  and  N6_18 
REMARK    8  A    between atoms: N6_18  and  N7_20 
REMARK    9  A    between atoms: C8_24  and  C9_25 
REMARK   10  A    between atoms: C9_25  and  N9_26 
REMARK   11  A    between atoms: C10_30  and  N11_31 
REMARK       I    between atoms: N15_42  and  C13_44 
REMARK       I    between atoms: C13_44  and  N16_45 
REMARK       I    between atoms: C13_44  and  N17_49 
ROOT
HETATM    1  C4  UNL     1      22.795  63.646 -15.987  1.00  0.00     0.707 A 
HETATM    2  N2  UNL     1      23.868  64.399 -15.734  1.00  0.00    -0.020 N 
ATOM      3  H2  UNL     1      24.789  63.962 -15.769  1.00  0.00     0.203 HD
HETATM    4  C5  UNL     1      23.791  65.705 -15.435  1.00  0.00     0.726 A 
HETATM    5  N4  UNL     1      22.543  66.268 -15.393  1.00  0.00     0.085 N 
HETATM    6  C6  UNL     1      21.426  65.571 -15.636  1.00  0.00     0.747 A 
HETATM    7  N12 UNL     1      21.600  64.237 -15.936  1.00  0.00    -0.018 N 
ATOM      8  H12 UNL     1      20.772  63.673 -16.128  1.00  0.00     0.203 HD
ENDROOT
BRANCH   1   9
HETATM    9  N1  UNL     1      22.826  62.397 -16.276  1.00  0.00    -0.224 N 
ATOM     10  H1  UNL     1      22.307  62.102 -17.104  1.00  0.00     0.177 HD
BRANCH   9  11
HETATM   11  C3  UNL     1      23.517  61.381 -15.553  1.00  0.00     0.150 C 
BRANCH  11  12
HETATM   12  C2  UNL     1      24.825  60.974 -16.235  1.00  0.00     0.076 C 
HETATM   13  C1  UNL     1      24.740  59.568 -16.779  1.00  0.00     0.020 C 
BRANCH  12  14
HETATM   14  C11 UNL     1      25.877  60.979 -15.179  1.00  0.00     0.147 A 
HETATM   15  N13 UNL     1      27.078  61.556 -15.346  1.00  0.00    -0.280 N 
HETATM   16  N14 UNL     1      27.800  61.406 -14.258  1.00  0.00    -0.263 N 
ATOM     17  H13 UNL     1      27.383  62.038 -16.191  1.00  0.00     0.189 HD
HETATM   18  C12 UNL     1      27.013  60.719 -13.411  1.00  0.00     0.243 A 
ATOM     19  H14 UNL     1      28.750  61.739 -14.093  1.00  0.00     0.190 HD
HETATM   20  N15 UNL     1      27.401  60.385 -12.216  1.00  0.00    -0.305 N 
HETATM   21  O3  UNL     1      25.861  60.469 -13.978  1.00  0.00    -0.263 OA
HETATM   22  C13 UNL     1      28.708  60.719 -11.693  1.00  0.00     0.483 C 
ATOM     23  H15 UNL     1      26.756  59.865 -11.621  1.00  0.00     0.166 HD
HETATM   24  N16 UNL     1      29.763  60.070 -12.469  1.00  0.00    -0.033 N 
HETATM   25  N17 UNL     1      28.938  62.139 -11.591  1.00  0.00    -0.033 N 
ATOM     26 3H16 UNL     1      29.625  59.061 -12.520  1.00  0.00     0.278 HD
ATOM     27 2H16 UNL     1      29.688  60.288 -13.462  1.00  0.00     0.278 HD
ATOM     28 1H16 UNL     1      30.684  60.305 -12.101  1.00  0.00     0.278 HD
ATOM     29 3H17 UNL     1      28.779  62.596 -12.488  1.00  0.00     0.278 HD
ATOM     30 2H17 UNL     1      28.203  62.586 -11.042  1.00  0.00     0.278 HD
ATOM     31 1H17 UNL     1      29.859  62.375 -11.223  1.00  0.00     0.278 HD
ENDBRANCH  12  14
ENDBRANCH  11  12
ENDBRANCH   9  11
ENDBRANCH   1   9
BRANCH   4  32
HETATM   32  N3  UNL     1      24.835  66.435 -15.190  1.00  0.00    -0.232 N 
ATOM     33  H32 UNL     1      24.969  67.312 -15.693  1.00  0.00     0.174 HD
ATOM     34  H31 UNL     1      25.545  66.174 -14.506  1.00  0.00     0.174 HD
ENDBRANCH   4  32
BRANCH   6  35
HETATM   35  N6  UNL     1      20.251  66.032 -15.611  1.00  0.00    -0.120 N 
ATOM     36  H6  UNL     1      20.183  66.928 -15.128  1.00  0.00     0.206 HD
BRANCH  35  37
HETATM   37  N7  UNL     1      19.056  65.592 -16.089  1.00  0.00    -0.214 N 
HETATM   38  C7  UNL     1      18.727  65.463 -17.393  1.00  0.00     0.210 A 
HETATM   39  N8  UNL     1      17.489  65.025 -17.524  1.00  0.00    -0.345 N 
HETATM   40  C8  UNL     1      16.939  64.844 -16.262  1.00  0.00     0.127 A 
ATOM     41  H8  UNL     1      17.014  64.849 -18.410  1.00  0.00     0.167 HD
HETATM   42  C10 UNL     1      17.915  65.197 -15.401  1.00  0.00     0.226 A 
BRANCH  40  43
HETATM   43  C9  UNL     1      15.599  64.374 -16.042  1.00  0.00     0.141 C 
HETATM   44  N10 UNL     1      14.387  65.030 -16.313  1.00  0.00    -0.081 NA
BRANCH  43  45
HETATM   45  N9  UNL     1      15.523  63.149 -15.510  1.00  0.00    -0.386 N 
ATOM     46  H92 UNL     1      16.323  62.532 -15.649  1.00  0.00     0.157 HD
ATOM     47  H91 UNL     1      14.654  62.959 -15.012  1.00  0.00     0.157 HD
ENDBRANCH  43  45
ENDBRANCH  40  43
BRANCH  42  48
HETATM   48  N11 UNL     1      17.922  65.217 -13.998  1.00  0.00    -0.093 N 
HETATM   49  O1  UNL     1      17.747  64.107 -13.362  1.00  0.00    -0.530 OA
HETATM   50  O2  UNL     1      18.092  66.255 -13.152  1.00  0.00    -0.530 OA
ENDBRANCH  42  48
ENDBRANCH  35  37
ENDBRANCH   6  35
BRANCH   5  51
HETATM   51  N5  UNL     1      22.496  67.631 -15.082  1.00  0.00    -0.309 N 
ATOM     52  H52 UNL     1      22.500  68.342 -15.814  1.00  0.00     0.178 HD
ATOM     53  H51 UNL     1      22.460  67.861 -14.089  1.00  0.00     0.178 HD
ENDBRANCH   5  51
TORSDOF 11
ENDMDL
