MODEL 1
REMARK VINA RESULT: -8.038005427      0.000      0.000
REMARK  19 active torsions:
REMARK  status: ('A' for Active; 'I' for Inactive)
REMARK    1  A    between atoms: C2_2  and  C3_3 
REMARK    2  A    between atoms: C3_3  and  C4_4 
REMARK    3  A    between atoms: C4_4  and  C5_5 
REMARK    4  A    between atoms: C5_5  and  C6_6 
REMARK    5  A    between atoms: C6_6  and  C7_7 
REMARK    6  A    between atoms: C7_7  and  C8_8 
REMARK    7  A    between atoms: C8_8  and  O1_9 
REMARK    8  A    between atoms: O1_9  and  C9_10 
REMARK    9  A    between atoms: C9_10  and  C10_11 
REMARK   10  A    between atoms: C10_11  and  N1_12 
REMARK   11  A    between atoms: N1_12  and  C11_13 
REMARK   12  A    between atoms: C11_13  and  C12_14 
REMARK   13  A    between atoms: C12_14  and  N2_15 
REMARK   14  A    between atoms: N2_15  and  C13_18 
REMARK   15  A    between atoms: C13_18  and  C14_19 
REMARK   16  A    between atoms: C14_19  and  O2_20 
REMARK   17  A    between atoms: O2_20  and  C15_21 
REMARK   18  A    between atoms: C15_21  and  C16_22 
REMARK   19  A    between atoms: C16_22  and  C17_24 
ROOT
HETATM    1  C12 UNL     1      22.107   4.473  52.567  1.00  0.00     0.260 C 
ENDROOT
BRANCH   1   2
HETATM    2  C11 UNL     1      22.632   4.679  51.184  1.00  0.00     0.265 C 
BRANCH   2   3
HETATM    3  N1  UNL     1      22.386   3.507  50.361  1.00  0.00    -0.060 N 
HETATM    4  C23 UNL     1      23.231   2.355  50.465  1.00  0.00     0.265 A 
HETATM    5  C24 UNL     1      21.819   2.355  50.984  1.00  0.00     0.265 A 
BRANCH   3   6
HETATM    6  C10 UNL     1      21.910   3.880  49.005  1.00  0.00     0.263 C 
BRANCH   6   7
HETATM    7  C9  UNL     1      22.657   3.098  47.974  1.00  0.00     0.195 C 
BRANCH   7   8
HETATM    8  O1  UNL     1      23.347   3.671  47.025  1.00  0.00    -0.389 OA
BRANCH   8   9
HETATM    9  C8  UNL     1      23.113   3.912  45.758  1.00  0.00     0.167 C 
BRANCH   9  10
HETATM   10  C7  UNL     1      21.880   4.658  45.412  1.00  0.00     0.027 C 
BRANCH  10  11
HETATM   11  C6  UNL     1      21.054   3.931  44.327  1.00  0.00     0.006 C 
BRANCH  11  12
HETATM   12  C5  UNL     1      21.426   4.329  42.962  1.00  0.00     0.027 C 
BRANCH  12  13
HETATM   13  C4  UNL     1      21.802   3.216  42.066  1.00  0.00    -0.027 C 
BRANCH  13  14
HETATM   14  C3  UNL     1      20.973   2.042  41.839  1.00  0.00    -0.005 C 
BRANCH  14  15
HETATM   15  C2  UNL     1      21.471   0.819  41.239  1.00  0.00    -0.011 C 
HETATM   16  C1  UNL     1      20.694   0.030  40.451  1.00  0.00     0.011 C 
ENDBRANCH  14  15
ENDBRANCH  13  14
ENDBRANCH  12  13
ENDBRANCH  11  12
ENDBRANCH  10  11
ENDBRANCH   9  10
ENDBRANCH   8   9
ENDBRANCH   7   8
ENDBRANCH   6   7
ENDBRANCH   3   6
ENDBRANCH   2   3
ENDBRANCH   1   2
BRANCH   1  17
HETATM   17  N2  UNL     1      21.139   5.523  52.930  1.00  0.00    -0.072 N 
ATOM     18  H22 UNL     1      21.352   5.914  53.848  1.00  0.00     0.277 HD
ATOM     19  H21 UNL     1      21.275   6.356  52.358  1.00  0.00     0.277 HD
BRANCH  17  20
HETATM   20  C13 UNL     1      19.790   5.081  52.868  1.00  0.00     0.258 C 
BRANCH  20  21
HETATM   21  C14 UNL     1      19.090   4.790  54.129  1.00  0.00     0.202 C 
BRANCH  21  22
HETATM   22  O2  UNL     1      19.035   5.542  55.189  1.00  0.00    -0.357 OA
BRANCH  22  23
HETATM   23  C15 UNL     1      19.789   5.793  56.204  1.00  0.00     0.190 C 
BRANCH  23  24
HETATM   24  C16 UNL     1      19.410   6.581  57.367  1.00  0.00     0.203 C 
HETATM   25  O3  UNL     1      19.695   6.072  58.524  1.00  0.00    -0.286 OA
BRANCH  24  26
HETATM   26  C17 UNL     1      18.757   7.876  57.337  1.00  0.00     0.016 A 
HETATM   27  C18 UNL     1      17.420   8.101  57.463  1.00  0.00     0.015 A 
HETATM   28  C19 UNL     1      16.852   9.378  57.418  1.00  0.00     0.001 A 
HETATM   29  C20 UNL     1      17.654  10.475  57.238  1.00  0.00     0.000 A 
HETATM   30  C21 UNL     1      18.999  10.262  57.110  1.00  0.00     0.001 A 
HETATM   31  C22 UNL     1      19.557   9.021  57.154  1.00  0.00     0.015 A 
ENDBRANCH  24  26
ENDBRANCH  23  24
ENDBRANCH  22  23
ENDBRANCH  21  22
ENDBRANCH  20  21
ENDBRANCH  17  20
ENDBRANCH   1  17
TORSDOF 19
ENDMDL
MODEL 2
REMARK VINA RESULT: -8.008109164      1.478     12.185
REMARK  19 active torsions:
REMARK  status: ('A' for Active; 'I' for Inactive)
REMARK    1  A    between atoms: C2_2  and  C3_3 
REMARK    2  A    between atoms: C3_3  and  C4_4 
REMARK    3  A    between atoms: C4_4  and  C5_5 
REMARK    4  A    between atoms: C5_5  and  C6_6 
REMARK    5  A    between atoms: C6_6  and  C7_7 
REMARK    6  A    between atoms: C7_7  and  C8_8 
REMARK    7  A    between atoms: C8_8  and  O1_9 
REMARK    8  A    between atoms: O1_9  and  C9_10 
REMARK    9  A    between atoms: C9_10  and  C10_11 
REMARK   10  A    between atoms: C10_11  and  N1_12 
REMARK   11  A    between atoms: N1_12  and  C11_13 
REMARK   12  A    between atoms: C11_13  and  C12_14 
REMARK   13  A    between atoms: C12_14  and  N2_15 
REMARK   14  A    between atoms: N2_15  and  C13_18 
REMARK   15  A    between atoms: C13_18  and  C14_19 
REMARK   16  A    between atoms: C14_19  and  O2_20 
REMARK   17  A    between atoms: O2_20  and  C15_21 
REMARK   18  A    between atoms: C15_21  and  C16_22 
REMARK   19  A    between atoms: C16_22  and  C17_24 
ROOT
HETATM    1  C12 UNL     1      21.896   3.448  51.728  1.00  0.00     0.260 C 
ENDROOT
BRANCH   1   2
HETATM    2  C11 UNL     1      20.570   3.410  52.416  1.00  0.00     0.265 C 
BRANCH   2   3
HETATM    3  N1  UNL     1      20.465   4.483  53.388  1.00  0.00    -0.060 N 
HETATM    4  C23 UNL     1      21.625   4.942  54.093  1.00  0.00     0.265 A 
HETATM    5  C24 UNL     1      20.964   5.771  53.026  1.00  0.00     0.265 A 
BRANCH   3   6
HETATM    6  C10 UNL     1      19.192   4.410  54.149  1.00  0.00     0.263 C 
BRANCH   6   7
HETATM    7  C9  UNL     1      19.138   3.132  54.922  1.00  0.00     0.195 C 
BRANCH   7   8
HETATM    8  O1  UNL     1      19.293   3.092  56.219  1.00  0.00    -0.389 OA
BRANCH   8   9
HETATM    9  C8  UNL     1      20.135   3.662  57.046  1.00  0.00     0.167 C 
BRANCH   9  10
HETATM   10  C7  UNL     1      19.613   4.718  57.945  1.00  0.00     0.027 C 
BRANCH  10  11
HETATM   11  C6  UNL     1      20.254   6.092  57.649  1.00  0.00     0.006 C 
BRANCH  11  12
HETATM   12  C5  UNL     1      19.492   6.882  56.672  1.00  0.00     0.027 C 
BRANCH  12  13
HETATM   13  C4  UNL     1      19.549   8.345  56.869  1.00  0.00    -0.027 C 
BRANCH  13  14
HETATM   14  C3  UNL     1      18.378   9.181  57.081  1.00  0.00    -0.005 C 
BRANCH  14  15
HETATM   15  C2  UNL     1      17.086   8.658  57.481  1.00  0.00    -0.011 C 
HETATM   16  C1  UNL     1      16.044   9.468  57.807  1.00  0.00     0.011 C 
ENDBRANCH  14  15
ENDBRANCH  13  14
ENDBRANCH  12  13
ENDBRANCH  11  12
ENDBRANCH  10  11
ENDBRANCH   9  10
ENDBRANCH   8   9
ENDBRANCH   7   8
ENDBRANCH   6   7
ENDBRANCH   3   6
ENDBRANCH   2   3
ENDBRANCH   1   2
BRANCH   1  17
HETATM   17  N2  UNL     1      22.110   2.236  50.919  1.00  0.00    -0.072 N 
ATOM     18  H22 UNL     1      22.743   1.590  51.392  1.00  0.00     0.277 HD
ATOM     19  H21 UNL     1      21.270   1.659  50.897  1.00  0.00     0.277 HD
BRANCH  17  20
HETATM   20  C13 UNL     1      22.565   2.518  49.603  1.00  0.00     0.258 C 
BRANCH  20  21
HETATM   21  C14 UNL     1      22.074   3.735  48.938  1.00  0.00     0.202 C 
BRANCH  21  22
HETATM   22  O2  UNL     1      21.304   3.802  47.891  1.00  0.00    -0.357 OA
BRANCH  22  23
HETATM   23  C15 UNL     1      21.299   4.432  46.766  1.00  0.00     0.190 C 
BRANCH  23  24
HETATM   24  C16 UNL     1      22.096   4.086  45.599  1.00  0.00     0.203 C 
HETATM   25  O3  UNL     1      23.378   4.235  45.714  1.00  0.00    -0.286 OA
BRANCH  24  26
HETATM   26  C17 UNL     1      21.581   3.582  44.339  1.00  0.00     0.016 A 
HETATM   27  C18 UNL     1      20.411   3.952  43.750  1.00  0.00     0.015 A 
HETATM   28  C19 UNL     1      19.967   3.421  42.535  1.00  0.00     0.001 A 
HETATM   29  C20 UNL     1      20.723   2.481  41.884  1.00  0.00     0.000 A 
HETATM   30  C21 UNL     1      21.901   2.102  42.467  1.00  0.00     0.001 A 
HETATM   31  C22 UNL     1      22.338   2.616  43.649  1.00  0.00     0.015 A 
ENDBRANCH  24  26
ENDBRANCH  23  24
ENDBRANCH  22  23
ENDBRANCH  21  22
ENDBRANCH  20  21
ENDBRANCH  17  20
ENDBRANCH   1  17
TORSDOF 19
ENDMDL
MODEL 3
REMARK VINA RESULT: -7.982287616      5.839      9.343
REMARK  19 active torsions:
REMARK  status: ('A' for Active; 'I' for Inactive)
REMARK    1  A    between atoms: C2_2  and  C3_3 
REMARK    2  A    between atoms: C3_3  and  C4_4 
REMARK    3  A    between atoms: C4_4  and  C5_5 
REMARK    4  A    between atoms: C5_5  and  C6_6 
REMARK    5  A    between atoms: C6_6  and  C7_7 
REMARK    6  A    between atoms: C7_7  and  C8_8 
REMARK    7  A    between atoms: C8_8  and  O1_9 
REMARK    8  A    between atoms: O1_9  and  C9_10 
REMARK    9  A    between atoms: C9_10  and  C10_11 
REMARK   10  A    between atoms: C10_11  and  N1_12 
REMARK   11  A    between atoms: N1_12  and  C11_13 
REMARK   12  A    between atoms: C11_13  and  C12_14 
REMARK   13  A    between atoms: C12_14  and  N2_15 
REMARK   14  A    between atoms: N2_15  and  C13_18 
REMARK   15  A    between atoms: C13_18  and  C14_19 
REMARK   16  A    between atoms: C14_19  and  O2_20 
REMARK   17  A    between atoms: O2_20  and  C15_21 
REMARK   18  A    between atoms: C15_21  and  C16_22 
REMARK   19  A    between atoms: C16_22  and  C17_24 
ROOT
HETATM    1  C12 UNL     1      16.207   9.785  57.462  1.00  0.00     0.260 C 
ENDROOT
BRANCH   1   2
HETATM    2  C11 UNL     1      16.762   8.399  57.494  1.00  0.00     0.265 C 
BRANCH   2   3
HETATM    3  N1  UNL     1      18.205   8.420  57.330  1.00  0.00    -0.060 N 
HETATM    4  C23 UNL     1      18.888   9.650  57.060  1.00  0.00     0.265 A 
HETATM    5  C24 UNL     1      18.995   8.958  58.391  1.00  0.00     0.265 A 
BRANCH   3   6
HETATM    6  C10 UNL     1      18.696   7.204  56.635  1.00  0.00     0.263 C 
BRANCH   6   7
HETATM    7  C9  UNL     1      19.890   6.659  57.350  1.00  0.00     0.195 C 
BRANCH   7   8
HETATM    8  O1  UNL     1      20.752   5.868  56.771  1.00  0.00    -0.389 OA
BRANCH   8   9
HETATM    9  C8  UNL     1      20.883   4.565  56.709  1.00  0.00     0.167 C 
BRANCH   9  10
HETATM   10  C7  UNL     1      19.675   3.763  56.402  1.00  0.00     0.027 C 
BRANCH  10  11
HETATM   11  C6  UNL     1      19.602   3.387  54.905  1.00  0.00     0.006 C 
BRANCH  11  12
HETATM   12  C5  UNL     1      18.906   4.396  54.094  1.00  0.00     0.027 C 
BRANCH  12  13
HETATM   13  C4  UNL     1      19.719   5.005  53.021  1.00  0.00    -0.027 C 
BRANCH  13  14
HETATM   14  C3  UNL     1      21.085   5.470  53.202  1.00  0.00    -0.005 C 
BRANCH  14  15
HETATM   15  C2  UNL     1      22.244   4.754  52.705  1.00  0.00    -0.011 C 
HETATM   16  C1  UNL     1      22.132   3.612  51.977  1.00  0.00     0.011 C 
ENDBRANCH  14  15
ENDBRANCH  13  14
ENDBRANCH  12  13
ENDBRANCH  11  12
ENDBRANCH  10  11
ENDBRANCH   9  10
ENDBRANCH   8   9
ENDBRANCH   7   8
ENDBRANCH   6   7
ENDBRANCH   3   6
ENDBRANCH   2   3
ENDBRANCH   1   2
BRANCH   1  17
HETATM   17  N2  UNL     1      15.138   9.953  58.463  1.00  0.00    -0.072 N 
ATOM     18  H22 UNL     1      14.325  10.412  58.053  1.00  0.00     0.277 HD
ATOM     19  H21 UNL     1      14.720   9.054  58.702  1.00  0.00     0.277 HD
BRANCH  17  20
HETATM   20  C13 UNL     1      15.572  10.637  59.630  1.00  0.00     0.258 C 
BRANCH  20  21
HETATM   21  C14 UNL     1      16.008   9.840  60.788  1.00  0.00     0.202 C 
BRANCH  21  22
HETATM   22  O2  UNL     1      17.073  10.024  61.512  1.00  0.00    -0.357 OA
BRANCH  22  23
HETATM   23  C15 UNL     1      17.730  11.031  61.979  1.00  0.00     0.190 C 
BRANCH  23  24
HETATM   24  C16 UNL     1      18.775  11.759  61.276  1.00  0.00     0.203 C 
HETATM   25  O3  UNL     1      19.884  11.120  61.072  1.00  0.00    -0.286 OA
BRANCH  24  26
HETATM   26  C17 UNL     1      18.675  13.119  60.781  1.00  0.00     0.016 A 
HETATM   27  C18 UNL     1      18.332  14.214  61.515  1.00  0.00     0.015 A 
HETATM   28  C19 UNL     1      18.246  15.500  60.973  1.00  0.00     0.001 A 
HETATM   29  C20 UNL     1      18.512  15.700  59.643  1.00  0.00     0.000 A 
HETATM   30  C21 UNL     1      18.857  14.607  58.896  1.00  0.00     0.001 A 
HETATM   31  C22 UNL     1      18.943  13.353  59.419  1.00  0.00     0.015 A 
ENDBRANCH  24  26
ENDBRANCH  23  24
ENDBRANCH  22  23
ENDBRANCH  21  22
ENDBRANCH  20  21
ENDBRANCH  17  20
ENDBRANCH   1  17
TORSDOF 19
ENDMDL
MODEL 4
REMARK VINA RESULT: -7.947683346      1.978      3.103
REMARK  19 active torsions:
REMARK  status: ('A' for Active; 'I' for Inactive)
REMARK    1  A    between atoms: C2_2  and  C3_3 
REMARK    2  A    between atoms: C3_3  and  C4_4 
REMARK    3  A    between atoms: C4_4  and  C5_5 
REMARK    4  A    between atoms: C5_5  and  C6_6 
REMARK    5  A    between atoms: C6_6  and  C7_7 
REMARK    6  A    between atoms: C7_7  and  C8_8 
REMARK    7  A    between atoms: C8_8  and  O1_9 
REMARK    8  A    between atoms: O1_9  and  C9_10 
REMARK    9  A    between atoms: C9_10  and  C10_11 
REMARK   10  A    between atoms: C10_11  and  N1_12 
REMARK   11  A    between atoms: N1_12  and  C11_13 
REMARK   12  A    between atoms: C11_13  and  C12_14 
REMARK   13  A    between atoms: C12_14  and  N2_15 
REMARK   14  A    between atoms: N2_15  and  C13_18 
REMARK   15  A    between atoms: C13_18  and  C14_19 
REMARK   16  A    between atoms: C14_19  and  O2_20 
REMARK   17  A    between atoms: O2_20  and  C15_21 
REMARK   18  A    between atoms: C15_21  and  C16_22 
REMARK   19  A    between atoms: C16_22  and  C17_24 
ROOT
HETATM    1  C12 UNL     1      18.989   3.582  54.417  1.00  0.00     0.260 C 
ENDROOT
BRANCH   1   2
HETATM    2  C11 UNL     1      20.064   2.789  53.748  1.00  0.00     0.265 C 
BRANCH   2   3
HETATM    3  N1  UNL     1      20.797   3.613  52.804  1.00  0.00    -0.060 N 
HETATM    4  C23 UNL     1      20.424   4.979  52.587  1.00  0.00     0.265 A 
HETATM    5  C24 UNL     1      21.683   4.606  53.321  1.00  0.00     0.265 A 
BRANCH   3   6
HETATM    6  C10 UNL     1      21.232   2.832  51.618  1.00  0.00     0.263 C 
BRANCH   6   7
HETATM    7  C9  UNL     1      21.626   3.762  50.517  1.00  0.00     0.195 C 
BRANCH   7   8
HETATM    8  O1  UNL     1      21.605   3.406  49.260  1.00  0.00    -0.389 OA
BRANCH   8   9
HETATM    9  C8  UNL     1      22.183   3.873  48.180  1.00  0.00     0.167 C 
BRANCH   9  10
HETATM   10  C7  UNL     1      21.314   4.282  47.052  1.00  0.00     0.027 C 
BRANCH  10  11
HETATM   11  C6  UNL     1      22.138   4.767  45.838  1.00  0.00     0.006 C 
BRANCH  11  12
HETATM   12  C5  UNL     1      21.860   4.002  44.614  1.00  0.00     0.027 C 
BRANCH  12  13
HETATM   13  C4  UNL     1      22.950   3.108  44.173  1.00  0.00    -0.027 C 
BRANCH  13  14
HETATM   14  C3  UNL     1      23.887   2.463  45.080  1.00  0.00    -0.005 C 
BRANCH  14  15
HETATM   15  C2  UNL     1      23.687   1.132  45.619  1.00  0.00    -0.011 C 
HETATM   16  C1  UNL     1      23.981   0.821  46.909  1.00  0.00     0.011 C 
ENDBRANCH  14  15
ENDBRANCH  13  14
ENDBRANCH  12  13
ENDBRANCH  11  12
ENDBRANCH  10  11
ENDBRANCH   9  10
ENDBRANCH   8   9
ENDBRANCH   7   8
ENDBRANCH   6   7
ENDBRANCH   3   6
ENDBRANCH   2   3
ENDBRANCH   1   2
BRANCH   1  17
HETATM   17  N2  UNL     1      18.989   3.356  55.873  1.00  0.00    -0.072 N 
ATOM     18  H22 UNL     1      18.444   4.073  56.352  1.00  0.00     0.277 HD
ATOM     19  H21 UNL     1      18.434   2.535  56.114  1.00  0.00     0.277 HD
BRANCH  17  20
HETATM   20  C13 UNL     1      20.296   3.263  56.421  1.00  0.00     0.258 C 
BRANCH  20  21
HETATM   21  C14 UNL     1      20.888   4.465  57.031  1.00  0.00     0.202 C 
BRANCH  21  22
HETATM   22  O2  UNL     1      20.804   5.689  56.598  1.00  0.00    -0.357 OA
BRANCH  22  23
HETATM   23  C15 UNL     1      19.879   6.577  56.464  1.00  0.00     0.190 C 
BRANCH  23  24
HETATM   24  C16 UNL     1      19.803   7.835  57.192  1.00  0.00     0.203 C 
HETATM   25  O3  UNL     1      20.891   8.227  57.777  1.00  0.00    -0.286 OA
BRANCH  24  26
HETATM   26  C17 UNL     1      18.629   8.680  57.306  1.00  0.00     0.016 A 
HETATM   27  C18 UNL     1      17.344   8.249  57.441  1.00  0.00     0.015 A 
HETATM   28  C19 UNL     1      16.254   9.119  57.537  1.00  0.00     0.001 A 
HETATM   29  C20 UNL     1      16.455  10.474  57.495  1.00  0.00     0.000 A 
HETATM   30  C21 UNL     1      17.742  10.918  57.359  1.00  0.00     0.001 A 
HETATM   31  C22 UNL     1      18.807  10.076  57.266  1.00  0.00     0.015 A 
ENDBRANCH  24  26
ENDBRANCH  23  24
ENDBRANCH  22  23
ENDBRANCH  21  22
ENDBRANCH  20  21
ENDBRANCH  17  20
ENDBRANCH   1  17
TORSDOF 19
ENDMDL
MODEL 5
REMARK VINA RESULT: -7.910868534      1.499     12.242
REMARK  19 active torsions:
REMARK  status: ('A' for Active; 'I' for Inactive)
REMARK    1  A    between atoms: C2_2  and  C3_3 
REMARK    2  A    between atoms: C3_3  and  C4_4 
REMARK    3  A    between atoms: C4_4  and  C5_5 
REMARK    4  A    between atoms: C5_5  and  C6_6 
REMARK    5  A    between atoms: C6_6  and  C7_7 
REMARK    6  A    between atoms: C7_7  and  C8_8 
REMARK    7  A    between atoms: C8_8  and  O1_9 
REMARK    8  A    between atoms: O1_9  and  C9_10 
REMARK    9  A    between atoms: C9_10  and  C10_11 
REMARK   10  A    between atoms: C10_11  and  N1_12 
REMARK   11  A    between atoms: N1_12  and  C11_13 
REMARK   12  A    between atoms: C11_13  and  C12_14 
REMARK   13  A    between atoms: C12_14  and  N2_15 
REMARK   14  A    between atoms: N2_15  and  C13_18 
REMARK   15  A    between atoms: C13_18  and  C14_19 
REMARK   16  A    between atoms: C14_19  and  O2_20 
REMARK   17  A    between atoms: O2_20  and  C15_21 
REMARK   18  A    between atoms: C15_21  and  C16_22 
REMARK   19  A    between atoms: C16_22  and  C17_24 
ROOT
HETATM    1  C12 UNL     1      21.728   2.332  51.130  1.00  0.00     0.260 C 
ENDROOT
BRANCH   1   2
HETATM    2  C11 UNL     1      21.323   3.764  51.257  1.00  0.00     0.265 C 
BRANCH   2   3
HETATM    3  N1  UNL     1      20.987   4.083  52.633  1.00  0.00    -0.060 N 
HETATM    4  C23 UNL     1      21.937   4.741  53.480  1.00  0.00     0.265 A 
HETATM    5  C24 UNL     1      20.713   5.445  52.961  1.00  0.00     0.265 A 
BRANCH   3   6
HETATM    6  C10 UNL     1      20.144   3.027  53.250  1.00  0.00     0.263 C 
BRANCH   6   7
HETATM    7  C9  UNL     1      19.262   3.631  54.294  1.00  0.00     0.195 C 
BRANCH   7   8
HETATM    8  O1  UNL     1      19.313   3.269  55.548  1.00  0.00    -0.389 OA
BRANCH   8   9
HETATM    9  C8  UNL     1      20.120   3.558  56.539  1.00  0.00     0.167 C 
BRANCH   9  10
HETATM   10  C7  UNL     1      19.685   4.594  57.506  1.00  0.00     0.027 C 
BRANCH  10  11
HETATM   11  C6  UNL     1      20.086   6.014  57.045  1.00  0.00     0.006 C 
BRANCH  11  12
HETATM   12  C5  UNL     1      18.988   6.734  56.386  1.00  0.00     0.027 C 
BRANCH  12  13
HETATM   13  C4  UNL     1      18.538   7.959  57.078  1.00  0.00    -0.027 C 
BRANCH  13  14
HETATM   14  C3  UNL     1      19.293   9.202  57.099  1.00  0.00    -0.005 C 
BRANCH  14  15
HETATM   15  C2  UNL     1      18.672  10.512  57.143  1.00  0.00    -0.011 C 
HETATM   16  C1  UNL     1      17.374  10.687  57.507  1.00  0.00     0.011 C 
ENDBRANCH  14  15
ENDBRANCH  13  14
ENDBRANCH  12  13
ENDBRANCH  11  12
ENDBRANCH  10  11
ENDBRANCH   9  10
ENDBRANCH   8   9
ENDBRANCH   7   8
ENDBRANCH   6   7
ENDBRANCH   3   6
ENDBRANCH   2   3
ENDBRANCH   1   2
BRANCH   1  17
HETATM   17  N2  UNL     1      23.132   2.212  50.699  1.00  0.00    -0.072 N 
ATOM     18  H22 UNL     1      23.763   2.596  51.403  1.00  0.00     0.277 HD
ATOM     19  H21 UNL     1      23.436   1.239  50.715  1.00  0.00     0.277 HD
BRANCH  17  20
HETATM   20  C13 UNL     1      23.375   2.798  49.428  1.00  0.00     0.258 C 
BRANCH  20  21
HETATM   21  C14 UNL     1      22.834   2.130  48.233  1.00  0.00     0.202 C 
BRANCH  21  22
HETATM   22  O2  UNL     1      23.510   1.591  47.261  1.00  0.00    -0.357 OA
BRANCH  22  23
HETATM   23  C15 UNL     1      23.553   1.693  45.977  1.00  0.00     0.190 C 
BRANCH  23  24
HETATM   24  C16 UNL     1      23.224   2.885  45.211  1.00  0.00     0.203 C 
HETATM   25  O3  UNL     1      23.922   3.945  45.470  1.00  0.00    -0.286 OA
BRANCH  24  26
HETATM   26  C17 UNL     1      22.201   2.980  44.186  1.00  0.00     0.016 A 
HETATM   27  C18 UNL     1      22.103   2.193  43.079  1.00  0.00     0.015 A 
HETATM   28  C19 UNL     1      21.094   2.342  42.123  1.00  0.00     0.001 A 
HETATM   29  C20 UNL     1      20.145   3.319  42.279  1.00  0.00     0.000 A 
HETATM   30  C21 UNL     1      20.234   4.116  43.387  1.00  0.00     0.001 A 
HETATM   31  C22 UNL     1      21.213   3.974  44.322  1.00  0.00     0.015 A 
ENDBRANCH  24  26
ENDBRANCH  23  24
ENDBRANCH  22  23
ENDBRANCH  21  22
ENDBRANCH  20  21
ENDBRANCH  17  20
ENDBRANCH   1  17
TORSDOF 19
ENDMDL
