MODEL 1
REMARK VINA RESULT: -6.843343373      0.000      0.000
REMARK  4 active torsions:
REMARK  status: ('A' for Active; 'I' for Inactive)
REMARK    1  A    between atoms: C3_5  and  N2_6 
REMARK    2  A    between atoms: C3_5  and  C8_12 
REMARK    3  A    between atoms: N2_6  and  C4_8 
REMARK    4  A    between atoms: C10_14  and  C11_15 
ROOT
HETATM    1  C1  UNL     1      26.727  65.188   9.053  1.00  0.00     0.123 C 
HETATM    2  C2  UNL     1      25.583  65.629   9.134  1.00  0.00    -0.074 C 
HETATM    3  N1  UNL     1      24.299  66.157   9.227  1.00  0.00    -0.314 N 
ATOM      4  H1  UNL     1      24.131  66.923   9.879  1.00  0.00     0.176 HD
HETATM    5  C3  UNL     1      23.313  65.720   8.523  1.00  0.00     0.108 C 
ENDROOT
BRANCH   5   6
HETATM    6  N2  UNL     1      23.589  64.655   7.628  1.00  0.00    -0.369 N 
ATOM      7  H2  UNL     1      24.170  64.832   6.809  1.00  0.00     0.161 HD
BRANCH   6   8
HETATM    8  C4  UNL     1      23.077  63.348   7.845  1.00  0.00     0.020 C 
HETATM    9  C5  UNL     1      22.835  62.996   9.297  1.00  0.00     0.037 C 
HETATM   10  C6  UNL     1      21.779  63.172   7.098  1.00  0.00     0.037 C 
HETATM   11  C7  UNL     1      24.074  62.306   7.291  1.00  0.00     0.037 C 
ENDBRANCH   6   8
ENDBRANCH   5   6
BRANCH   5  12
HETATM   12  C8  UNL     1      21.995  66.378   8.687  1.00  0.00     0.156 C 
HETATM   13  C9  UNL     1      22.063  67.720   8.021  1.00  0.00     0.062 C 
HETATM   14  C10 UNL     1      21.208  68.771   8.630  1.00  0.00     0.110 C 
HETATM   15  N3  UNL     1      20.268  68.329   9.601  1.00  0.00    -0.335 N 
HETATM   16  C13 UNL     1      20.625  67.296  10.504  1.00  0.00     0.317 C 
ATOM     17  H3  UNL     1      19.341  68.753   9.648  1.00  0.00     0.164 HD
HETATM   18  O1  UNL     1      20.052  67.116  11.606  1.00  0.00    -0.247 OA
HETATM   19  N4  UNL     1      21.696  66.447  10.088  1.00  0.00    -0.332 N 
ATOM     20  H4  UNL     1      22.232  65.906  10.767  1.00  0.00     0.165 HD
BRANCH  14  21
HETATM   21  C11 UNL     1      20.502  69.563   7.560  1.00  0.00    -0.012 C 
HETATM   22  C12 UNL     1      21.126  69.831   6.420  1.00  0.00     0.009 C 
ENDBRANCH  14  21
ENDBRANCH   5  12
TORSDOF 4
ENDMDL
MODEL 2
REMARK VINA RESULT: -6.813305555      3.367      6.256
REMARK  4 active torsions:
REMARK  status: ('A' for Active; 'I' for Inactive)
REMARK    1  A    between atoms: C3_5  and  N2_6 
REMARK    2  A    between atoms: C3_5  and  C8_12 
REMARK    3  A    between atoms: N2_6  and  C4_8 
REMARK    4  A    between atoms: C10_14  and  C11_15 
ROOT
HETATM    1  C1  UNL     1      22.196  67.153   8.376  1.00  0.00     0.123 C 
HETATM    2  C2  UNL     1      23.272  66.559   8.353  1.00  0.00    -0.074 C 
HETATM    3  N1  UNL     1      24.492  65.889   8.358  1.00  0.00    -0.314 N 
ATOM      4  H1  UNL     1      25.244  66.247   8.946  1.00  0.00     0.176 HD
HETATM    5  C3  UNL     1      24.710  64.835   7.652  1.00  0.00     0.108 C 
ENDROOT
BRANCH   5   6
HETATM    6  N2  UNL     1      23.638  64.369   6.849  1.00  0.00    -0.369 N 
ATOM      7  H2  UNL     1      23.335  64.929   6.051  1.00  0.00     0.161 HD
BRANCH   6   8
HETATM    8  C4  UNL     1      22.976  63.144   7.126  1.00  0.00     0.020 C 
HETATM    9  C5  UNL     1      22.737  62.872   8.595  1.00  0.00     0.037 C 
HETATM   10  C6  UNL     1      21.644  63.106   6.420  1.00  0.00     0.037 C 
HETATM   11  C7  UNL     1      23.820  61.969   6.584  1.00  0.00     0.037 C 
ENDBRANCH   6   8
ENDBRANCH   5   6
BRANCH   5  12
HETATM   12  C8  UNL     1      26.040  64.189   7.758  1.00  0.00     0.156 C 
HETATM   13  C9  UNL     1      26.856  64.973   8.741  1.00  0.00     0.062 C 
HETATM   14  C10 UNL     1      28.320  64.976   8.487  1.00  0.00     0.110 C 
HETATM   15  N3  UNL     1      28.787  64.059   7.504  1.00  0.00    -0.335 N 
HETATM   16  C13 UNL     1      28.010  63.822   6.342  1.00  0.00     0.317 C 
ATOM     17  H3  UNL     1      29.675  63.576   7.634  1.00  0.00     0.164 HD
HETATM   18  O1  UNL     1      28.490  63.368   5.275  1.00  0.00    -0.247 OA
HETATM   19  N4  UNL     1      26.619  64.132   6.446  1.00  0.00    -0.332 N 
ATOM     20  H4  UNL     1      26.056  64.306   5.615  1.00  0.00     0.165 HD
BRANCH  14  21
HETATM   21  C11 UNL     1      29.080  64.775   9.773  1.00  0.00    -0.012 C 
HETATM   22  C12 UNL     1      29.124  65.752  10.670  1.00  0.00     0.009 C 
ENDBRANCH  14  21
ENDBRANCH   5  12
TORSDOF 4
ENDMDL
MODEL 3
REMARK VINA RESULT: -6.725776248      2.257      5.365
REMARK  4 active torsions:
REMARK  status: ('A' for Active; 'I' for Inactive)
REMARK    1  A    between atoms: C3_5  and  N2_6 
REMARK    2  A    between atoms: C3_5  and  C8_12 
REMARK    3  A    between atoms: N2_6  and  C4_8 
REMARK    4  A    between atoms: C10_14  and  C11_15 
ROOT
HETATM    1  C1  UNL     1      18.478  67.136   9.817  1.00  0.00     0.123 C 
HETATM    2  C2  UNL     1      19.706  67.169   9.797  1.00  0.00    -0.074 C 
HETATM    3  N1  UNL     1      21.098  67.191   9.802  1.00  0.00    -0.314 N 
ATOM      4  H1  UNL     1      21.580  67.423  10.670  1.00  0.00     0.176 HD
HETATM    5  C3  UNL     1      21.802  66.929   8.756  1.00  0.00     0.108 C 
ENDROOT
BRANCH   5   6
HETATM    6  N2  UNL     1      21.092  66.611   7.570  1.00  0.00    -0.369 N 
ATOM      7  H2  UNL     1      20.631  65.705   7.495  1.00  0.00     0.161 HD
BRANCH   6   8
HETATM    8  C4  UNL     1      21.008  67.523   6.484  1.00  0.00     0.020 C 
HETATM    9  C5  UNL     1      21.283  68.966   6.848  1.00  0.00     0.037 C 
HETATM   10  C6  UNL     1      21.972  67.122   5.396  1.00  0.00     0.037 C 
HETATM   11  C7  UNL     1      19.586  67.476   5.882  1.00  0.00     0.037 C 
ENDBRANCH   6   8
ENDBRANCH   5   6
BRANCH   5  12
HETATM   12  C8  UNL     1      23.278  66.957   8.886  1.00  0.00     0.156 C 
HETATM   13  C9  UNL     1      23.810  65.648   8.388  1.00  0.00     0.062 C 
HETATM   14  C10 UNL     1      25.061  65.184   9.043  1.00  0.00     0.110 C 
HETATM   15  N3  UNL     1      25.720  66.130   9.876  1.00  0.00    -0.335 N 
HETATM   16  C13 UNL     1      24.952  67.011  10.679  1.00  0.00     0.317 C 
ATOM     17  H3  UNL     1      26.738  66.174   9.896  1.00  0.00     0.164 HD
HETATM   18  O1  UNL     1      25.406  67.580  11.702  1.00  0.00    -0.247 OA
HETATM   19  N4  UNL     1      23.605  67.227  10.257  1.00  0.00    -0.332 N 
ATOM     20  H4  UNL     1      22.897  67.562  10.910  1.00  0.00     0.165 HD
BRANCH  14  21
HETATM   21  C11 UNL     1      26.026  64.647   8.017  1.00  0.00    -0.012 C 
HETATM   22  C12 UNL     1      27.327  64.641   8.279  1.00  0.00     0.009 C 
ENDBRANCH  14  21
ENDBRANCH   5  12
TORSDOF 4
ENDMDL
MODEL 4
REMARK VINA RESULT: -6.714284224      3.196      6.263
REMARK  4 active torsions:
REMARK  status: ('A' for Active; 'I' for Inactive)
REMARK    1  A    between atoms: C3_5  and  N2_6 
REMARK    2  A    between atoms: C3_5  and  C8_12 
REMARK    3  A    between atoms: N2_6  and  C4_8 
REMARK    4  A    between atoms: C10_14  and  C11_15 
ROOT
HETATM    1  C1  UNL     1      17.028  68.200   7.406  1.00  0.00     0.123 C 
HETATM    2  C2  UNL     1      17.399  67.354   8.216  1.00  0.00    -0.074 C 
HETATM    3  N1  UNL     1      17.813  66.373   9.113  1.00  0.00    -0.314 N 
ATOM      4  H1  UNL     1      17.264  65.517   9.190  1.00  0.00     0.176 HD
HETATM    5  C3  UNL     1      18.861  66.501   9.850  1.00  0.00     0.108 C 
ENDROOT
BRANCH   5   6
HETATM    6  N2  UNL     1      19.596  67.706   9.712  1.00  0.00    -0.369 N 
ATOM      7  H2  UNL     1      19.228  68.563  10.126  1.00  0.00     0.161 HD
BRANCH   6   8
HETATM    8  C4  UNL     1      20.833  67.751   9.015  1.00  0.00     0.020 C 
HETATM    9  C5  UNL     1      20.938  66.787   7.852  1.00  0.00     0.037 C 
HETATM   10  C6  UNL     1      21.081  69.143   8.492  1.00  0.00     0.037 C 
HETATM   11  C7  UNL     1      21.984  67.409   9.986  1.00  0.00     0.037 C 
ENDBRANCH   6   8
ENDBRANCH   5   6
BRANCH   5  12
HETATM   12  C8  UNL     1      19.221  65.380  10.749  1.00  0.00     0.156 C 
HETATM   13  C9  UNL     1      19.282  64.129   9.925  1.00  0.00     0.062 C 
HETATM   14  C10 UNL     1      18.921  62.880  10.645  1.00  0.00     0.110 C 
HETATM   15  N3  UNL     1      18.796  62.986  12.059  1.00  0.00    -0.335 N 
HETATM   16  C13 UNL     1      18.226  64.153  12.626  1.00  0.00     0.317 C 
ATOM     17  H3  UNL     1      19.114  62.226  12.659  1.00  0.00     0.164 HD
HETATM   18  O1  UNL     1      17.720  64.182  13.775  1.00  0.00    -0.247 OA
HETATM   19  N4  UNL     1      18.255  65.324  11.809  1.00  0.00    -0.332 N 
ATOM     20  H4  UNL     1      17.610  66.097  11.973  1.00  0.00     0.165 HD
BRANCH  14  21
HETATM   21  C11 UNL     1      19.884  61.774  10.299  1.00  0.00    -0.012 C 
HETATM   22  C12 UNL     1      21.120  62.073   9.920  1.00  0.00     0.009 C 
ENDBRANCH  14  21
ENDBRANCH   5  12
TORSDOF 4
ENDMDL
MODEL 5
REMARK VINA RESULT: -6.591797728      2.882      5.107
REMARK  4 active torsions:
REMARK  status: ('A' for Active; 'I' for Inactive)
REMARK    1  A    between atoms: C3_5  and  N2_6 
REMARK    2  A    between atoms: C3_5  and  C8_12 
REMARK    3  A    between atoms: N2_6  and  C4_8 
REMARK    4  A    between atoms: C10_14  and  C11_15 
ROOT
HETATM    1  C1  UNL     1      20.964  64.722   5.595  1.00  0.00     0.123 C 
HETATM    2  C2  UNL     1      21.987  65.116   6.150  1.00  0.00    -0.074 C 
HETATM    3  N1  UNL     1      23.144  65.588   6.763  1.00  0.00    -0.314 N 
ATOM      4  H1  UNL     1      23.860  66.024   6.183  1.00  0.00     0.176 HD
HETATM    5  C3  UNL     1      23.348  65.498   8.031  1.00  0.00     0.108 C 
ENDROOT
BRANCH   5   6
HETATM    6  N2  UNL     1      22.327  64.884   8.801  1.00  0.00    -0.369 N 
ATOM      7  H2  UNL     1      21.530  65.443   9.105  1.00  0.00     0.161 HD
BRANCH   6   8
HETATM    8  C4  UNL     1      22.387  63.511   9.159  1.00  0.00     0.020 C 
HETATM    9  C5  UNL     1      23.262  62.661   8.263  1.00  0.00     0.037 C 
HETATM   10  C6  UNL     1      22.887  63.368  10.574  1.00  0.00     0.037 C 
HETATM   11  C7  UNL     1      20.968  62.903   9.106  1.00  0.00     0.037 C 
ENDBRANCH   6   8
ENDBRANCH   5   6
BRANCH   5  12
HETATM   12  C8  UNL     1      24.607  66.060   8.575  1.00  0.00     0.156 C 
HETATM   13  C9  UNL     1      25.680  65.025   8.418  1.00  0.00     0.062 C 
HETATM   14  C10 UNL     1      26.742  65.055   9.457  1.00  0.00     0.110 C 
HETATM   15  N3  UNL     1      26.744  66.187  10.319  1.00  0.00    -0.335 N 
HETATM   16  C13 UNL     1      25.512  66.741  10.751  1.00  0.00     0.317 C 
ATOM     17  H3  UNL     1      27.626  66.597  10.624  1.00  0.00     0.164 HD
HETATM   18  O1  UNL     1      25.401  67.449  11.781  1.00  0.00    -0.247 OA
HETATM   19  N4  UNL     1      24.376  66.448   9.936  1.00  0.00    -0.332 N 
ATOM     20  H4  UNL     1      23.430  66.513  10.311  1.00  0.00     0.165 HD
BRANCH  14  21
HETATM   21  C11 UNL     1      28.101  64.891   8.827  1.00  0.00    -0.012 C 
HETATM   22  C12 UNL     1      29.182  64.859   9.596  1.00  0.00     0.009 C 
ENDBRANCH  14  21
ENDBRANCH   5  12
TORSDOF 4
ENDMDL
