MODEL 1
REMARK VINA RESULT: -7.203756070      0.000      0.000
REMARK  14 active torsions:
REMARK  status: ('A' for Active; 'I' for Inactive)
REMARK    1  A    between atoms: O1_2  and  C2_3 
REMARK    2  A    between atoms: C2_3  and  C3_4 
REMARK    3  A    between atoms: C3_4  and  C4_5 
REMARK    4  A    between atoms: C4_5  and  N1_6 
REMARK    5  A    between atoms: N1_6  and  C5_9 
REMARK    6  A    between atoms: C5_9  and  C6_10 
REMARK    7  A    between atoms: C6_10  and  C7_11 
REMARK    8  A    between atoms: C7_11  and  C8_12 
REMARK    9  A    between atoms: C8_12  and  C9_13 
REMARK   10  A    between atoms: C9_13  and  C10_14 
REMARK   11  A    between atoms: C12_16  and  O2_17 
REMARK   12  A    between atoms: C13_20  and  C14_21 
REMARK   13  A    between atoms: C14_21  and  C15_22 
REMARK   14  A    between atoms: C15_22  and  C16_23 
ROOT
HETATM    1  C9  UNL     1      29.265   7.182  13.874  1.00  0.00     0.041 C 
ENDROOT
BRANCH   1   2
HETATM    2  C8  UNL     1      28.778   8.374  13.145  1.00  0.00     0.005 C 
BRANCH   2   3
HETATM    3  C7  UNL     1      27.388   8.799  13.392  1.00  0.00     0.002 C 
BRANCH   3   4
HETATM    4  C6  UNL     1      27.054   8.825  14.882  1.00  0.00     0.027 C 
BRANCH   4   5
HETATM    5  C5  UNL     1      25.590   8.939  15.158  1.00  0.00     0.232 C 
BRANCH   5   6
HETATM    6  N1  UNL     1      25.316   8.470  16.491  1.00  0.00    -0.075 N 
ATOM      7  H12 UNL     1      25.366   7.452  16.539  1.00  0.00     0.277 HD
ATOM      8  H11 UNL     1      24.333   8.598  16.730  1.00  0.00     0.277 HD
BRANCH   6   9
HETATM    9  C4  UNL     1      26.176   9.081  17.482  1.00  0.00     0.234 C 
BRANCH   9  10
HETATM   10  C3  UNL     1      25.255   9.881  18.425  1.00  0.00     0.054 C 
BRANCH  10  11
HETATM   11  C2  UNL     1      25.275  11.337  18.041  1.00  0.00     0.168 C 
BRANCH  11  12
HETATM   12  O1  UNL     1      24.023  11.870  18.180  1.00  0.00    -0.396 OA
HETATM   13  C1  UNL     1      22.977  10.984  18.117  1.00  0.00     0.201 C 
ENDBRANCH  11  12
ENDBRANCH  10  11
ENDBRANCH   9  10
ENDBRANCH   6   9
ENDBRANCH   5   6
ENDBRANCH   4   5
ENDBRANCH   3   4
ENDBRANCH   2   3
ENDBRANCH   1   2
BRANCH   1  14
HETATM   14  C10 UNL     1      30.515   7.329  14.630  1.00  0.00    -0.024 A 
HETATM   15  C11 UNL     1      30.995   8.541  15.145  1.00  0.00     0.073 A 
HETATM   16  C12 UNL     1      32.134   8.222  15.855  1.00  0.00     0.183 A 
HETATM   17  O3  UNL     1      32.326   6.950  15.777  1.00  0.00    -0.292 OA
HETATM   18  C13 UNL     1      31.371   6.364  15.043  1.00  0.00     0.062 A 
BRANCH  16  19
HETATM   19  O2  UNL     1      32.916   9.170  16.530  1.00  0.00    -0.341 OA
ATOM     20  H2  UNL     1      33.260   9.038  17.406  1.00  0.00     0.220 HD
ENDBRANCH  16  19
BRANCH  18  21
HETATM   21  C14 UNL     1      31.415   4.901  14.819  1.00  0.00     0.066 C 
BRANCH  21  22
HETATM   22  C15 UNL     1      32.756   4.610  14.169  1.00  0.00     0.010 C 
BRANCH  22  23
HETATM   23  C16 UNL     1      32.757   4.749  12.683  1.00  0.00    -0.022 C 
HETATM   24  C17 UNL     1      34.055   4.276  12.089  1.00  0.00     0.009 C 
HETATM   25  C18 UNL     1      31.611   3.882  12.167  1.00  0.00     0.009 C 
ENDBRANCH  22  23
ENDBRANCH  21  22
ENDBRANCH  18  21
ENDBRANCH   1  14
TORSDOF 14
ENDMDL
MODEL 2
REMARK VINA RESULT: -7.174094221      0.917      1.270
REMARK  14 active torsions:
REMARK  status: ('A' for Active; 'I' for Inactive)
REMARK    1  A    between atoms: O1_2  and  C2_3 
REMARK    2  A    between atoms: C2_3  and  C3_4 
REMARK    3  A    between atoms: C3_4  and  C4_5 
REMARK    4  A    between atoms: C4_5  and  N1_6 
REMARK    5  A    between atoms: N1_6  and  C5_9 
REMARK    6  A    between atoms: C5_9  and  C6_10 
REMARK    7  A    between atoms: C6_10  and  C7_11 
REMARK    8  A    between atoms: C7_11  and  C8_12 
REMARK    9  A    between atoms: C8_12  and  C9_13 
REMARK   10  A    between atoms: C9_13  and  C10_14 
REMARK   11  A    between atoms: C12_16  and  O2_17 
REMARK   12  A    between atoms: C13_20  and  C14_21 
REMARK   13  A    between atoms: C14_21  and  C15_22 
REMARK   14  A    between atoms: C15_22  and  C16_23 
ROOT
HETATM    1  C9  UNL     1      29.205   7.213  13.976  1.00  0.00     0.041 C 
ENDROOT
BRANCH   1   2
HETATM    2  C8  UNL     1      28.735   8.402  13.231  1.00  0.00     0.005 C 
BRANCH   2   3
HETATM    3  C7  UNL     1      27.320   8.784  13.387  1.00  0.00     0.002 C 
BRANCH   3   4
HETATM    4  C6  UNL     1      26.890   8.801  14.852  1.00  0.00     0.027 C 
BRANCH   4   5
HETATM    5  C5  UNL     1      25.449   9.147  15.042  1.00  0.00     0.232 C 
BRANCH   5   6
HETATM    6  N1  UNL     1      25.088   8.954  16.422  1.00  0.00    -0.075 N 
ATOM      7  H12 UNL     1      25.912   8.983  17.024  1.00  0.00     0.277 HD
ATOM      8  H11 UNL     1      24.793   7.994  16.593  1.00  0.00     0.277 HD
BRANCH   6   9
HETATM    9  C4  UNL     1      24.084   9.895  16.869  1.00  0.00     0.234 C 
BRANCH   9  10
HETATM   10  C3  UNL     1      24.559  10.423  18.238  1.00  0.00     0.054 C 
BRANCH  10  11
HETATM   11  C2  UNL     1      25.750   9.628  18.704  1.00  0.00     0.168 C 
BRANCH  11  12
HETATM   12  O1  UNL     1      26.883  10.388  18.606  1.00  0.00    -0.396 OA
HETATM   13  C1  UNL     1      26.699  11.748  18.587  1.00  0.00     0.201 C 
ENDBRANCH  11  12
ENDBRANCH  10  11
ENDBRANCH   9  10
ENDBRANCH   6   9
ENDBRANCH   5   6
ENDBRANCH   4   5
ENDBRANCH   3   4
ENDBRANCH   2   3
ENDBRANCH   1   2
BRANCH   1  14
HETATM   14  C10 UNL     1      30.480   7.338  14.694  1.00  0.00    -0.024 A 
HETATM   15  C11 UNL     1      30.985   8.538  15.213  1.00  0.00     0.073 A 
HETATM   16  C12 UNL     1      32.144   8.200  15.881  1.00  0.00     0.183 A 
HETATM   17  O3  UNL     1      32.324   6.928  15.776  1.00  0.00    -0.292 OA
HETATM   18  C13 UNL     1      31.341   6.361  15.063  1.00  0.00     0.062 A 
BRANCH  16  19
HETATM   19  O2  UNL     1      32.954   9.131  16.546  1.00  0.00    -0.341 OA
ATOM     20  H2  UNL     1      33.866   9.284  16.327  1.00  0.00     0.220 HD
ENDBRANCH  16  19
BRANCH  18  21
HETATM   21  C14 UNL     1      31.366   4.902  14.815  1.00  0.00     0.066 C 
BRANCH  21  22
HETATM   22  C15 UNL     1      32.713   4.601  14.179  1.00  0.00     0.010 C 
BRANCH  22  23
HETATM   23  C16 UNL     1      32.725   4.719  12.691  1.00  0.00    -0.022 C 
HETATM   24  C17 UNL     1      34.026   4.232  12.114  1.00  0.00     0.009 C 
HETATM   25  C18 UNL     1      31.580   3.850  12.180  1.00  0.00     0.009 C 
ENDBRANCH  22  23
ENDBRANCH  21  22
ENDBRANCH  18  21
ENDBRANCH   1  14
TORSDOF 14
ENDMDL
MODEL 3
REMARK VINA RESULT: -7.169319528      1.133      1.509
REMARK  14 active torsions:
REMARK  status: ('A' for Active; 'I' for Inactive)
REMARK    1  A    between atoms: O1_2  and  C2_3 
REMARK    2  A    between atoms: C2_3  and  C3_4 
REMARK    3  A    between atoms: C3_4  and  C4_5 
REMARK    4  A    between atoms: C4_5  and  N1_6 
REMARK    5  A    between atoms: N1_6  and  C5_9 
REMARK    6  A    between atoms: C5_9  and  C6_10 
REMARK    7  A    between atoms: C6_10  and  C7_11 
REMARK    8  A    between atoms: C7_11  and  C8_12 
REMARK    9  A    between atoms: C8_12  and  C9_13 
REMARK   10  A    between atoms: C9_13  and  C10_14 
REMARK   11  A    between atoms: C12_16  and  O2_17 
REMARK   12  A    between atoms: C13_20  and  C14_21 
REMARK   13  A    between atoms: C14_21  and  C15_22 
REMARK   14  A    between atoms: C15_22  and  C16_23 
ROOT
HETATM    1  C9  UNL     1      29.289   7.123  13.910  1.00  0.00     0.041 C 
ENDROOT
BRANCH   1   2
HETATM    2  C8  UNL     1      28.693   8.321  13.278  1.00  0.00     0.005 C 
BRANCH   2   3
HETATM    3  C7  UNL     1      27.404   8.798  13.810  1.00  0.00     0.002 C 
BRANCH   3   4
HETATM    4  C6  UNL     1      26.400   9.093  12.698  1.00  0.00     0.027 C 
BRANCH   4   5
HETATM    5  C5  UNL     1      24.978   8.926  13.126  1.00  0.00     0.232 C 
BRANCH   5   6
HETATM    6  N1  UNL     1      24.637   9.961  14.067  1.00  0.00    -0.075 N 
ATOM      7  H12 UNL     1      23.994  10.636  13.652  1.00  0.00     0.277 HD
ATOM      8  H11 UNL     1      25.432  10.576  14.239  1.00  0.00     0.277 HD
BRANCH   6   9
HETATM    9  C4  UNL     1      24.109   9.433  15.307  1.00  0.00     0.234 C 
BRANCH   9  10
HETATM   10  C3  UNL     1      24.963  10.041  16.438  1.00  0.00     0.054 C 
BRANCH  10  11
HETATM   11  C2  UNL     1      24.080  10.409  17.601  1.00  0.00     0.168 C 
BRANCH  11  12
HETATM   12  O1  UNL     1      24.446   9.692  18.707  1.00  0.00    -0.396 OA
HETATM   13  C1  UNL     1      25.795   9.550  18.916  1.00  0.00     0.201 C 
ENDBRANCH  11  12
ENDBRANCH  10  11
ENDBRANCH   9  10
ENDBRANCH   6   9
ENDBRANCH   5   6
ENDBRANCH   4   5
ENDBRANCH   3   4
ENDBRANCH   2   3
ENDBRANCH   1   2
BRANCH   1  14
HETATM   14  C10 UNL     1      30.538   7.315  14.656  1.00  0.00    -0.024 A 
HETATM   15  C11 UNL     1      31.002   8.553  15.124  1.00  0.00     0.073 A 
HETATM   16  C12 UNL     1      32.147   8.277  15.843  1.00  0.00     0.183 A 
HETATM   17  O3  UNL     1      32.357   7.006  15.813  1.00  0.00    -0.292 OA
HETATM   18  C13 UNL     1      31.409   6.379  15.103  1.00  0.00     0.062 A 
BRANCH  16  19
HETATM   19  O2  UNL     1      32.917   9.260  16.480  1.00  0.00    -0.341 OA
ATOM     20  H2  UNL     1      33.177   9.214  17.393  1.00  0.00     0.220 HD
ENDBRANCH  16  19
BRANCH  18  21
HETATM   21  C14 UNL     1      31.472   4.910  14.935  1.00  0.00     0.066 C 
BRANCH  21  22
HETATM   22  C15 UNL     1      32.792   4.617  14.242  1.00  0.00     0.010 C 
BRANCH  22  23
HETATM   23  C16 UNL     1      32.748   4.766  12.758  1.00  0.00    -0.022 C 
HETATM   24  C17 UNL     1      34.033   4.311  12.123  1.00  0.00     0.009 C 
HETATM   25  C18 UNL     1      31.596   3.891  12.270  1.00  0.00     0.009 C 
ENDBRANCH  22  23
ENDBRANCH  21  22
ENDBRANCH  18  21
ENDBRANCH   1  14
TORSDOF 14
ENDMDL
MODEL 4
REMARK VINA RESULT: -7.093442786      1.058      1.322
REMARK  14 active torsions:
REMARK  status: ('A' for Active; 'I' for Inactive)
REMARK    1  A    between atoms: O1_2  and  C2_3 
REMARK    2  A    between atoms: C2_3  and  C3_4 
REMARK    3  A    between atoms: C3_4  and  C4_5 
REMARK    4  A    between atoms: C4_5  and  N1_6 
REMARK    5  A    between atoms: N1_6  and  C5_9 
REMARK    6  A    between atoms: C5_9  and  C6_10 
REMARK    7  A    between atoms: C6_10  and  C7_11 
REMARK    8  A    between atoms: C7_11  and  C8_12 
REMARK    9  A    between atoms: C8_12  and  C9_13 
REMARK   10  A    between atoms: C9_13  and  C10_14 
REMARK   11  A    between atoms: C12_16  and  O2_17 
REMARK   12  A    between atoms: C13_20  and  C14_21 
REMARK   13  A    between atoms: C14_21  and  C15_22 
REMARK   14  A    between atoms: C15_22  and  C16_23 
ROOT
HETATM    1  C9  UNL     1      29.081   7.422  14.128  1.00  0.00     0.041 C 
ENDROOT
BRANCH   1   2
HETATM    2  C8  UNL     1      28.369   8.707  13.955  1.00  0.00     0.005 C 
BRANCH   2   3
HETATM    3  C7  UNL     1      27.032   8.829  14.565  1.00  0.00     0.002 C 
BRANCH   3   4
HETATM    4  C6  UNL     1      26.947   8.104  15.906  1.00  0.00     0.027 C 
BRANCH   4   5
HETATM    5  C5  UNL     1      27.545   8.879  17.035  1.00  0.00     0.232 C 
BRANCH   5   6
HETATM    6  N1  UNL     1      26.933  10.180  17.100  1.00  0.00    -0.075 N 
ATOM      7  H12 UNL     1      26.313  10.334  16.304  1.00  0.00     0.277 HD
ATOM      8  H11 UNL     1      27.616  10.916  16.920  1.00  0.00     0.277 HD
BRANCH   6   9
HETATM    9  C4  UNL     1      26.241  10.407  18.350  1.00  0.00     0.234 C 
BRANCH   9  10
HETATM   10  C3  UNL     1      25.163  11.472  18.065  1.00  0.00     0.054 C 
BRANCH  10  11
HETATM   11  C2  UNL     1      23.832  10.803  17.845  1.00  0.00     0.168 C 
BRANCH  11  12
HETATM   12  O1  UNL     1      23.968   9.782  16.945  1.00  0.00    -0.396 OA
HETATM   13  C1  UNL     1      23.579  10.056  15.658  1.00  0.00     0.201 C 
ENDBRANCH  11  12
ENDBRANCH  10  11
ENDBRANCH   9  10
ENDBRANCH   6   9
ENDBRANCH   5   6
ENDBRANCH   4   5
ENDBRANCH   3   4
ENDBRANCH   2   3
ENDBRANCH   1   2
BRANCH   1  14
HETATM   14  C10 UNL     1      30.403   7.473  14.766  1.00  0.00    -0.024 A 
HETATM   15  C11 UNL     1      30.972   8.627  15.322  1.00  0.00     0.073 A 
HETATM   16  C12 UNL     1      32.162   8.222  15.890  1.00  0.00     0.183 A 
HETATM   17  O3  UNL     1      32.302   6.956  15.695  1.00  0.00    -0.292 OA
HETATM   18  C13 UNL     1      31.261   6.456  15.016  1.00  0.00     0.062 A 
BRANCH  16  19
HETATM   19  O2  UNL     1      33.039   9.091  16.556  1.00  0.00    -0.341 OA
ATOM     20  H2  UNL     1      33.345   9.911  16.187  1.00  0.00     0.220 HD
ENDBRANCH  16  19
BRANCH  18  21
HETATM   21  C14 UNL     1      31.232   5.015  14.677  1.00  0.00     0.066 C 
BRANCH  21  22
HETATM   22  C15 UNL     1      32.618   4.672  14.160  1.00  0.00     0.010 C 
BRANCH  22  23
HETATM   23  C16 UNL     1      32.751   4.746  12.675  1.00  0.00    -0.022 C 
HETATM   24  C17 UNL     1      34.113   4.295  12.224  1.00  0.00     0.009 C 
HETATM   25  C18 UNL     1      31.686   3.816  12.099  1.00  0.00     0.009 C 
ENDBRANCH  22  23
ENDBRANCH  21  22
ENDBRANCH  18  21
ENDBRANCH   1  14
TORSDOF 14
ENDMDL
MODEL 5
REMARK VINA RESULT: -7.083999368      1.630      2.238
REMARK  14 active torsions:
REMARK  status: ('A' for Active; 'I' for Inactive)
REMARK    1  A    between atoms: O1_2  and  C2_3 
REMARK    2  A    between atoms: C2_3  and  C3_4 
REMARK    3  A    between atoms: C3_4  and  C4_5 
REMARK    4  A    between atoms: C4_5  and  N1_6 
REMARK    5  A    between atoms: N1_6  and  C5_9 
REMARK    6  A    between atoms: C5_9  and  C6_10 
REMARK    7  A    between atoms: C6_10  and  C7_11 
REMARK    8  A    between atoms: C7_11  and  C8_12 
REMARK    9  A    between atoms: C8_12  and  C9_13 
REMARK   10  A    between atoms: C9_13  and  C10_14 
REMARK   11  A    between atoms: C12_16  and  O2_17 
REMARK   12  A    between atoms: C13_20  and  C14_21 
REMARK   13  A    between atoms: C14_21  and  C15_22 
REMARK   14  A    between atoms: C15_22  and  C16_23 
ROOT
HETATM    1  C9  UNL     1      29.326   7.019  14.186  1.00  0.00     0.041 C 
ENDROOT
BRANCH   1   2
HETATM    2  C8  UNL     1      28.850   7.894  13.093  1.00  0.00     0.005 C 
BRANCH   2   3
HETATM    3  C7  UNL     1      27.728   8.803  13.391  1.00  0.00     0.002 C 
BRANCH   3   4
HETATM    4  C6  UNL     1      26.877   9.086  12.155  1.00  0.00     0.027 C 
BRANCH   4   5
HETATM    5  C5  UNL     1      25.415   9.177  12.452  1.00  0.00     0.232 C 
BRANCH   5   6
HETATM    6  N1  UNL     1      25.191   8.895  13.845  1.00  0.00    -0.075 N 
ATOM      7  H12 UNL     1      26.069   8.689  14.324  1.00  0.00     0.277 HD
ATOM      8  H11 UNL     1      24.724   7.997  13.967  1.00  0.00     0.277 HD
BRANCH   6   9
HETATM    9  C4  UNL     1      24.468   9.953  14.516  1.00  0.00     0.234 C 
BRANCH   9  10
HETATM   10  C3  UNL     1      25.209  10.215  15.843  1.00  0.00     0.054 C 
BRANCH  10  11
HETATM   11  C2  UNL     1      25.133   8.992  16.718  1.00  0.00     0.168 C 
BRANCH  11  12
HETATM   12  O1  UNL     1      26.299   8.284  16.630  1.00  0.00    -0.396 OA
HETATM   13  C1  UNL     1      27.419   8.897  17.135  1.00  0.00     0.201 C 
ENDBRANCH  11  12
ENDBRANCH  10  11
ENDBRANCH   9  10
ENDBRANCH   6   9
ENDBRANCH   5   6
ENDBRANCH   4   5
ENDBRANCH   3   4
ENDBRANCH   2   3
ENDBRANCH   1   2
BRANCH   1  14
HETATM   14  C10 UNL     1      30.560   7.421  14.872  1.00  0.00    -0.024 A 
HETATM   15  C11 UNL     1      30.798   8.701  15.393  1.00  0.00     0.073 A 
HETATM   16  C12 UNL     1      32.022   8.626  16.027  1.00  0.00     0.183 A 
HETATM   17  O3  UNL     1      32.479   7.428  15.901  1.00  0.00    -0.292 OA
HETATM   18  C13 UNL     1      31.629   6.660  15.206  1.00  0.00     0.062 A 
BRANCH  16  19
HETATM   19  O2  UNL     1      32.622   9.710  16.683  1.00  0.00    -0.341 OA
ATOM     20  H2  UNL     1      33.082   9.633  17.511  1.00  0.00     0.220 HD
ENDBRANCH  16  19
BRANCH  18  21
HETATM   21  C14 UNL     1      31.973   5.245  14.939  1.00  0.00     0.066 C 
BRANCH  21  22
HETATM   22  C15 UNL     1      32.726   5.233  13.619  1.00  0.00     0.010 C 
BRANCH  22  23
HETATM   23  C16 UNL     1      32.696   3.919  12.912  1.00  0.00    -0.022 C 
HETATM   24  C17 UNL     1      31.420   3.744  12.136  1.00  0.00     0.009 C 
HETATM   25  C18 UNL     1      33.884   3.917  11.953  1.00  0.00     0.009 C 
ENDBRANCH  22  23
ENDBRANCH  21  22
ENDBRANCH  18  21
ENDBRANCH   1  14
TORSDOF 14
ENDMDL
