MODEL 1
REMARK VINA RESULT: -6.079966675      0.000      0.000
REMARK  3 active torsions:
REMARK  status: ('A' for Active; 'I' for Inactive)
REMARK    1  A    between atoms: C4_5  and  C5_6 
REMARK    2  A    between atoms: C5_6  and  N2_7 
REMARK    3  A    between atoms: C5_6  and  N3_11 
ROOT
HETATM    1  C5  UNL     1      23.017   2.823   9.217  1.00  0.00     0.427 C 
ENDROOT
BRANCH   1   2
HETATM    2  C4  UNL     1      21.824   1.909   9.126  1.00  0.00     0.068 A 
HETATM    3  C3  UNL     1      21.651   0.820   8.300  1.00  0.00     0.032 A 
HETATM    4  C2  UNL     1      20.406   0.281   8.559  1.00  0.00     0.047 A 
HETATM    5  C1  UNL     1      19.811   1.058   9.564  1.00  0.00     0.116 A 
HETATM    6  N1  UNL     1      18.526   0.830  10.111  1.00  0.00    -0.083 NA
HETATM    7  N4  UNL     1      20.710   2.008   9.854  1.00  0.00    -0.345 N 
ATOM      8  H4  UNL     1      20.558   2.732  10.557  1.00  0.00     0.167 HD
ENDBRANCH   1   2
BRANCH   1   9
HETATM    9  N2  UNL     1      23.376   3.193   7.865  1.00  0.00    -0.045 N 
ATOM     10  H23 UNL     1      24.382   3.293   7.732  1.00  0.00     0.277 HD
ATOM     11  H22 UNL     1      23.228   2.441   7.192  1.00  0.00     0.277 HD
ATOM     12  H21 UNL     1      22.857   4.041   7.635  1.00  0.00     0.277 HD
ENDBRANCH   1   9
BRANCH   1  13
HETATM   13  N3  UNL     1      22.735   3.934  10.067  1.00  0.00    -0.045 N 
ATOM     14  H33 UNL     1      22.819   4.821   9.571  1.00  0.00     0.277 HD
ATOM     15  H32 UNL     1      21.744   3.986  10.305  1.00  0.00     0.277 HD
ATOM     16  H31 UNL     1      23.324   3.907  10.899  1.00  0.00     0.277 HD
ENDBRANCH   1  13
TORSDOF 3
ENDMDL
MODEL 2
REMARK VINA RESULT: -5.792125612      0.758      1.111
REMARK  3 active torsions:
REMARK  status: ('A' for Active; 'I' for Inactive)
REMARK    1  A    between atoms: C4_5  and  C5_6 
REMARK    2  A    between atoms: C5_6  and  N2_7 
REMARK    3  A    between atoms: C5_6  and  N3_11 
ROOT
HETATM    1  C5  UNL     1      22.668   3.058   9.242  1.00  0.00     0.427 C 
ENDROOT
BRANCH   1   2
HETATM    2  C4  UNL     1      21.560   2.041   9.178  1.00  0.00     0.068 A 
HETATM    3  C3  UNL     1      21.494   0.907   8.397  1.00  0.00     0.032 A 
HETATM    4  C2  UNL     1      20.296   0.274   8.665  1.00  0.00     0.047 A 
HETATM    5  C1  UNL     1      19.621   1.038   9.627  1.00  0.00     0.116 A 
HETATM    6  N1  UNL     1      18.351   0.723  10.168  1.00  0.00    -0.083 NA
HETATM    7  N4  UNL     1      20.430   2.074   9.886  1.00  0.00    -0.345 N 
ATOM      8  H4  UNL     1      20.205   2.811  10.555  1.00  0.00     0.167 HD
ENDBRANCH   1   2
BRANCH   1   9
HETATM    9  N2  UNL     1      22.183   4.170  10.031  1.00  0.00    -0.045 N 
ATOM     10  H23 UNL     1      22.932   4.714  10.457  1.00  0.00     0.277 HD
ATOM     11  H22 UNL     1      21.782   4.917   9.465  1.00  0.00     0.277 HD
ATOM     12  H21 UNL     1      21.527   3.791  10.715  1.00  0.00     0.277 HD
ENDBRANCH   1   9
BRANCH   1  13
HETATM   13  N3  UNL     1      23.864   2.466   9.746  1.00  0.00    -0.045 N 
ATOM     14  H33 UNL     1      24.504   2.209   8.996  1.00  0.00     0.277 HD
ATOM     15  H32 UNL     1      24.453   3.150  10.222  1.00  0.00     0.277 HD
ATOM     16  H31 UNL     1      23.645   1.671  10.347  1.00  0.00     0.277 HD
ENDBRANCH   1  13
TORSDOF 3
ENDMDL
MODEL 3
REMARK VINA RESULT: -5.724501778      1.036      1.472
REMARK  3 active torsions:
REMARK  status: ('A' for Active; 'I' for Inactive)
REMARK    1  A    between atoms: C4_5  and  C5_6 
REMARK    2  A    between atoms: C5_6  and  N2_7 
REMARK    3  A    between atoms: C5_6  and  N3_11 
ROOT
HETATM    1  C5  UNL     1      22.938   2.892   9.125  1.00  0.00     0.427 C 
ENDROOT
BRANCH   1   2
HETATM    2  C4  UNL     1      21.473   2.576   9.273  1.00  0.00     0.068 A 
HETATM    3  C3  UNL     1      20.408   3.449   9.227  1.00  0.00     0.032 A 
HETATM    4  C2  UNL     1      19.250   2.720   9.411  1.00  0.00     0.047 A 
HETATM    5  C1  UNL     1      19.618   1.377   9.572  1.00  0.00     0.116 A 
HETATM    6  N1  UNL     1      18.716   0.307   9.784  1.00  0.00    -0.083 NA
HETATM    7  N4  UNL     1      20.955   1.364   9.478  1.00  0.00    -0.345 N 
ATOM      8  H4  UNL     1      21.518   0.516   9.556  1.00  0.00     0.167 HD
ENDBRANCH   1   2
BRANCH   1   9
HETATM    9  N2  UNL     1      23.185   3.124   7.719  1.00  0.00    -0.045 N 
ATOM     10  H23 UNL     1      22.637   3.894   7.338  1.00  0.00     0.277 HD
ATOM     11  H22 UNL     1      24.108   3.516   7.535  1.00  0.00     0.277 HD
ATOM     12  H21 UNL     1      23.023   2.241   7.234  1.00  0.00     0.277 HD
ENDBRANCH   1   9
BRANCH   1  13
HETATM   13  N3  UNL     1      23.302   3.985   9.966  1.00  0.00    -0.045 N 
ATOM     14  H33 UNL     1      24.141   3.781  10.509  1.00  0.00     0.277 HD
ATOM     15  H32 UNL     1      23.658   4.775   9.428  1.00  0.00     0.277 HD
ATOM     16  H31 UNL     1      22.521   4.254  10.564  1.00  0.00     0.277 HD
ENDBRANCH   1  13
TORSDOF 3
ENDMDL
MODEL 4
REMARK VINA RESULT: -5.698222734      1.291      1.972
REMARK  3 active torsions:
REMARK  status: ('A' for Active; 'I' for Inactive)
REMARK    1  A    between atoms: C4_5  and  C5_6 
REMARK    2  A    between atoms: C5_6  and  N2_7 
REMARK    3  A    between atoms: C5_6  and  N3_11 
ROOT
HETATM    1  C5  UNL     1      22.664   3.060   8.834  1.00  0.00     0.427 C 
ENDROOT
BRANCH   1   2
HETATM    2  C4  UNL     1      21.245   2.696   9.182  1.00  0.00     0.068 A 
HETATM    3  C3  UNL     1      20.180   3.544   9.394  1.00  0.00     0.032 A 
HETATM    4  C2  UNL     1      19.073   2.772   9.687  1.00  0.00     0.047 A 
HETATM    5  C1  UNL     1      19.473   1.429   9.652  1.00  0.00     0.116 A 
HETATM    6  N1  UNL     1      18.626   0.323   9.900  1.00  0.00    -0.083 NA
HETATM    7  N4  UNL     1      20.777   1.458   9.346  1.00  0.00    -0.345 N 
ATOM      8  H4  UNL     1      21.352   0.620   9.249  1.00  0.00     0.167 HD
ENDBRANCH   1   2
BRANCH   1   9
HETATM    9  N2  UNL     1      23.523   2.390   9.785  1.00  0.00    -0.045 N 
ATOM     10  H23 UNL     1      23.067   1.607  10.253  1.00  0.00     0.277 HD
ATOM     11  H22 UNL     1      24.273   1.860   9.342  1.00  0.00     0.277 HD
ATOM     12  H21 UNL     1      23.866   3.098  10.435  1.00  0.00     0.277 HD
ENDBRANCH   1   9
BRANCH   1  13
HETATM   13  N3  UNL     1      22.945   2.741   7.472  1.00  0.00    -0.045 N 
ATOM     14  H33 UNL     1      23.302   1.791   7.373  1.00  0.00     0.277 HD
ATOM     15  H32 UNL     1      22.091   2.641   6.923  1.00  0.00     0.277 HD
ATOM     16  H31 UNL     1      23.579   3.428   7.066  1.00  0.00     0.277 HD
ENDBRANCH   1  13
TORSDOF 3
ENDMDL
MODEL 5
REMARK VINA RESULT: -5.498989021      2.059      3.370
REMARK  3 active torsions:
REMARK  status: ('A' for Active; 'I' for Inactive)
REMARK    1  A    between atoms: C4_5  and  C5_6 
REMARK    2  A    between atoms: C5_6  and  N2_7 
REMARK    3  A    between atoms: C5_6  and  N3_11 
ROOT
HETATM    1  C5  UNL     1      22.965   2.580   9.462  1.00  0.00     0.427 C 
ENDROOT
BRANCH   1   2
HETATM    2  C4  UNL     1      22.166   2.629   8.187  1.00  0.00     0.068 A 
HETATM    3  C3  UNL     1      20.805   2.486   8.033  1.00  0.00     0.032 A 
HETATM    4  C2  UNL     1      20.513   2.602   6.688  1.00  0.00     0.047 A 
HETATM    5  C1  UNL     1      21.721   2.819   6.011  1.00  0.00     0.116 A 
HETATM    6  N1  UNL     1      21.849   2.990   4.612  1.00  0.00    -0.083 NA
HETATM    7  N4  UNL     1      22.663   2.823   6.964  1.00  0.00    -0.345 N 
ATOM      8  H4  UNL     1      23.656   2.960   6.774  1.00  0.00     0.167 HD
ENDBRANCH   1   2
BRANCH   1   9
HETATM    9  N2  UNL     1      23.134   3.944   9.914  1.00  0.00    -0.045 N 
ATOM     10  H23 UNL     1      24.088   4.286   9.803  1.00  0.00     0.277 HD
ATOM     11  H22 UNL     1      22.678   4.625   9.307  1.00  0.00     0.277 HD
ATOM     12  H21 UNL     1      22.805   3.985  10.879  1.00  0.00     0.277 HD
ENDBRANCH   1   9
BRANCH   1  13
HETATM   13  N3  UNL     1      22.336   1.726  10.416  1.00  0.00    -0.045 N 
ATOM     14  H33 UNL     1      21.332   1.653  10.254  1.00  0.00     0.277 HD
ATOM     15  H32 UNL     1      22.584   0.747  10.270  1.00  0.00     0.277 HD
ATOM     16  H31 UNL     1      22.545   2.033  11.366  1.00  0.00     0.277 HD
ENDBRANCH   1  13
TORSDOF 3
ENDMDL
