MODEL 1
REMARK VINA RESULT: -6.580296602      0.000      0.000
REMARK  12 active torsions:
REMARK  status: ('A' for Active; 'I' for Inactive)
REMARK    1  A    between atoms: C1_4  and  C2_6 
REMARK    2  A    between atoms: N3_8  and  C4_9 
REMARK    3  A    between atoms: C4_9  and  C5_10 
REMARK    4  A    between atoms: C5_10  and  C6_11 
REMARK    5  A    between atoms: C6_11  and  C7_12 
REMARK    6  A    between atoms: C7_12  and  C8_13 
REMARK    7  A    between atoms: C8_13  and  C9_14 
REMARK    8  A    between atoms: C9_14  and  C10_15 
REMARK    9  A    between atoms: C10_15  and  C11_16 
REMARK   10  A    between atoms: C11_16  and  N4_17 
REMARK   11  A    between atoms: C14_20  and  C15_21 
REMARK   12  A    between atoms: N8_33  and  N9_34 
ROOT
HETATM    1  C8  UNL     1      77.022  12.190   8.780  1.00  0.00     0.000 C 
ENDROOT
BRANCH   1   2
HETATM    2  C7  UNL     1      77.797  12.350  10.034  1.00  0.00     0.000 C 
BRANCH   2   3
HETATM    3  C6  UNL     1      76.954  12.429  11.275  1.00  0.00     0.002 C 
BRANCH   3   4
HETATM    4  C5  UNL     1      75.645  13.120  11.064  1.00  0.00     0.020 C 
BRANCH   4   5
HETATM    5  C4  UNL     1      74.882  13.263  12.335  1.00  0.00     0.129 C 
BRANCH   5   6
HETATM    6  N3  UNL     1      73.452  13.086  12.199  1.00  0.00    -0.349 N 
HETATM    7  C3  UNL     1      72.743  12.187  12.897  1.00  0.00     0.127 A 
HETATM    8  C2  UNL     1      71.392  12.251  12.551  1.00  0.00     0.113 A 
HETATM    9  N8  UNL     1      71.307  13.219  11.616  1.00  0.00    -0.254 N 
HETATM   10  C21 UNL     1      72.575  13.706  11.426  1.00  0.00     0.209 A 
BRANCH   8  11
HETATM   11  C1  UNL     1      70.318  11.417  13.110  1.00  0.00     0.140 C 
HETATM   12  N1  UNL     1      70.144  10.190  12.873  1.00  0.00    -0.386 N 
ATOM     13  H12 UNL     1      69.399   9.612  13.262  1.00  0.00     0.157 HD
ATOM     14  H11 UNL     1      70.800   9.734  12.240  1.00  0.00     0.157 HD
HETATM   15  N2  UNL     1      69.397  12.056  13.997  1.00  0.00    -0.081 NA
ENDBRANCH   8  11
BRANCH   9  16
HETATM   16  N9  UNL     1      70.161  13.660  10.957  1.00  0.00    -0.337 N 
ATOM     17  H92 UNL     1      69.204  13.399  11.192  1.00  0.00     0.177 HD
ATOM     18  H91 UNL     1      70.112  14.294  10.159  1.00  0.00     0.177 HD
ENDBRANCH   9  16
ENDBRANCH   5   6
ENDBRANCH   4   5
ENDBRANCH   3   4
ENDBRANCH   2   3
ENDBRANCH   1   2
BRANCH   1  19
HETATM   19  C9  UNL     1      77.068  10.748   8.250  1.00  0.00     0.002 C 
BRANCH  19  20
HETATM   20  C10 UNL     1      76.142  10.579   7.101  1.00  0.00     0.022 C 
BRANCH  20  21
HETATM   21  C11 UNL     1      74.799  11.153   7.393  1.00  0.00     0.148 C 
BRANCH  21  22
HETATM   22  N4  UNL     1      74.045  10.285   8.248  1.00  0.00    -0.304 N 
HETATM   23  C12 UNL     1      73.495  10.755   9.368  1.00  0.00     0.111 A 
HETATM   24  C13 UNL     1      72.761   9.892  10.192  1.00  0.00     0.032 A 
HETATM   25  C14 UNL     1      72.614   8.571   9.842  1.00  0.00    -0.004 A 
HETATM   26  C20 UNL     1      73.210   8.143   8.664  1.00  0.00     0.119 A 
HETATM   27  N7  UNL     1      73.900   9.020   7.920  1.00  0.00    -0.309 N 
ATOM     28  H7  UNL     1      74.333   8.690   7.058  1.00  0.00     0.186 HD
BRANCH  25  29
HETATM   29  C15 UNL     1      71.876   7.597  10.633  1.00  0.00     0.017 A 
HETATM   30  C16 UNL     1      72.564   6.587  11.292  1.00  0.00     0.017 A 
HETATM   31  C17 UNL     1      71.904   5.644  12.044  1.00  0.00     0.018 A 
HETATM   32  C18 UNL     1      70.529   5.733  12.125  1.00  0.00     0.089 A 
HETATM   33  N5  UNL     1      69.878   6.712  11.485  1.00  0.00    -0.354 N 
HETATM   34  C19 UNL     1      70.510   7.646  10.743  1.00  0.00     0.127 A 
ATOM     35  H5  UNL     1      68.862   6.754  11.562  1.00  0.00     0.166 HD
HETATM   36  N6  UNL     1      69.777   8.661  10.090  1.00  0.00    -0.082 NA
ENDBRANCH  25  29
ENDBRANCH  21  22
ENDBRANCH  20  21
ENDBRANCH  19  20
ENDBRANCH   1  19
TORSDOF 12
ENDMDL
MODEL 2
REMARK VINA RESULT: -6.492185108      3.816      5.928
REMARK  12 active torsions:
REMARK  status: ('A' for Active; 'I' for Inactive)
REMARK    1  A    between atoms: C1_4  and  C2_6 
REMARK    2  A    between atoms: N3_8  and  C4_9 
REMARK    3  A    between atoms: C4_9  and  C5_10 
REMARK    4  A    between atoms: C5_10  and  C6_11 
REMARK    5  A    between atoms: C6_11  and  C7_12 
REMARK    6  A    between atoms: C7_12  and  C8_13 
REMARK    7  A    between atoms: C8_13  and  C9_14 
REMARK    8  A    between atoms: C9_14  and  C10_15 
REMARK    9  A    between atoms: C10_15  and  C11_16 
REMARK   10  A    between atoms: C11_16  and  N4_17 
REMARK   11  A    between atoms: C14_20  and  C15_21 
REMARK   12  A    between atoms: N8_33  and  N9_34 
ROOT
HETATM    1  C8  UNL     1      69.409  15.402  11.013  1.00  0.00     0.000 C 
ENDROOT
BRANCH   1   2
HETATM    2  C7  UNL     1      69.605  16.125  12.292  1.00  0.00     0.000 C 
BRANCH   2   3
HETATM    3  C6  UNL     1      68.341  16.669  12.895  1.00  0.00     0.002 C 
BRANCH   3   4
HETATM    4  C5  UNL     1      68.297  16.561  14.386  1.00  0.00     0.020 C 
BRANCH   4   5
HETATM    5  C4  UNL     1      68.675  15.198  14.854  1.00  0.00     0.129 C 
BRANCH   5   6
HETATM    6  N3  UNL     1      69.337  15.169  16.140  1.00  0.00    -0.349 N 
HETATM    7  C3  UNL     1      70.668  15.173  16.293  1.00  0.00     0.127 A 
HETATM    8  C2  UNL     1      71.008  15.140  17.647  1.00  0.00     0.113 A 
HETATM    9  N8  UNL     1      69.834  15.115  18.310  1.00  0.00    -0.254 N 
HETATM   10  C21 UNL     1      68.839  15.134  17.367  1.00  0.00     0.209 A 
BRANCH   8  11
HETATM   11  C1  UNL     1      72.373  15.134  18.194  1.00  0.00     0.140 C 
HETATM   12  N1  UNL     1      73.304  15.912  17.849  1.00  0.00    -0.386 N 
ATOM     13  H12 UNL     1      74.251  15.908  18.229  1.00  0.00     0.157 HD
ATOM     14  H11 UNL     1      73.097  16.605  17.130  1.00  0.00     0.157 HD
HETATM   15  N2  UNL     1      72.664  14.162  19.202  1.00  0.00    -0.081 NA
ENDBRANCH   8  11
BRANCH   9  16
HETATM   16  N9  UNL     1      69.643  15.078  19.690  1.00  0.00    -0.337 N 
ATOM     17  H92 UNL     1      68.967  15.637  20.211  1.00  0.00     0.177 HD
ATOM     18  H91 UNL     1      70.141  14.501  20.368  1.00  0.00     0.177 HD
ENDBRANCH   9  16
ENDBRANCH   5   6
ENDBRANCH   4   5
ENDBRANCH   3   4
ENDBRANCH   2   3
ENDBRANCH   1   2
BRANCH   1  19
HETATM   19  C9  UNL     1      70.006  13.986  11.050  1.00  0.00     0.002 C 
BRANCH  19  20
HETATM   20  C10 UNL     1      71.064  13.887  12.087  1.00  0.00     0.022 C 
BRANCH  20  21
HETATM   21  C11 UNL     1      72.292  13.233  11.554  1.00  0.00     0.148 C 
BRANCH  21  22
HETATM   22  N4  UNL     1      72.159  11.807  11.567  1.00  0.00    -0.304 N 
HETATM   23  C12 UNL     1      72.442  11.094  10.476  1.00  0.00     0.111 A 
HETATM   24  C13 UNL     1      72.308   9.700  10.507  1.00  0.00     0.032 A 
HETATM   25  C14 UNL     1      71.886   9.078  11.658  1.00  0.00    -0.004 A 
HETATM   26  C20 UNL     1      71.607   9.875  12.760  1.00  0.00     0.119 A 
HETATM   27  N7  UNL     1      71.756  11.204  12.664  1.00  0.00    -0.309 N 
ATOM     28  H7  UNL     1      71.547  11.776  13.482  1.00  0.00     0.186 HD
BRANCH  25  29
HETATM   29  C15 UNL     1      71.710   7.639  11.788  1.00  0.00     0.017 A 
HETATM   30  C16 UNL     1      72.637   6.898  12.508  1.00  0.00     0.017 A 
HETATM   31  C17 UNL     1      72.511   5.536  12.650  1.00  0.00     0.018 A 
HETATM   32  C18 UNL     1      71.427   4.925  12.053  1.00  0.00     0.089 A 
HETATM   33  N5  UNL     1      70.540   5.651  11.361  1.00  0.00    -0.354 N 
HETATM   34  C19 UNL     1      70.649   6.988  11.212  1.00  0.00     0.127 A 
ATOM     35  H5  UNL     1      69.749   5.174  10.930  1.00  0.00     0.166 HD
HETATM   36  N6  UNL     1      69.683   7.710  10.477  1.00  0.00    -0.082 NA
ENDBRANCH  25  29
ENDBRANCH  21  22
ENDBRANCH  20  21
ENDBRANCH  19  20
ENDBRANCH   1  19
TORSDOF 12
ENDMDL
MODEL 3
REMARK VINA RESULT: -6.471527913      5.177      7.348
REMARK  12 active torsions:
REMARK  status: ('A' for Active; 'I' for Inactive)
REMARK    1  A    between atoms: C1_4  and  C2_6 
REMARK    2  A    between atoms: N3_8  and  C4_9 
REMARK    3  A    between atoms: C4_9  and  C5_10 
REMARK    4  A    between atoms: C5_10  and  C6_11 
REMARK    5  A    between atoms: C6_11  and  C7_12 
REMARK    6  A    between atoms: C7_12  and  C8_13 
REMARK    7  A    between atoms: C8_13  and  C9_14 
REMARK    8  A    between atoms: C9_14  and  C10_15 
REMARK    9  A    between atoms: C10_15  and  C11_16 
REMARK   10  A    between atoms: C11_16  and  N4_17 
REMARK   11  A    between atoms: C14_20  and  C15_21 
REMARK   12  A    between atoms: N8_33  and  N9_34 
ROOT
HETATM    1  C8  UNL     1      72.570   9.152   8.534  1.00  0.00     0.000 C 
ENDROOT
BRANCH   1   2
HETATM    2  C7  UNL     1      73.109  10.515   8.755  1.00  0.00     0.000 C 
BRANCH   2   3
HETATM    3  C6  UNL     1      73.168  10.931  10.198  1.00  0.00     0.002 C 
BRANCH   3   4
HETATM    4  C5  UNL     1      71.838  10.904  10.880  1.00  0.00     0.020 C 
BRANCH   4   5
HETATM    5  C4  UNL     1      71.885  10.136  12.156  1.00  0.00     0.129 C 
BRANCH   5   6
HETATM    6  N3  UNL     1      71.717   8.707  12.001  1.00  0.00    -0.349 N 
HETATM    7  C3  UNL     1      72.430   7.796  12.678  1.00  0.00     0.127 A 
HETATM    8  C2  UNL     1      72.045   6.503  12.318  1.00  0.00     0.113 A 
HETATM    9  N8  UNL     1      71.072   6.663  11.398  1.00  0.00    -0.254 N 
HETATM   10  C21 UNL     1      70.897   8.013  11.229  1.00  0.00     0.209 A 
BRANCH   8  11
HETATM   11  C1  UNL     1      72.608   5.255  12.854  1.00  0.00     0.140 C 
HETATM   12  N1  UNL     1      73.529   5.176  13.712  1.00  0.00    -0.386 N 
ATOM     13  H12 UNL     1      73.919   4.310  14.084  1.00  0.00     0.157 HD
ATOM     14  H11 UNL     1      73.918   6.048  14.068  1.00  0.00     0.157 HD
HETATM   15  N2  UNL     1      72.062   4.031  12.355  1.00  0.00    -0.081 NA
ENDBRANCH   8  11
BRANCH   9  16
HETATM   16  N9  UNL     1      70.365   5.663  10.733  1.00  0.00    -0.337 N 
ATOM     17  H92 UNL     1      69.541   5.181  11.092  1.00  0.00     0.177 HD
ATOM     18  H91 UNL     1      70.563   5.275   9.811  1.00  0.00     0.177 HD
ENDBRANCH   9  16
ENDBRANCH   5   6
ENDBRANCH   4   5
ENDBRANCH   3   4
ENDBRANCH   2   3
ENDBRANCH   1   2
BRANCH   1  19
HETATM   19  C9  UNL     1      73.647   8.068   8.702  1.00  0.00     0.002 C 
BRANCH  19  20
HETATM   20  C10 UNL     1      74.081   7.547   7.381  1.00  0.00     0.022 C 
BRANCH  20  21
HETATM   21  C11 UNL     1      75.566   7.541   7.257  1.00  0.00     0.148 C 
BRANCH  21  22
HETATM   22  N4  UNL     1      76.037   6.270   6.795  1.00  0.00    -0.304 N 
HETATM   23  C12 UNL     1      75.253   5.493   6.046  1.00  0.00     0.111 A 
HETATM   24  C13 UNL     1      75.730   4.253   5.602  1.00  0.00     0.032 A 
HETATM   25  C14 UNL     1      76.998   3.847   5.941  1.00  0.00    -0.004 A 
HETATM   26  C20 UNL     1      77.766   4.700   6.722  1.00  0.00     0.119 A 
HETATM   27  N7  UNL     1      77.249   5.874   7.114  1.00  0.00    -0.309 N 
ATOM     28  H7  UNL     1      77.824   6.489   7.688  1.00  0.00     0.186 HD
BRANCH  25  29
HETATM   29  C15 UNL     1      77.582   2.577   5.533  1.00  0.00     0.017 A 
HETATM   30  C16 UNL     1      77.458   1.469   6.360  1.00  0.00     0.017 A 
HETATM   31  C17 UNL     1      77.999   0.253   6.015  1.00  0.00     0.018 A 
HETATM   32  C18 UNL     1      78.673   0.167   4.814  1.00  0.00     0.089 A 
HETATM   33  N5  UNL     1      78.786   1.243   4.025  1.00  0.00    -0.354 N 
HETATM   34  C19 UNL     1      78.261   2.444   4.349  1.00  0.00     0.127 A 
ATOM     35  H5  UNL     1      79.290   1.151   3.144  1.00  0.00     0.166 HD
HETATM   36  N6  UNL     1      78.403   3.547   3.480  1.00  0.00    -0.082 NA
ENDBRANCH  25  29
ENDBRANCH  21  22
ENDBRANCH  20  21
ENDBRANCH  19  20
ENDBRANCH   1  19
TORSDOF 12
ENDMDL
MODEL 4
REMARK VINA RESULT: -6.425813795      4.201      6.107
REMARK  12 active torsions:
REMARK  status: ('A' for Active; 'I' for Inactive)
REMARK    1  A    between atoms: C1_4  and  C2_6 
REMARK    2  A    between atoms: N3_8  and  C4_9 
REMARK    3  A    between atoms: C4_9  and  C5_10 
REMARK    4  A    between atoms: C5_10  and  C6_11 
REMARK    5  A    between atoms: C6_11  and  C7_12 
REMARK    6  A    between atoms: C7_12  and  C8_13 
REMARK    7  A    between atoms: C8_13  and  C9_14 
REMARK    8  A    between atoms: C9_14  and  C10_15 
REMARK    9  A    between atoms: C10_15  and  C11_16 
REMARK   10  A    between atoms: C11_16  and  N4_17 
REMARK   11  A    between atoms: C14_20  and  C15_21 
REMARK   12  A    between atoms: N8_33  and  N9_34 
ROOT
HETATM    1  C8  UNL     1      69.399  15.235  10.405  1.00  0.00     0.000 C 
ENDROOT
BRANCH   1   2
HETATM    2  C7  UNL     1      68.834  16.606  10.453  1.00  0.00     0.000 C 
BRANCH   2   3
HETATM    3  C6  UNL     1      69.141  17.356  11.718  1.00  0.00     0.002 C 
BRANCH   3   4
HETATM    4  C5  UNL     1      68.238  17.001  12.856  1.00  0.00     0.020 C 
BRANCH   4   5
HETATM    5  C4  UNL     1      68.323  17.995  13.962  1.00  0.00     0.129 C 
BRANCH   5   6
HETATM    6  N3  UNL     1      68.090  17.445  15.280  1.00  0.00    -0.349 N 
HETATM    7  C3  UNL     1      68.915  16.577  15.882  1.00  0.00     0.127 A 
HETATM    8  C2  UNL     1      68.427  16.227  17.143  1.00  0.00     0.113 A 
HETATM    9  N8  UNL     1      67.276  16.915  17.284  1.00  0.00    -0.254 N 
HETATM   10  C21 UNL     1      67.100  17.645  16.136  1.00  0.00     0.209 A 
BRANCH   8  11
HETATM   11  C1  UNL     1      69.065  15.299  18.088  1.00  0.00     0.140 C 
HETATM   12  N1  UNL     1      70.297  15.028  18.129  1.00  0.00    -0.386 N 
ATOM     13  H12 UNL     1      70.740  14.384  18.785  1.00  0.00     0.157 HD
ATOM     14  H11 UNL     1      70.904  15.488  17.452  1.00  0.00     0.157 HD
HETATM   15  N2  UNL     1      68.214  14.653  19.037  1.00  0.00    -0.081 NA
ENDBRANCH   8  11
BRANCH   9  16
HETATM   16  N9  UNL     1      66.413  16.903  18.378  1.00  0.00    -0.337 N 
ATOM     17  H92 UNL     1      65.481  16.488  18.395  1.00  0.00     0.177 HD
ATOM     18  H91 UNL     1      66.581  17.299  19.303  1.00  0.00     0.177 HD
ENDBRANCH   9  16
ENDBRANCH   5   6
ENDBRANCH   4   5
ENDBRANCH   3   4
ENDBRANCH   2   3
ENDBRANCH   1   2
BRANCH   1  19
HETATM   19  C9  UNL     1      70.835  15.181  10.950  1.00  0.00     0.002 C 
BRANCH  19  20
HETATM   20  C10 UNL     1      71.021  13.996  11.826  1.00  0.00     0.022 C 
BRANCH  20  21
HETATM   21  C11 UNL     1      72.328  13.329  11.571  1.00  0.00     0.148 C 
BRANCH  21  22
HETATM   22  N4  UNL     1      72.190  11.903  11.595  1.00  0.00    -0.304 N 
HETATM   23  C12 UNL     1      72.595  11.169  10.558  1.00  0.00     0.111 A 
HETATM   24  C13 UNL     1      72.453   9.776  10.599  1.00  0.00     0.032 A 
HETATM   25  C14 UNL     1      71.897   9.178  11.704  1.00  0.00    -0.004 A 
HETATM   26  C20 UNL     1      71.495   9.995  12.752  1.00  0.00     0.119 A 
HETATM   27  N7  UNL     1      71.660  11.323  12.649  1.00  0.00    -0.309 N 
ATOM     28  H7  UNL     1      71.359  11.910  13.426  1.00  0.00     0.186 HD
BRANCH  25  29
HETATM   29  C15 UNL     1      71.702   7.741  11.840  1.00  0.00     0.017 A 
HETATM   30  C16 UNL     1      72.609   6.993  12.579  1.00  0.00     0.017 A 
HETATM   31  C17 UNL     1      72.464   5.635  12.727  1.00  0.00     0.018 A 
HETATM   32  C18 UNL     1      71.382   5.033  12.116  1.00  0.00     0.089 A 
HETATM   33  N5  UNL     1      70.515   5.765  11.407  1.00  0.00    -0.354 N 
HETATM   34  C19 UNL     1      70.642   7.100  11.251  1.00  0.00     0.127 A 
ATOM     35  H5  UNL     1      69.725   5.295  10.966  1.00  0.00     0.166 HD
HETATM   36  N6  UNL     1      69.697   7.829  10.497  1.00  0.00    -0.082 NA
ENDBRANCH  25  29
ENDBRANCH  21  22
ENDBRANCH  20  21
ENDBRANCH  19  20
ENDBRANCH   1  19
TORSDOF 12
ENDMDL
MODEL 5
REMARK VINA RESULT: -6.391220290      2.998      5.722
REMARK  12 active torsions:
REMARK  status: ('A' for Active; 'I' for Inactive)
REMARK    1  A    between atoms: C1_4  and  C2_6 
REMARK    2  A    between atoms: N3_8  and  C4_9 
REMARK    3  A    between atoms: C4_9  and  C5_10 
REMARK    4  A    between atoms: C5_10  and  C6_11 
REMARK    5  A    between atoms: C6_11  and  C7_12 
REMARK    6  A    between atoms: C7_12  and  C8_13 
REMARK    7  A    between atoms: C8_13  and  C9_14 
REMARK    8  A    between atoms: C9_14  and  C10_15 
REMARK    9  A    between atoms: C10_15  and  C11_16 
REMARK   10  A    between atoms: C11_16  and  N4_17 
REMARK   11  A    between atoms: C14_20  and  C15_21 
REMARK   12  A    between atoms: N8_33  and  N9_34 
ROOT
HETATM    1  C8  UNL     1      73.754  13.258  10.998  1.00  0.00     0.000 C 
ENDROOT
BRANCH   1   2
HETATM    2  C7  UNL     1      73.579  12.266  12.087  1.00  0.00     0.000 C 
BRANCH   2   3
HETATM    3  C6  UNL     1      72.220  12.284  12.726  1.00  0.00     0.002 C 
BRANCH   3   4
HETATM    4  C5  UNL     1      71.563  10.941  12.767  1.00  0.00     0.020 C 
BRANCH   4   5
HETATM    5  C4  UNL     1      71.450  10.338  11.410  1.00  0.00     0.129 C 
BRANCH   5   6
HETATM    6  N3  UNL     1      71.420   8.892  11.398  1.00  0.00    -0.349 N 
HETATM    7  C3  UNL     1      72.085   8.126  12.276  1.00  0.00     0.127 A 
HETATM    8  C2  UNL     1      71.864   6.772  12.013  1.00  0.00     0.113 A 
HETATM    9  N8  UNL     1      71.041   6.745  10.945  1.00  0.00    -0.254 N 
HETATM   10  C21 UNL     1      70.791   8.047  10.596  1.00  0.00     0.209 A 
BRANCH   8  11
HETATM   11  C1  UNL     1      72.428   5.644  12.768  1.00  0.00     0.140 C 
HETATM   12  N1  UNL     1      73.466   5.688  13.484  1.00  0.00    -0.386 N 
ATOM     13  H12 UNL     1      73.858   4.905  14.008  1.00  0.00     0.157 HD
ATOM     14  H11 UNL     1      73.958   6.579  13.548  1.00  0.00     0.157 HD
HETATM   15  N2  UNL     1      71.739   4.394  12.679  1.00  0.00    -0.081 NA
ENDBRANCH   8  11
BRANCH   9  16
HETATM   16  N9  UNL     1      70.530   5.620  10.301  1.00  0.00    -0.337 N 
ATOM     17  H92 UNL     1      70.698   5.365   9.328  1.00  0.00     0.177 HD
ATOM     18  H91 UNL     1      69.924   4.901  10.698  1.00  0.00     0.177 HD
ENDBRANCH   9  16
ENDBRANCH   5   6
ENDBRANCH   4   5
ENDBRANCH   3   4
ENDBRANCH   2   3
ENDBRANCH   1   2
BRANCH   1  19
HETATM   19  C9  UNL     1      74.693  12.747   9.893  1.00  0.00     0.002 C 
BRANCH  19  20
HETATM   20  C10 UNL     1      74.579  11.274   9.746  1.00  0.00     0.022 C 
BRANCH  20  21
HETATM   21  C11 UNL     1      73.740  10.906   8.571  1.00  0.00     0.148 C 
BRANCH  21  22
HETATM   22  N4  UNL     1      74.265   9.750   7.908  1.00  0.00    -0.304 N 
HETATM   23  C12 UNL     1      75.452   9.801   7.303  1.00  0.00     0.111 A 
HETATM   24  C13 UNL     1      75.950   8.660   6.660  1.00  0.00     0.032 A 
HETATM   25  C14 UNL     1      75.213   7.500   6.657  1.00  0.00    -0.004 A 
HETATM   26  C20 UNL     1      73.985   7.510   7.304  1.00  0.00     0.119 A 
HETATM   27  N7  UNL     1      73.566   8.636   7.901  1.00  0.00    -0.309 N 
ATOM     28  H7  UNL     1      72.661   8.628   8.371  1.00  0.00     0.186 HD
BRANCH  25  29
HETATM   29  C15 UNL     1      75.640   6.265   6.014  1.00  0.00     0.017 A 
HETATM   30  C16 UNL     1      76.390   5.343   6.730  1.00  0.00     0.017 A 
HETATM   31  C17 UNL     1      76.818   4.169   6.159  1.00  0.00     0.018 A 
HETATM   32  C18 UNL     1      76.476   3.932   4.843  1.00  0.00     0.089 A 
HETATM   33  N5  UNL     1      75.752   4.830   4.162  1.00  0.00    -0.354 N 
HETATM   34  C19 UNL     1      75.324   5.988   4.708  1.00  0.00     0.127 A 
ATOM     35  H5  UNL     1      75.514   4.630   3.191  1.00  0.00     0.166 HD
HETATM   36  N6  UNL     1      74.559   6.900   3.950  1.00  0.00    -0.082 NA
ENDBRANCH  25  29
ENDBRANCH  21  22
ENDBRANCH  20  21
ENDBRANCH  19  20
ENDBRANCH   1  19
TORSDOF 12
ENDMDL
