MODEL 1
REMARK VINA RESULT: -6.218043255      0.000      0.000
REMARK  8 active torsions:
REMARK  status: ('A' for Active; 'I' for Inactive)
REMARK    1  A    between atoms: C2_2  and  O1_3 
REMARK    2  A    between atoms: O1_3  and  C3_4 
REMARK    3  A    between atoms: C3_4  and  C4_5 
REMARK    4  A    between atoms: C4_5  and  O2_6 
REMARK    5  A    between atoms: O2_6  and  N1_7 
REMARK    6  A    between atoms: N1_7  and  C5_9 
REMARK    7  A    between atoms: C6_12  and  N3_13 
REMARK    8  A    between atoms: C7_18  and  N5_19 
ROOT
HETATM    1  C5  UNL     1      34.467  42.562  -6.947  1.00  0.00     0.731 A 
HETATM    2  N2  UNL     1      33.471  43.144  -7.661  1.00  0.00    -0.020 N 
ATOM      3  H2  UNL     1      32.964  43.939  -7.270  1.00  0.00     0.203 HD
HETATM    4  C6  UNL     1      33.149  42.678  -8.882  1.00  0.00     0.705 A 
HETATM    5  N4  UNL     1      33.821  41.619  -9.404  1.00  0.00    -0.022 N 
ATOM      6  H4  UNL     1      33.576  41.267 -10.330  1.00  0.00     0.203 HD
HETATM    7  C7  UNL     1      34.810  41.033  -8.707  1.00  0.00     0.705 A 
HETATM    8  N6  UNL     1      35.107  41.523  -7.492  1.00  0.00    -0.020 N 
ATOM      9  H6  UNL     1      35.857  41.081  -6.960  1.00  0.00     0.203 HD
ENDROOT
BRANCH   1  10
HETATM   10  N1  UNL     1      34.776  43.007  -5.778  1.00  0.00    -0.095 N 
ATOM     11  H1  UNL     1      34.062  43.401  -5.165  1.00  0.00     0.213 HD
BRANCH  10  12
HETATM   12  O2  UNL     1      36.075  42.941  -5.376  1.00  0.00    -0.264 OA
BRANCH  12  13
HETATM   13  C4  UNL     1      36.530  42.200  -4.261  1.00  0.00     0.228 C 
BRANCH  13  14
HETATM   14  C3  UNL     1      38.004  42.566  -4.076  1.00  0.00     0.196 C 
BRANCH  14  15
HETATM   15  O1  UNL     1      38.039  43.688  -3.278  1.00  0.00    -0.389 OA
BRANCH  15  16
HETATM   16  C2  UNL     1      37.288  43.574  -2.129  1.00  0.00     0.163 C 
HETATM   17  C1  UNL     1      37.391  44.785  -1.226  1.00  0.00     0.033 C 
ENDBRANCH  15  16
ENDBRANCH  14  15
ENDBRANCH  13  14
ENDBRANCH  12  13
ENDBRANCH  10  12
ENDBRANCH   1  10
BRANCH   4  18
HETATM   18  N3  UNL     1      32.195  43.232  -9.571  1.00  0.00    -0.234 N 
ATOM     19  H32 UNL     1      31.293  42.762  -9.646  1.00  0.00     0.174 HD
ATOM     20  H31 UNL     1      32.343  44.129 -10.033  1.00  0.00     0.174 HD
ENDBRANCH   4  18
BRANCH   7  21
HETATM   21  N5  UNL     1      35.489  40.027  -9.141  1.00  0.00    -0.234 N 
ATOM     22  H52 UNL     1      35.432  39.800 -10.134  1.00  0.00     0.174 HD
ATOM     23  H51 UNL     1      36.079  39.446  -8.546  1.00  0.00     0.174 HD
ENDBRANCH   7  21
TORSDOF 8
ENDMDL
MODEL 2
REMARK VINA RESULT: -6.208721576      0.166      2.073
REMARK  8 active torsions:
REMARK  status: ('A' for Active; 'I' for Inactive)
REMARK    1  A    between atoms: C2_2  and  O1_3 
REMARK    2  A    between atoms: O1_3  and  C3_4 
REMARK    3  A    between atoms: C3_4  and  C4_5 
REMARK    4  A    between atoms: C4_5  and  O2_6 
REMARK    5  A    between atoms: O2_6  and  N1_7 
REMARK    6  A    between atoms: N1_7  and  C5_9 
REMARK    7  A    between atoms: C6_12  and  N3_13 
REMARK    8  A    between atoms: C7_18  and  N5_19 
ROOT
HETATM    1  C5  UNL     1      34.379  42.549  -6.962  1.00  0.00     0.731 A 
HETATM    2  N2  UNL     1      35.001  41.484  -7.525  1.00  0.00    -0.020 N 
ATOM      3  H2  UNL     1      35.704  40.967  -6.995  1.00  0.00     0.203 HD
HETATM    4  C6  UNL     1      34.696  41.103  -8.781  1.00  0.00     0.705 A 
HETATM    5  N4  UNL     1      33.761  41.789  -9.490  1.00  0.00    -0.022 N 
ATOM      6  H4  UNL     1      33.531  41.500 -10.441  1.00  0.00     0.203 HD
HETATM    7  C7  UNL     1      33.137  42.847  -8.944  1.00  0.00     0.705 A 
HETATM    8  N6  UNL     1      33.465  43.200  -7.689  1.00  0.00    -0.020 N 
ATOM      9  H6  UNL     1      32.994  44.003  -7.272  1.00  0.00     0.203 HD
ENDROOT
BRANCH   1  10
HETATM   10  N1  UNL     1      34.670  42.914  -5.762  1.00  0.00    -0.095 N 
ATOM     11  H1  UNL     1      33.936  43.188  -5.109  1.00  0.00     0.213 HD
BRANCH  10  12
HETATM   12  O2  UNL     1      35.977  42.927  -5.380  1.00  0.00    -0.264 OA
BRANCH  12  13
HETATM   13  C4  UNL     1      36.490  42.229  -4.264  1.00  0.00     0.228 C 
BRANCH  13  14
HETATM   14  C3  UNL     1      37.983  42.559  -4.201  1.00  0.00     0.196 C 
BRANCH  14  15
HETATM   15  O1  UNL     1      38.114  43.654  -3.375  1.00  0.00    -0.389 OA
BRANCH  15  16
HETATM   16  C2  UNL     1      37.305  43.608  -2.261  1.00  0.00     0.163 C 
HETATM   17  C1  UNL     1      37.548  44.751  -1.299  1.00  0.00     0.033 C 
ENDBRANCH  15  16
ENDBRANCH  14  15
ENDBRANCH  13  14
ENDBRANCH  12  13
ENDBRANCH  10  12
ENDBRANCH   1  10
BRANCH   4  18
HETATM   18  N3  UNL     1      35.289  40.083  -9.326  1.00  0.00    -0.234 N 
ATOM     19  H32 UNL     1      35.443  39.239  -8.774  1.00  0.00     0.174 HD
ATOM     20  H31 UNL     1      35.598  40.120 -10.297  1.00  0.00     0.174 HD
ENDBRANCH   4  18
BRANCH   7  21
HETATM   21  N5  UNL     1      32.242  43.542  -9.558  1.00  0.00    -0.234 N 
ATOM     22  H52 UNL     1      31.698  44.213  -9.016  1.00  0.00     0.174 HD
ATOM     23  H51 UNL     1      32.048  43.456 -10.555  1.00  0.00     0.174 HD
ENDBRANCH   7  21
TORSDOF 8
ENDMDL
MODEL 3
REMARK VINA RESULT: -6.067306986      2.559      3.825
REMARK  8 active torsions:
REMARK  status: ('A' for Active; 'I' for Inactive)
REMARK    1  A    between atoms: C2_2  and  O1_3 
REMARK    2  A    between atoms: O1_3  and  C3_4 
REMARK    3  A    between atoms: C3_4  and  C4_5 
REMARK    4  A    between atoms: C4_5  and  O2_6 
REMARK    5  A    between atoms: O2_6  and  N1_7 
REMARK    6  A    between atoms: N1_7  and  C5_9 
REMARK    7  A    between atoms: C6_12  and  N3_13 
REMARK    8  A    between atoms: C7_18  and  N5_19 
ROOT
HETATM    1  C5  UNL     1      37.109  41.996  -3.949  1.00  0.00     0.731 A 
HETATM    2  N2  UNL     1      36.150  42.740  -4.553  1.00  0.00    -0.020 N 
ATOM      3  H2  UNL     1      36.006  43.710  -4.270  1.00  0.00     0.203 HD
HETATM    4  C6  UNL     1      35.386  42.205  -5.526  1.00  0.00     0.705 A 
HETATM    5  N4  UNL     1      35.575  40.914  -5.904  1.00  0.00    -0.022 N 
ATOM      6  H4  UNL     1      34.995  40.511  -6.640  1.00  0.00     0.203 HD
HETATM    7  C7  UNL     1      36.522  40.165  -5.313  1.00  0.00     0.705 A 
HETATM    8  N6  UNL     1      37.267  40.729  -4.347  1.00  0.00    -0.020 N 
ATOM      9  H6  UNL     1      37.986  40.164  -3.896  1.00  0.00     0.203 HD
ENDROOT
BRANCH   1  10
HETATM   10  N1  UNL     1      37.840  42.506  -3.018  1.00  0.00    -0.095 N 
ATOM     11  H1  UNL     1      38.368  41.906  -2.385  1.00  0.00     0.213 HD
BRANCH  10  12
HETATM   12  O2  UNL     1      37.894  43.860  -2.897  1.00  0.00    -0.264 OA
BRANCH  12  13
HETATM   13  C4  UNL     1      37.535  44.573  -1.731  1.00  0.00     0.228 C 
BRANCH  13  14
HETATM   14  C3  UNL     1      37.948  43.696  -0.548  1.00  0.00     0.196 C 
BRANCH  14  15
HETATM   15  O1  UNL     1      36.871  42.888  -0.256  1.00  0.00    -0.389 OA
BRANCH  15  16
HETATM   16  C2  UNL     1      37.081  42.050   0.817  1.00  0.00     0.163 C 
HETATM   17  C1  UNL     1      38.188  42.521   1.736  1.00  0.00     0.033 C 
ENDBRANCH  15  16
ENDBRANCH  14  15
ENDBRANCH  13  14
ENDBRANCH  12  13
ENDBRANCH  10  12
ENDBRANCH   1  10
BRANCH   4  18
HETATM   18  N3  UNL     1      34.465  42.914  -6.108  1.00  0.00    -0.234 N 
ATOM     19  H32 UNL     1      34.628  43.907  -6.276  1.00  0.00     0.174 HD
ATOM     20  H31 UNL     1      33.586  42.485  -6.398  1.00  0.00     0.174 HD
ENDBRANCH   4  18
BRANCH   7  21
HETATM   21  N5  UNL     1      36.755  38.937  -5.622  1.00  0.00    -0.234 N 
ATOM     22  H52 UNL     1      36.212  38.519  -6.379  1.00  0.00     0.174 HD
ATOM     23  H51 UNL     1      37.451  38.359  -5.152  1.00  0.00     0.174 HD
ENDBRANCH   7  21
TORSDOF 8
ENDMDL
MODEL 4
REMARK VINA RESULT: -6.051138623      3.194      6.742
REMARK  8 active torsions:
REMARK  status: ('A' for Active; 'I' for Inactive)
REMARK    1  A    between atoms: C2_2  and  O1_3 
REMARK    2  A    between atoms: O1_3  and  C3_4 
REMARK    3  A    between atoms: C3_4  and  C4_5 
REMARK    4  A    between atoms: C4_5  and  O2_6 
REMARK    5  A    between atoms: O2_6  and  N1_7 
REMARK    6  A    between atoms: N1_7  and  C5_9 
REMARK    7  A    between atoms: C6_12  and  N3_13 
REMARK    8  A    between atoms: C7_18  and  N5_19 
ROOT
HETATM    1  C5  UNL     1      36.725  42.300  -3.591  1.00  0.00     0.731 A 
HETATM    2  N2  UNL     1      36.824  43.520  -3.007  1.00  0.00    -0.020 N 
ATOM      3  H2  UNL     1      36.871  44.358  -3.587  1.00  0.00     0.203 HD
HETATM    4  C6  UNL     1      36.861  43.630  -1.665  1.00  0.00     0.705 A 
HETATM    5  N4  UNL     1      36.800  42.516  -0.890  1.00  0.00    -0.022 N 
ATOM      6  H4  UNL     1      36.829  42.602   0.126  1.00  0.00     0.203 HD
HETATM    7  C7  UNL     1      36.701  41.301  -1.456  1.00  0.00     0.705 A 
HETATM    8  N6  UNL     1      36.666  41.225  -2.797  1.00  0.00    -0.020 N 
ATOM      9  H6  UNL     1      36.591  40.305  -3.230  1.00  0.00     0.203 HD
ENDROOT
BRANCH   1  10
HETATM   10  N1  UNL     1      36.689  42.192  -4.874  1.00  0.00    -0.095 N 
ATOM     11  H1  UNL     1      37.218  41.460  -5.349  1.00  0.00     0.213 HD
BRANCH  10  12
HETATM   12  O2  UNL     1      35.932  43.073  -5.584  1.00  0.00    -0.264 OA
BRANCH  12  13
HETATM   13  C4  UNL     1      34.797  42.717  -6.347  1.00  0.00     0.228 C 
BRANCH  13  14
HETATM   14  C3  UNL     1      35.328  42.100  -7.643  1.00  0.00     0.196 C 
BRANCH  14  15
HETATM   15  O1  UNL     1      35.142  43.036  -8.635  1.00  0.00    -0.389 OA
BRANCH  15  16
HETATM   16  C2  UNL     1      33.946  42.904  -9.305  1.00  0.00     0.163 C 
HETATM   17  C1  UNL     1      33.876  43.729 -10.573  1.00  0.00     0.033 C 
ENDBRANCH  15  16
ENDBRANCH  14  15
ENDBRANCH  13  14
ENDBRANCH  12  13
ENDBRANCH  10  12
ENDBRANCH   1  10
BRANCH   4  18
HETATM   18  N3  UNL     1      36.957  44.798  -1.100  1.00  0.00    -0.234 N 
ATOM     19  H32 UNL     1      37.246  45.602  -1.657  1.00  0.00     0.174 HD
ATOM     20  H31 UNL     1      36.745  44.913  -0.109  1.00  0.00     0.174 HD
ENDBRANCH   4  18
BRANCH   7  21
HETATM   21  N5  UNL     1      36.638  40.204  -0.782  1.00  0.00    -0.234 N 
ATOM     22  H52 UNL     1      35.717  39.849  -0.525  1.00  0.00     0.174 HD
ATOM     23  H51 UNL     1      37.458  39.673  -0.491  1.00  0.00     0.174 HD
ENDBRANCH   7  21
TORSDOF 8
ENDMDL
MODEL 5
REMARK VINA RESULT: -6.046803526      3.222      6.942
REMARK  8 active torsions:
REMARK  status: ('A' for Active; 'I' for Inactive)
REMARK    1  A    between atoms: C2_2  and  O1_3 
REMARK    2  A    between atoms: O1_3  and  C3_4 
REMARK    3  A    between atoms: C3_4  and  C4_5 
REMARK    4  A    between atoms: C4_5  and  O2_6 
REMARK    5  A    between atoms: O2_6  and  N1_7 
REMARK    6  A    between atoms: N1_7  and  C5_9 
REMARK    7  A    between atoms: C6_12  and  N3_13 
REMARK    8  A    between atoms: C7_18  and  N5_19 
ROOT
HETATM    1  C5  UNL     1      36.857  42.325  -3.587  1.00  0.00     0.731 A 
HETATM    2  N2  UNL     1      36.768  41.206  -2.827  1.00  0.00    -0.020 N 
ATOM      3  H2  UNL     1      36.736  40.289  -3.274  1.00  0.00     0.203 HD
HETATM    4  C6  UNL     1      36.723  41.298  -1.484  1.00  0.00     0.705 A 
HETATM    5  N4  UNL     1      36.765  42.517  -0.885  1.00  0.00    -0.022 N 
ATOM      6  H4  UNL     1      36.730  42.585   0.132  1.00  0.00     0.203 HD
HETATM    7  C7  UNL     1      36.852  43.635  -1.627  1.00  0.00     0.705 A 
HETATM    8  N6  UNL     1      36.896  43.508  -2.965  1.00  0.00    -0.020 N 
ATOM      9  H6  UNL     1      36.962  44.353  -3.531  1.00  0.00     0.203 HD
ENDROOT
BRANCH   1  10
HETATM   10  N1  UNL     1      36.900  42.239  -4.872  1.00  0.00    -0.095 N 
ATOM     11  H1  UNL     1      37.506  41.556  -5.327  1.00  0.00     0.213 HD
BRANCH  10  12
HETATM   12  O2  UNL     1      36.122  43.076  -5.611  1.00  0.00    -0.264 OA
BRANCH  12  13
HETATM   13  C4  UNL     1      34.925  42.692  -6.258  1.00  0.00     0.228 C 
BRANCH  13  14
HETATM   14  C3  UNL     1      35.340  42.067  -7.592  1.00  0.00     0.196 C 
BRANCH  14  15
HETATM   15  O1  UNL     1      35.127  43.021  -8.562  1.00  0.00    -0.389 OA
BRANCH  15  16
HETATM   16  C2  UNL     1      33.977  42.822  -9.292  1.00  0.00     0.163 C 
HETATM   17  C1  UNL     1      33.883  43.712 -10.514  1.00  0.00     0.033 C 
ENDBRANCH  15  16
ENDBRANCH  14  15
ENDBRANCH  13  14
ENDBRANCH  12  13
ENDBRANCH  10  12
ENDBRANCH   1  10
BRANCH   4  18
HETATM   18  N3  UNL     1      36.638  40.228  -0.750  1.00  0.00    -0.234 N 
ATOM     19  H32 UNL     1      37.466  39.890  -0.259  1.00  0.00     0.174 HD
ATOM     20  H31 UNL     1      35.753  39.729  -0.661  1.00  0.00     0.174 HD
ENDBRANCH   4  18
BRANCH   7  21
HETATM   21  N5  UNL     1      36.897  44.821  -1.126  1.00  0.00    -0.234 N 
ATOM     22  H52 UNL     1      37.332  45.561  -1.678  1.00  0.00     0.174 HD
ATOM     23  H51 UNL     1      36.521  45.060  -0.209  1.00  0.00     0.174 HD
ENDBRANCH   7  21
TORSDOF 8
ENDMDL
