MODEL 1
REMARK VINA RESULT: -6.979662428      0.000      0.000
REMARK  6 active torsions:
REMARK  status: ('A' for Active; 'I' for Inactive)
REMARK    1  A    between atoms: C2_2  and  O1_4 
REMARK    2  A    between atoms: O1_4  and  C4_5 
REMARK    3  A    between atoms: C7_9  and  O3_10 
REMARK    4  A    between atoms: C8_12  and  N1_14 
REMARK    5  A    between atoms: N1_14  and  O4_15 
REMARK    6  A    between atoms: C10_17  and  O5_18 
ROOT
HETATM    1  C4  UNL     1      73.387  58.690  35.695  1.00  0.00     0.297 C 
HETATM    2  O2  UNL     1      72.914  57.464  36.218  1.00  0.00    -0.351 OA
HETATM    3  C5  UNL     1      74.035  56.668  36.370  1.00  0.00     0.151 C 
HETATM    4  C6  UNL     1      73.623  55.225  36.626  1.00  0.00     0.042 C 
HETATM    5  C7  UNL     1      75.010  57.159  37.378  1.00  0.00     0.175 C 
HETATM    6  C8  UNL     1      75.047  58.625  37.582  1.00  0.00     0.112 C 
HETATM    7  C9  UNL     1      76.434  59.166  37.203  1.00  0.00     0.042 C 
HETATM    8  C10 UNL     1      74.045  59.413  36.824  1.00  0.00     0.202 C 
ENDROOT
BRANCH   1   9
HETATM    9  O1  UNL     1      72.263  59.431  35.288  1.00  0.00    -0.323 OA
BRANCH   9  10
HETATM   10  C2  UNL     1      71.657  59.280  34.056  1.00  0.00     0.036 C 
HETATM   11  C1  UNL     1      72.232  59.831  33.004  1.00  0.00     0.045 C 
HETATM   12  C3  UNL     1      70.385  58.520  33.885  1.00  0.00     0.075 C 
ENDBRANCH   9  10
ENDBRANCH   1   9
BRANCH   8  13
HETATM   13  O5  UNL     1      73.018  59.819  37.705  1.00  0.00    -0.388 OA
ATOM     14  H5  UNL     1      73.441  60.168  38.481  1.00  0.00     0.210 HD
ENDBRANCH   8  13
BRANCH   6  15
HETATM   15  N1  UNL     1      74.896  58.895  39.005  1.00  0.00    -0.088 NA
BRANCH  15  16
HETATM   16  O4  UNL     1      75.721  59.841  39.453  1.00  0.00    -0.295 OA
ATOM     17  H4  UNL     1      76.398  59.508  40.029  1.00  0.00     0.238 HD
ENDBRANCH  15  16
ENDBRANCH   6  15
BRANCH   5  18
HETATM   18  O3  UNL     1      76.287  56.692  36.985  1.00  0.00    -0.391 OA
ATOM     19  H3  UNL     1      76.484  57.089  36.145  1.00  0.00     0.210 HD
ENDBRANCH   5  18
TORSDOF 6
ENDMDL
MODEL 2
REMARK VINA RESULT: -6.860497178      1.062      1.271
REMARK  6 active torsions:
REMARK  status: ('A' for Active; 'I' for Inactive)
REMARK    1  A    between atoms: C2_2  and  O1_4 
REMARK    2  A    between atoms: O1_4  and  C4_5 
REMARK    3  A    between atoms: C7_9  and  O3_10 
REMARK    4  A    between atoms: C8_12  and  N1_14 
REMARK    5  A    between atoms: N1_14  and  O4_15 
REMARK    6  A    between atoms: C10_17  and  O5_18 
ROOT
HETATM    1  C4  UNL     1      73.425  58.858  36.014  1.00  0.00     0.297 C 
HETATM    2  O2  UNL     1      72.960  57.586  36.420  1.00  0.00    -0.351 OA
HETATM    3  C5  UNL     1      74.059  56.749  36.343  1.00  0.00     0.151 C 
HETATM    4  C6  UNL     1      73.620  55.295  36.451  1.00  0.00     0.042 C 
HETATM    5  C7  UNL     1      75.152  57.074  37.295  1.00  0.00     0.175 C 
HETATM    6  C8  UNL     1      75.268  58.498  37.685  1.00  0.00     0.112 C 
HETATM    7  C9  UNL     1      76.628  59.050  37.232  1.00  0.00     0.042 C 
HETATM    8  C10 UNL     1      74.224  59.406  37.150  1.00  0.00     0.202 C 
ENDROOT
BRANCH   1   9
HETATM    9  O1  UNL     1      72.294  59.676  35.832  1.00  0.00    -0.323 OA
BRANCH   9  10
HETATM   10  C2  UNL     1      72.305  60.832  35.078  1.00  0.00     0.036 C 
HETATM   11  C1  UNL     1      72.673  60.750  33.813  1.00  0.00     0.045 C 
HETATM   12  C3  UNL     1      71.919  62.156  35.646  1.00  0.00     0.075 C 
ENDBRANCH   9  10
ENDBRANCH   1   9
BRANCH   8  13
HETATM   13  O5  UNL     1      73.312  59.715  38.184  1.00  0.00    -0.388 OA
ATOM     14  H5  UNL     1      72.576  59.121  38.089  1.00  0.00     0.210 HD
ENDBRANCH   8  13
BRANCH   6  15
HETATM   15  N1  UNL     1      75.278  58.577  39.139  1.00  0.00    -0.088 NA
BRANCH  15  16
HETATM   16  O4  UNL     1      75.835  59.695  39.603  1.00  0.00    -0.295 OA
ATOM     17  H4  UNL     1      76.364  59.557  40.379  1.00  0.00     0.238 HD
ENDBRANCH  15  16
ENDBRANCH   6  15
BRANCH   5  18
HETATM   18  O3  UNL     1      76.362  56.633  36.708  1.00  0.00    -0.391 OA
ATOM     19  H3  UNL     1      77.043  56.728  37.363  1.00  0.00     0.210 HD
ENDBRANCH   5  18
TORSDOF 6
ENDMDL
MODEL 3
REMARK VINA RESULT: -6.634552730      2.748      5.313
REMARK  6 active torsions:
REMARK  status: ('A' for Active; 'I' for Inactive)
REMARK    1  A    between atoms: C2_2  and  O1_4 
REMARK    2  A    between atoms: O1_4  and  C4_5 
REMARK    3  A    between atoms: C7_9  and  O3_10 
REMARK    4  A    between atoms: C8_12  and  N1_14 
REMARK    5  A    between atoms: N1_14  and  O4_15 
REMARK    6  A    between atoms: C10_17  and  O5_18 
ROOT
HETATM    1  C4  UNL     1      73.408  57.295  35.956  1.00  0.00     0.297 C 
HETATM    2  O2  UNL     1      72.176  57.946  35.710  1.00  0.00    -0.351 OA
HETATM    3  C5  UNL     1      71.950  57.809  34.353  1.00  0.00     0.151 C 
HETATM    4  C6  UNL     1      70.821  58.733  33.913  1.00  0.00     0.042 C 
HETATM    5  C7  UNL     1      71.735  56.410  33.899  1.00  0.00     0.175 C 
HETATM    6  C8  UNL     1      72.408  55.362  34.698  1.00  0.00     0.112 C 
HETATM    7  C9  UNL     1      73.419  54.608  33.820  1.00  0.00     0.042 C 
HETATM    8  C10 UNL     1      73.135  55.828  35.904  1.00  0.00     0.202 C 
ENDROOT
BRANCH   1   9
HETATM    9  O1  UNL     1      73.800  57.628  37.266  1.00  0.00    -0.323 OA
BRANCH   9  10
HETATM   10  C2  UNL     1      75.077  58.035  37.596  1.00  0.00     0.036 C 
HETATM   11  C1  UNL     1      75.230  58.835  38.634  1.00  0.00     0.045 C 
HETATM   12  C3  UNL     1      76.275  57.602  36.819  1.00  0.00     0.075 C 
ENDBRANCH   9  10
ENDBRANCH   1   9
BRANCH   8  13
HETATM   13  O5  UNL     1      72.373  55.511  37.051  1.00  0.00    -0.388 OA
ATOM     14  H5  UNL     1      72.001  54.649  36.906  1.00  0.00     0.210 HD
ENDBRANCH   8  13
BRANCH   6  15
HETATM   15  N1  UNL     1      71.414  54.372  35.088  1.00  0.00    -0.088 NA
BRANCH  15  16
HETATM   16  O4  UNL     1      71.827  53.116  34.927  1.00  0.00    -0.295 OA
ATOM     17  H4  UNL     1      71.921  52.643  35.745  1.00  0.00     0.238 HD
ENDBRANCH  15  16
ENDBRANCH   6  15
BRANCH   5  18
HETATM   18  O3  UNL     1      72.161  56.339  32.551  1.00  0.00    -0.391 OA
ATOM     19  H3  UNL     1      71.891  57.146  32.129  1.00  0.00     0.210 HD
ENDBRANCH   5  18
TORSDOF 6
ENDMDL
MODEL 4
REMARK VINA RESULT: -6.620729366      3.085      5.059
REMARK  6 active torsions:
REMARK  status: ('A' for Active; 'I' for Inactive)
REMARK    1  A    between atoms: C2_2  and  O1_4 
REMARK    2  A    between atoms: O1_4  and  C4_5 
REMARK    3  A    between atoms: C7_9  and  O3_10 
REMARK    4  A    between atoms: C8_12  and  N1_14 
REMARK    5  A    between atoms: N1_14  and  O4_15 
REMARK    6  A    between atoms: C10_17  and  O5_18 
ROOT
HETATM    1  C4  UNL     1      75.257  56.208  35.732  1.00  0.00     0.297 C 
HETATM    2  O2  UNL     1      74.635  56.803  34.609  1.00  0.00    -0.351 OA
HETATM    3  C5  UNL     1      74.051  55.759  33.914  1.00  0.00     0.151 C 
HETATM    4  C6  UNL     1      73.623  56.227  32.529  1.00  0.00     0.042 C 
HETATM    5  C7  UNL     1      72.949  55.074  34.637  1.00  0.00     0.175 C 
HETATM    6  C8  UNL     1      73.039  55.087  36.115  1.00  0.00     0.112 C 
HETATM    7  C9  UNL     1      73.158  53.648  36.640  1.00  0.00     0.042 C 
HETATM    8  C10 UNL     1      74.166  55.860  36.691  1.00  0.00     0.202 C 
ENDROOT
BRANCH   1   9
HETATM    9  O1  UNL     1      76.072  57.189  36.325  1.00  0.00    -0.323 OA
BRANCH   9  10
HETATM   10  C2  UNL     1      77.375  57.430  35.938  1.00  0.00     0.036 C 
HETATM   11  C1  UNL     1      78.129  58.185  36.713  1.00  0.00     0.045 C 
HETATM   12  C3  UNL     1      77.947  56.868  34.679  1.00  0.00     0.075 C 
ENDBRANCH   9  10
ENDBRANCH   1   9
BRANCH   8  13
HETATM   13  O5  UNL     1      73.670  57.077  37.209  1.00  0.00    -0.388 OA
ATOM     14  H5  UNL     1      73.911  57.105  38.128  1.00  0.00     0.210 HD
ENDBRANCH   8  13
BRANCH   6  15
HETATM   15  N1  UNL     1      71.783  55.595  36.647  1.00  0.00    -0.088 NA
BRANCH  15  16
HETATM   16  O4  UNL     1      71.152  56.421  35.814  1.00  0.00    -0.295 OA
ATOM     17  H4  UNL     1      70.326  56.743  36.157  1.00  0.00     0.238 HD
ENDBRANCH  15  16
ENDBRANCH   6  15
BRANCH   5  18
HETATM   18  O3  UNL     1      72.907  53.739  34.166  1.00  0.00    -0.391 OA
ATOM     19  H3  UNL     1      73.525  53.676  33.448  1.00  0.00     0.210 HD
ENDBRANCH   5  18
TORSDOF 6
ENDMDL
MODEL 5
REMARK VINA RESULT: -6.475680852      3.204      5.306
REMARK  6 active torsions:
REMARK  status: ('A' for Active; 'I' for Inactive)
REMARK    1  A    between atoms: C2_2  and  O1_4 
REMARK    2  A    between atoms: O1_4  and  C4_5 
REMARK    3  A    between atoms: C7_9  and  O3_10 
REMARK    4  A    between atoms: C8_12  and  N1_14 
REMARK    5  A    between atoms: N1_14  and  O4_15 
REMARK    6  A    between atoms: C10_17  and  O5_18 
ROOT
HETATM    1  C4  UNL     1      74.742  57.666  34.621  1.00  0.00     0.297 C 
HETATM    2  O2  UNL     1      74.680  56.255  34.704  1.00  0.00    -0.351 OA
HETATM    3  C5  UNL     1      73.502  55.975  35.372  1.00  0.00     0.151 C 
HETATM    4  C6  UNL     1      73.476  54.513  35.799  1.00  0.00     0.042 C 
HETATM    5  C7  UNL     1      72.268  56.365  34.641  1.00  0.00     0.175 C 
HETATM    6  C8  UNL     1      72.400  57.516  33.719  1.00  0.00     0.112 C 
HETATM    7  C9  UNL     1      71.485  58.660  34.184  1.00  0.00     0.042 C 
HETATM    8  C10 UNL     1      73.765  58.077  33.569  1.00  0.00     0.202 C 
ENDROOT
BRANCH   1   9
HETATM    9  O1  UNL     1      76.035  58.002  34.180  1.00  0.00    -0.323 OA
BRANCH   9  10
HETATM   10  C2  UNL     1      77.174  57.785  34.930  1.00  0.00     0.036 C 
HETATM   11  C1  UNL     1      77.968  56.788  34.588  1.00  0.00     0.045 C 
HETATM   12  C3  UNL     1      77.525  58.635  36.105  1.00  0.00     0.075 C 
ENDBRANCH   9  10
ENDBRANCH   1   9
BRANCH   8  13
HETATM   13  O5  UNL     1      74.297  57.662  32.329  1.00  0.00    -0.388 OA
ATOM     14  H5  UNL     1      75.218  57.899  32.329  1.00  0.00     0.210 HD
ENDBRANCH   8  13
BRANCH   6  15
HETATM   15  N1  UNL     1      71.896  57.118  32.413  1.00  0.00    -0.088 NA
BRANCH  15  16
HETATM   16  O4  UNL     1      72.299  55.905  32.038  1.00  0.00    -0.295 OA
ATOM     17  H4  UNL     1      73.243  55.801  32.052  1.00  0.00     0.238 HD
ENDBRANCH  15  16
ENDBRANCH   6  15
BRANCH   5  18
HETATM   18  O3  UNL     1      71.275  56.635  35.614  1.00  0.00    -0.391 OA
ATOM     19  H3  UNL     1      70.733  57.337  35.274  1.00  0.00     0.210 HD
ENDBRANCH   5  18
TORSDOF 6
ENDMDL
