MODEL 1
REMARK VINA RESULT: -5.283105669      0.000      0.000
REMARK  3 active torsions:
REMARK  status: ('A' for Active; 'I' for Inactive)
REMARK    1  A    between atoms: C2_2  and  N1_4 
REMARK    2  A    between atoms: N1_4  and  C4_6 
REMARK    3  A    between atoms: C4_6  and  C7_9 
ROOT
HETATM    1  C4  UNL     1     -21.423  15.990   9.816  1.00  0.00     0.047 C 
HETATM    2  C5  UNL     1     -22.279  17.117  10.361  1.00  0.00     0.039 C 
HETATM    3  C6  UNL     1     -20.215  15.932  10.787  1.00  0.00     0.039 C 
ENDROOT
BRANCH   1   4
HETATM    4  N1  UNL     1     -20.908  16.265   8.590  1.00  0.00    -0.408 N 
ATOM      5  H1  UNL     1     -20.042  15.775   8.368  1.00  0.00     0.154 HD
BRANCH   4   6
HETATM    6  C2  UNL     1     -21.364  17.094   7.608  1.00  0.00     0.069 C 
HETATM    7  C1  UNL     1     -20.494  18.148   7.023  1.00  0.00     0.031 C 
HETATM    8  C3  UNL     1     -21.867  16.263   6.432  1.00  0.00     0.031 C 
ENDBRANCH   4   6
ENDBRANCH   1   4
BRANCH   1   9
HETATM    9  C7  UNL     1     -22.140  14.705  10.054  1.00  0.00     0.212 C 
HETATM   10  C8  UNL     1     -23.652  14.827  10.003  1.00  0.00     0.037 C 
HETATM   11  C9  UNL     1     -24.126  13.401   9.686  1.00  0.00     0.029 C 
HETATM   12  C10 UNL     1     -22.807  12.648   9.589  1.00  0.00     0.233 C 
HETATM   13  N2  UNL     1     -21.964  13.709   9.007  1.00  0.00    -0.069 N 
ATOM     14  H22 UNL     1     -22.189  14.001   8.055  1.00  0.00     0.277 HD
ATOM     15  H21 UNL     1     -21.004  13.455   8.774  1.00  0.00     0.277 HD
ENDBRANCH   1   9
TORSDOF 3
ENDMDL
MODEL 2
REMARK VINA RESULT: -5.273589486      1.084      4.292
REMARK  3 active torsions:
REMARK  status: ('A' for Active; 'I' for Inactive)
REMARK    1  A    between atoms: C2_2  and  N1_4 
REMARK    2  A    between atoms: N1_4  and  C4_6 
REMARK    3  A    between atoms: C4_6  and  C7_9 
ROOT
HETATM    1  C4  UNL     1     -21.893  16.040   9.734  1.00  0.00     0.047 C 
HETATM    2  C5  UNL     1     -20.870  15.609  10.768  1.00  0.00     0.039 C 
HETATM    3  C6  UNL     1     -22.473  17.359  10.306  1.00  0.00     0.039 C 
ENDROOT
BRANCH   1   4
HETATM    4  N1  UNL     1     -22.939  15.179   9.638  1.00  0.00    -0.408 N 
ATOM      5  H1  UNL     1     -23.567  15.353   8.853  1.00  0.00     0.154 HD
BRANCH   4   6
HETATM    6  C2  UNL     1     -23.283  14.119  10.423  1.00  0.00     0.069 C 
HETATM    7  C1  UNL     1     -24.627  14.030  11.052  1.00  0.00     0.031 C 
HETATM    8  C3  UNL     1     -23.100  12.824   9.639  1.00  0.00     0.031 C 
ENDBRANCH   4   6
ENDBRANCH   1   4
BRANCH   1   9
HETATM    9  C7  UNL     1     -21.162  16.468   8.508  1.00  0.00     0.212 C 
HETATM   10  C8  UNL     1     -21.535  15.682   7.264  1.00  0.00     0.037 C 
HETATM   11  C9  UNL     1     -21.154  16.619   6.108  1.00  0.00     0.029 C 
HETATM   12  C10 UNL     1     -20.617  17.832   6.853  1.00  0.00     0.233 C 
HETATM   13  N2  UNL     1     -21.501  17.803   8.033  1.00  0.00    -0.069 N 
ATOM     14  H22 UNL     1     -22.490  17.992   7.869  1.00  0.00     0.277 HD
ATOM     15  H21 UNL     1     -21.396  18.566   8.702  1.00  0.00     0.277 HD
ENDBRANCH   1   9
TORSDOF 3
ENDMDL
MODEL 3
REMARK VINA RESULT: -5.264484399      1.753      4.293
REMARK  3 active torsions:
REMARK  status: ('A' for Active; 'I' for Inactive)
REMARK    1  A    between atoms: C2_2  and  N1_4 
REMARK    2  A    between atoms: N1_4  and  C4_6 
REMARK    3  A    between atoms: C4_6  and  C7_9 
ROOT
HETATM    1  C4  UNL     1     -21.579  14.814   9.128  1.00  0.00     0.047 C 
HETATM    2  C5  UNL     1     -22.135  15.546   7.922  1.00  0.00     0.039 C 
HETATM    3  C6  UNL     1     -21.072  13.468   8.550  1.00  0.00     0.039 C 
ENDROOT
BRANCH   1   4
HETATM    4  N1  UNL     1     -22.537  14.496  10.038  1.00  0.00    -0.408 N 
ATOM      5  H1  UNL     1     -22.183  14.171  10.937  1.00  0.00     0.154 HD
BRANCH   4   6
HETATM    6  C2  UNL     1     -23.896  14.542   9.940  1.00  0.00     0.069 C 
HETATM    7  C1  UNL     1     -24.689  13.319   9.647  1.00  0.00     0.031 C 
HETATM    8  C3  UNL     1     -24.480  15.125  11.222  1.00  0.00     0.031 C 
ENDBRANCH   4   6
ENDBRANCH   1   4
BRANCH   1   9
HETATM    9  C7  UNL     1     -20.337  15.512   9.564  1.00  0.00     0.212 C 
HETATM   10  C8  UNL     1     -20.530  16.412  10.771  1.00  0.00     0.037 C 
HETATM   11  C9  UNL     1     -19.119  16.534  11.368  1.00  0.00     0.029 C 
HETATM   12  C10 UNL     1     -18.302  15.670  10.418  1.00  0.00     0.233 C 
HETATM   13  N2  UNL     1     -19.307  14.637  10.105  1.00  0.00    -0.069 N 
ATOM     14  H22 UNL     1     -19.584  14.022  10.871  1.00  0.00     0.277 HD
ATOM     15  H21 UNL     1     -19.001  13.868   9.509  1.00  0.00     0.277 HD
ENDBRANCH   1   9
TORSDOF 3
ENDMDL
MODEL 4
REMARK VINA RESULT: -5.230071921      1.568      4.239
REMARK  3 active torsions:
REMARK  status: ('A' for Active; 'I' for Inactive)
REMARK    1  A    between atoms: C2_2  and  N1_4 
REMARK    2  A    between atoms: N1_4  and  C4_6 
REMARK    3  A    between atoms: C4_6  and  C7_9 
ROOT
HETATM    1  C4  UNL     1     -22.219  16.047   9.997  1.00  0.00     0.047 C 
HETATM    2  C5  UNL     1     -22.887  17.177  10.758  1.00  0.00     0.039 C 
HETATM    3  C6  UNL     1     -21.781  16.701   8.662  1.00  0.00     0.039 C 
ENDROOT
BRANCH   1   4
HETATM    4  N1  UNL     1     -23.084  15.054   9.665  1.00  0.00    -0.408 N 
ATOM      5  H1  UNL     1     -23.535  15.165   8.757  1.00  0.00     0.154 HD
BRANCH   4   6
HETATM    6  C2  UNL     1     -23.443  13.932  10.351  1.00  0.00     0.069 C 
HETATM    7  C1  UNL     1     -24.855  13.695  10.753  1.00  0.00     0.031 C 
HETATM    8  C3  UNL     1     -23.017  12.696   9.567  1.00  0.00     0.031 C 
ENDBRANCH   4   6
ENDBRANCH   1   4
BRANCH   1   9
HETATM    9  C7  UNL     1     -20.935  15.723  10.681  1.00  0.00     0.212 C 
HETATM   10  C8  UNL     1     -19.912  15.056   9.780  1.00  0.00     0.037 C 
HETATM   11  C9  UNL     1     -18.570  15.351  10.466  1.00  0.00     0.029 C 
HETATM   12  C10 UNL     1     -19.009  16.164  11.675  1.00  0.00     0.233 C 
HETATM   13  N2  UNL     1     -20.151  16.883  11.082  1.00  0.00    -0.069 N 
ATOM     14  H22 UNL     1     -19.934  17.563  10.353  1.00  0.00     0.277 HD
ATOM     15  H21 UNL     1     -20.619  17.568  11.675  1.00  0.00     0.277 HD
ENDBRANCH   1   9
TORSDOF 3
ENDMDL
MODEL 5
REMARK VINA RESULT: -5.213709232      1.403      2.750
REMARK  3 active torsions:
REMARK  status: ('A' for Active; 'I' for Inactive)
REMARK    1  A    between atoms: C2_2  and  N1_4 
REMARK    2  A    between atoms: N1_4  and  C4_6 
REMARK    3  A    between atoms: C4_6  and  C7_9 
ROOT
HETATM    1  C4  UNL     1     -21.666  16.102  10.282  1.00  0.00     0.047 C 
HETATM    2  C5  UNL     1     -21.364  16.422   8.830  1.00  0.00     0.039 C 
HETATM    3  C6  UNL     1     -22.782  17.108  10.664  1.00  0.00     0.039 C 
ENDROOT
BRANCH   1   4
HETATM    4  N1  UNL     1     -20.620  16.368  11.107  1.00  0.00    -0.408 N 
ATOM      5  H1  UNL     1     -20.875  16.540  12.080  1.00  0.00     0.154 HD
BRANCH   4   6
HETATM    6  C2  UNL     1     -19.285  16.440  10.843  1.00  0.00     0.069 C 
HETATM    7  C1  UNL     1     -18.329  16.982  11.846  1.00  0.00     0.031 C 
HETATM    8  C3  UNL     1     -18.763  15.057  10.470  1.00  0.00     0.031 C 
ENDBRANCH   4   6
ENDBRANCH   1   4
BRANCH   1   9
HETATM    9  C7  UNL     1     -22.341  14.775  10.334  1.00  0.00     0.212 C 
HETATM   10  C8  UNL     1     -23.857  14.855  10.304  1.00  0.00     0.037 C 
HETATM   11  C9  UNL     1     -24.288  13.475   9.787  1.00  0.00     0.029 C 
HETATM   12  C10 UNL     1     -22.947  12.786   9.579  1.00  0.00     0.233 C 
HETATM   13  N2  UNL     1     -22.142  13.946   9.153  1.00  0.00    -0.069 N 
ATOM     14  H22 UNL     1     -22.383  14.364   8.254  1.00  0.00     0.277 HD
ATOM     15  H21 UNL     1     -21.177  13.758   8.884  1.00  0.00     0.277 HD
ENDBRANCH   1   9
TORSDOF 3
ENDMDL
