MODEL 1
REMARK VINA RESULT: -6.267227485      0.000      0.000
REMARK  9 active torsions:
REMARK  status: ('A' for Active; 'I' for Inactive)
REMARK    1  A    between atoms: C2_2  and  C3_3 
REMARK    2  A    between atoms: C4_4  and  O1_5 
REMARK    3  A    between atoms: C9_10  and  O2_11 
REMARK    4  A    between atoms: C10_13  and  C11_14 
REMARK    5  A    between atoms: C13_16  and  O3_17 
REMARK    6  A    between atoms: C15_19  and  O4_20 
REMARK    7  A    between atoms: C17_22  and  O5_23 
REMARK    8  A    between atoms: C20_26  and  C21_27 
REMARK    9  A    between atoms: C22_30  and  O8_31 
ROOT
HETATM    1  C3  UNL     1      25.450  44.966  47.282  1.00  0.00     0.030 A 
HETATM    2  C4  UNL     1      25.963  44.159  48.259  1.00  0.00     0.081 A 
HETATM    3  C6  UNL     1      27.259  44.339  48.729  1.00  0.00     0.048 A 
HETATM    4  C7  UNL     1      28.033  45.345  48.200  1.00  0.00    -0.016 A 
HETATM    5  C8  UNL     1      27.520  46.154  47.220  1.00  0.00    -0.006 A 
HETATM    6  C9  UNL     1      26.237  45.990  46.743  1.00  0.00     0.086 A 
HETATM    7  C10 UNL     1      28.613  47.119  46.860  1.00  0.00     0.072 C 
HETATM    8  C20 UNL     1      29.336  47.268  48.153  1.00  0.00     0.133 C 
HETATM    9  C22 UNL     1      29.457  45.775  48.529  1.00  0.00     0.167 C 
ENDROOT
BRANCH   7  10
HETATM   10  C11 UNL     1      28.149  48.358  46.257  1.00  0.00    -0.043 A 
HETATM   11  C12 UNL     1      28.252  48.510  44.888  1.00  0.00     0.047 A 
HETATM   12  C13 UNL     1      27.837  49.653  44.230  1.00  0.00     0.104 A 
HETATM   13  C15 UNL     1      27.301  50.676  44.995  1.00  0.00     0.135 A 
HETATM   14  C17 UNL     1      27.178  50.571  46.363  1.00  0.00     0.104 A 
HETATM   15  C19 UNL     1      27.605  49.414  46.970  1.00  0.00     0.047 A 
BRANCH  12  16
HETATM   16  O3  UNL     1      27.945  49.791  42.867  1.00  0.00    -0.353 OA
HETATM   17  C14 UNL     1      27.004  49.317  41.942  1.00  0.00     0.210 C 
ENDBRANCH  12  16
BRANCH  13  18
HETATM   18  O4  UNL     1      26.877  51.838  44.347  1.00  0.00    -0.351 OA
HETATM   19  C16 UNL     1      25.537  52.038  43.957  1.00  0.00     0.210 C 
ENDBRANCH  13  18
BRANCH  14  20
HETATM   20  O5  UNL     1      26.636  51.619  47.084  1.00  0.00    -0.353 OA
HETATM   21  C18 UNL     1      25.360  51.429  47.694  1.00  0.00     0.210 C 
ENDBRANCH  14  20
ENDBRANCH   7  10
BRANCH   8  22
HETATM   22  C21 UNL     1      30.681  47.872  48.011  1.00  0.00     0.180 C 
HETATM   23  O6  UNL     1      31.203  48.544  48.915  1.00  0.00    -0.648 OA
HETATM   24  O7  UNL     1      31.366  47.673  46.829  1.00  0.00    -0.648 OA
ENDBRANCH   8  22
BRANCH   6  25
HETATM   25  O2  UNL     1      25.766  46.809  45.776  1.00  0.00    -0.359 OA
ATOM     26  H2  UNL     1      26.349  47.237  45.161  1.00  0.00     0.217 HD
ENDBRANCH   6  25
BRANCH   9  27
HETATM   27  O8  UNL     1      30.273  45.142  47.614  1.00  0.00    -0.390 OA
ATOM     28  H8  UNL     1      30.973  44.740  48.115  1.00  0.00     0.210 HD
ENDBRANCH   9  27
BRANCH   1  29
HETATM   29  C2  UNL     1      24.110  44.857  46.766  1.00  0.00     0.007 C 
HETATM   30  C1  UNL     1      23.715  44.064  45.802  1.00  0.00     0.012 C 
ENDBRANCH   1  29
BRANCH   2  31
HETATM   31  O1  UNL     1      25.183  43.147  48.787  1.00  0.00    -0.355 OA
HETATM   32  C5  UNL     1      25.676  41.825  48.763  1.00  0.00     0.210 C 
ENDBRANCH   2  31
TORSDOF 9
ENDMDL
MODEL 2
REMARK VINA RESULT: -6.241104603      2.923      6.607
REMARK  9 active torsions:
REMARK  status: ('A' for Active; 'I' for Inactive)
REMARK    1  A    between atoms: C2_2  and  C3_3 
REMARK    2  A    between atoms: C4_4  and  O1_5 
REMARK    3  A    between atoms: C9_10  and  O2_11 
REMARK    4  A    between atoms: C10_13  and  C11_14 
REMARK    5  A    between atoms: C13_16  and  O3_17 
REMARK    6  A    between atoms: C15_19  and  O4_20 
REMARK    7  A    between atoms: C17_22  and  O5_23 
REMARK    8  A    between atoms: C20_26  and  C21_27 
REMARK    9  A    between atoms: C22_30  and  O8_31 
ROOT
HETATM    1  C3  UNL     1      31.486  52.152  45.814  1.00  0.00     0.030 A 
HETATM    2  C4  UNL     1      32.692  51.711  46.283  1.00  0.00     0.081 A 
HETATM    3  C6  UNL     1      32.811  50.464  46.888  1.00  0.00     0.048 A 
HETATM    4  C7  UNL     1      31.697  49.668  47.014  1.00  0.00    -0.016 A 
HETATM    5  C8  UNL     1      30.488  50.110  46.546  1.00  0.00    -0.006 A 
HETATM    6  C9  UNL     1      30.352  51.343  45.943  1.00  0.00     0.086 A 
HETATM    7  C10 UNL     1      29.498  49.023  46.852  1.00  0.00     0.072 C 
HETATM    8  C20 UNL     1      30.341  47.799  46.760  1.00  0.00     0.133 C 
HETATM    9  C22 UNL     1      31.539  48.274  47.610  1.00  0.00     0.167 C 
ENDROOT
BRANCH   7  10
HETATM   10  C11 UNL     1      28.314  49.030  46.009  1.00  0.00    -0.043 A 
HETATM   11  C12 UNL     1      27.091  49.316  46.584  1.00  0.00     0.047 A 
HETATM   12  C13 UNL     1      25.913  49.344  45.860  1.00  0.00     0.104 A 
HETATM   13  C15 UNL     1      25.986  49.072  44.503  1.00  0.00     0.135 A 
HETATM   14  C17 UNL     1      27.183  48.783  43.885  1.00  0.00     0.104 A 
HETATM   15  C19 UNL     1      28.325  48.767  44.649  1.00  0.00     0.047 A 
BRANCH  12  16
HETATM   16  O3  UNL     1      24.702  49.629  46.445  1.00  0.00    -0.353 OA
HETATM   17  C14 UNL     1      24.330  50.890  46.932  1.00  0.00     0.210 C 
ENDBRANCH  12  16
BRANCH  13  18
HETATM   18  O4  UNL     1      24.806  49.097  43.757  1.00  0.00    -0.351 OA
HETATM   19  C16 UNL     1      24.302  50.282  43.182  1.00  0.00     0.210 C 
ENDBRANCH  13  18
BRANCH  14  20
HETATM   20  O5  UNL     1      27.205  48.518  42.528  1.00  0.00    -0.353 OA
HETATM   21  C18 UNL     1      27.575  49.574  41.641  1.00  0.00     0.210 C 
ENDBRANCH  14  20
ENDBRANCH   7  10
BRANCH   8  22
HETATM   22  C21 UNL     1      29.716  46.606  47.378  1.00  0.00     0.180 C 
HETATM   23  O6  UNL     1      29.973  45.453  46.995  1.00  0.00    -0.648 OA
HETATM   24  O7  UNL     1      28.821  46.796  48.411  1.00  0.00    -0.648 OA
ENDBRANCH   8  22
BRANCH   6  25
HETATM   25  O2  UNL     1      29.142  51.743  45.492  1.00  0.00    -0.359 OA
ATOM     26  H2  UNL     1      28.373  51.193  45.576  1.00  0.00     0.217 HD
ENDBRANCH   6  25
BRANCH   9  27
HETATM   27  O8  UNL     1      31.128  48.455  48.914  1.00  0.00    -0.390 OA
ATOM     28  H8  UNL     1      31.019  47.586  49.281  1.00  0.00     0.210 HD
ENDBRANCH   9  27
BRANCH   1  29
HETATM   29  C2  UNL     1      31.291  53.417  45.154  1.00  0.00     0.007 C 
HETATM   30  C1  UNL     1      31.086  54.570  45.737  1.00  0.00     0.012 C 
ENDBRANCH   1  29
BRANCH   2  31
HETATM   31  O1  UNL     1      33.808  52.515  46.157  1.00  0.00    -0.355 OA
HETATM   32  C5  UNL     1      35.027  52.081  46.720  1.00  0.00     0.210 C 
ENDBRANCH   2  31
TORSDOF 9
ENDMDL
MODEL 3
REMARK VINA RESULT: -6.232755011      0.439      2.264
REMARK  9 active torsions:
REMARK  status: ('A' for Active; 'I' for Inactive)
REMARK    1  A    between atoms: C2_2  and  C3_3 
REMARK    2  A    between atoms: C4_4  and  O1_5 
REMARK    3  A    between atoms: C9_10  and  O2_11 
REMARK    4  A    between atoms: C10_13  and  C11_14 
REMARK    5  A    between atoms: C13_16  and  O3_17 
REMARK    6  A    between atoms: C15_19  and  O4_20 
REMARK    7  A    between atoms: C17_22  and  O5_23 
REMARK    8  A    between atoms: C20_26  and  C21_27 
REMARK    9  A    between atoms: C22_30  and  O8_31 
ROOT
HETATM    1  C3  UNL     1      25.455  44.977  47.299  1.00  0.00     0.030 A 
HETATM    2  C4  UNL     1      25.941  44.226  48.333  1.00  0.00     0.081 A 
HETATM    3  C6  UNL     1      27.231  44.420  48.814  1.00  0.00     0.048 A 
HETATM    4  C7  UNL     1      28.027  45.382  48.237  1.00  0.00    -0.016 A 
HETATM    5  C8  UNL     1      27.542  46.134  47.200  1.00  0.00    -0.006 A 
HETATM    6  C9  UNL     1      26.265  45.956  46.712  1.00  0.00     0.086 A 
HETATM    7  C10 UNL     1      28.653  47.062  46.801  1.00  0.00     0.072 C 
HETATM    8  C20 UNL     1      29.355  47.282  48.095  1.00  0.00     0.133 C 
HETATM    9  C22 UNL     1      29.451  45.815  48.565  1.00  0.00     0.167 C 
ENDROOT
BRANCH   7  10
HETATM   10  C11 UNL     1      28.216  48.266  46.114  1.00  0.00    -0.043 A 
HETATM   11  C12 UNL     1      27.692  49.303  46.861  1.00  0.00     0.047 A 
HETATM   12  C13 UNL     1      27.251  50.484  46.293  1.00  0.00     0.104 A 
HETATM   13  C15 UNL     1      27.348  50.611  44.917  1.00  0.00     0.135 A 
HETATM   14  C17 UNL     1      27.864  49.604  44.131  1.00  0.00     0.104 A 
HETATM   15  C19 UNL     1      28.289  48.450  44.743  1.00  0.00     0.047 A 
BRANCH  12  16
HETATM   16  O3  UNL     1      26.731  51.509  47.048  1.00  0.00    -0.353 OA
HETATM   17  C14 UNL     1      27.487  52.354  47.872  1.00  0.00     0.210 C 
ENDBRANCH  12  16
BRANCH  13  18
HETATM   18  O4  UNL     1      26.907  51.797  44.327  1.00  0.00    -0.351 OA
HETATM   19  C16 UNL     1      25.565  51.994  43.941  1.00  0.00     0.210 C 
ENDBRANCH  13  18
BRANCH  14  20
HETATM   20  O5  UNL     1      27.941  49.777  42.761  1.00  0.00    -0.353 OA
HETATM   21  C18 UNL     1      26.918  49.200  41.950  1.00  0.00     0.210 C 
ENDBRANCH  14  20
ENDBRANCH   7  10
BRANCH   8  22
HETATM   22  C21 UNL     1      30.711  47.860  47.940  1.00  0.00     0.180 C 
HETATM   23  O6  UNL     1      31.275  48.477  48.857  1.00  0.00    -0.648 OA
HETATM   24  O7  UNL     1      31.356  47.700  46.730  1.00  0.00    -0.648 OA
ENDBRANCH   8  22
BRANCH   6  25
HETATM   25  O2  UNL     1      25.822  46.718  45.687  1.00  0.00    -0.359 OA
ATOM     26  H2  UNL     1      26.411  47.270  45.187  1.00  0.00     0.217 HD
ENDBRANCH   6  25
BRANCH   9  27
HETATM   27  O8  UNL     1      30.274  45.116  47.706  1.00  0.00    -0.390 OA
ATOM     28  H8  UNL     1      30.062  45.418  46.830  1.00  0.00     0.210 HD
ENDBRANCH   9  27
BRANCH   1  29
HETATM   29  C2  UNL     1      24.123  44.852  46.767  1.00  0.00     0.007 C 
HETATM   30  C1  UNL     1      23.732  43.997  45.857  1.00  0.00     0.012 C 
ENDBRANCH   1  29
BRANCH   2  31
HETATM   31  O1  UNL     1      25.139  43.259  48.908  1.00  0.00    -0.355 OA
HETATM   32  C5  UNL     1      25.555  41.911  48.857  1.00  0.00     0.210 C 
ENDBRANCH   2  31
TORSDOF 9
ENDMDL
MODEL 4
REMARK VINA RESULT: -6.144296300      2.976      6.266
REMARK  9 active torsions:
REMARK  status: ('A' for Active; 'I' for Inactive)
REMARK    1  A    between atoms: C2_2  and  C3_3 
REMARK    2  A    between atoms: C4_4  and  O1_5 
REMARK    3  A    between atoms: C9_10  and  O2_11 
REMARK    4  A    between atoms: C10_13  and  C11_14 
REMARK    5  A    between atoms: C13_16  and  O3_17 
REMARK    6  A    between atoms: C15_19  and  O4_20 
REMARK    7  A    between atoms: C17_22  and  O5_23 
REMARK    8  A    between atoms: C20_26  and  C21_27 
REMARK    9  A    between atoms: C22_30  and  O8_31 
ROOT
HETATM    1  C3  UNL     1      31.472  52.163  45.797  1.00  0.00     0.030 A 
HETATM    2  C4  UNL     1      32.687  51.705  46.223  1.00  0.00     0.081 A 
HETATM    3  C6  UNL     1      32.813  50.454  46.816  1.00  0.00     0.048 A 
HETATM    4  C7  UNL     1      31.694  49.668  46.974  1.00  0.00    -0.016 A 
HETATM    5  C8  UNL     1      30.476  50.127  46.548  1.00  0.00    -0.006 A 
HETATM    6  C9  UNL     1      30.334  51.365  45.957  1.00  0.00     0.086 A 
HETATM    7  C10 UNL     1      29.484  49.049  46.879  1.00  0.00     0.072 C 
HETATM    8  C20 UNL     1      30.310  47.816  46.752  1.00  0.00     0.133 C 
HETATM    9  C22 UNL     1      31.541  48.272  47.565  1.00  0.00     0.167 C 
ENDROOT
BRANCH   7  10
HETATM   10  C11 UNL     1      28.273  49.075  46.075  1.00  0.00    -0.043 A 
HETATM   11  C12 UNL     1      28.370  48.828  44.720  1.00  0.00     0.047 A 
HETATM   12  C13 UNL     1      27.272  48.833  43.879  1.00  0.00     0.104 A 
HETATM   13  C15 UNL     1      26.034  49.100  44.441  1.00  0.00     0.135 A 
HETATM   14  C17 UNL     1      25.888  49.352  45.787  1.00  0.00     0.104 A 
HETATM   15  C19 UNL     1      27.010  49.335  46.581  1.00  0.00     0.047 A 
BRANCH  12  16
HETATM   16  O3  UNL     1      27.383  48.586  42.532  1.00  0.00    -0.353 OA
HETATM   17  C14 UNL     1      27.607  49.569  41.557  1.00  0.00     0.210 C 
ENDBRANCH  12  16
BRANCH  13  18
HETATM   18  O4  UNL     1      24.915  49.109  43.606  1.00  0.00    -0.351 OA
HETATM   19  C16 UNL     1      24.373  50.302  43.084  1.00  0.00     0.210 C 
ENDBRANCH  13  18
BRANCH  14  20
HETATM   20  O5  UNL     1      24.631  49.612  46.302  1.00  0.00    -0.353 OA
HETATM   21  C18 UNL     1      23.972  48.577  47.031  1.00  0.00     0.210 C 
ENDBRANCH  14  20
ENDBRANCH   7  10
BRANCH   8  22
HETATM   22  C21 UNL     1      29.692  46.626  47.382  1.00  0.00     0.180 C 
HETATM   23  O6  UNL     1      29.925  45.473  46.985  1.00  0.00    -0.648 OA
HETATM   24  O7  UNL     1      28.833  46.819  48.445  1.00  0.00    -0.648 OA
ENDBRANCH   8  22
BRANCH   6  25
HETATM   25  O2  UNL     1      29.114  51.782  45.549  1.00  0.00    -0.359 OA
ATOM     26  H2  UNL     1      28.395  51.174  45.431  1.00  0.00     0.217 HD
ENDBRANCH   6  25
BRANCH   9  27
HETATM   27  O8  UNL     1      31.175  48.449  48.883  1.00  0.00    -0.390 OA
ATOM     28  H8  UNL     1      31.128  47.581  49.265  1.00  0.00     0.210 HD
ENDBRANCH   9  27
BRANCH   1  29
HETATM   29  C2  UNL     1      31.269  53.435  45.152  1.00  0.00     0.007 C 
HETATM   30  C1  UNL     1      31.123  54.590  45.749  1.00  0.00     0.012 C 
ENDBRANCH   1  29
BRANCH   2  31
HETATM   31  O1  UNL     1      33.808  52.498  46.066  1.00  0.00    -0.355 OA
HETATM   32  C5  UNL     1      35.012  52.107  46.690  1.00  0.00     0.210 C 
ENDBRANCH   2  31
TORSDOF 9
ENDMDL
MODEL 5
REMARK VINA RESULT: -6.048067473      3.049      6.800
REMARK  9 active torsions:
REMARK  status: ('A' for Active; 'I' for Inactive)
REMARK    1  A    between atoms: C2_2  and  C3_3 
REMARK    2  A    between atoms: C4_4  and  O1_5 
REMARK    3  A    between atoms: C9_10  and  O2_11 
REMARK    4  A    between atoms: C10_13  and  C11_14 
REMARK    5  A    between atoms: C13_16  and  O3_17 
REMARK    6  A    between atoms: C15_19  and  O4_20 
REMARK    7  A    between atoms: C17_22  and  O5_23 
REMARK    8  A    between atoms: C20_26  and  C21_27 
REMARK    9  A    between atoms: C22_30  and  O8_31 
ROOT
HETATM    1  C3  UNL     1      31.084  52.255  45.689  1.00  0.00     0.030 A 
HETATM    2  C4  UNL     1      32.405  51.919  45.795  1.00  0.00     0.081 A 
HETATM    3  C6  UNL     1      32.792  50.711  46.365  1.00  0.00     0.048 A 
HETATM    4  C7  UNL     1      31.829  49.845  46.827  1.00  0.00    -0.016 A 
HETATM    5  C8  UNL     1      30.505  50.182  46.722  1.00  0.00    -0.006 A 
HETATM    6  C9  UNL     1      30.103  51.375  46.159  1.00  0.00     0.086 A 
HETATM    7  C10 UNL     1      29.735  49.043  47.326  1.00  0.00     0.072 C 
HETATM    8  C20 UNL     1      30.609  47.878  47.019  1.00  0.00     0.133 C 
HETATM    9  C22 UNL     1      31.961  48.470  47.472  1.00  0.00     0.167 C 
ENDROOT
BRANCH   7  10
HETATM   10  C11 UNL     1      28.361  48.932  46.865  1.00  0.00    -0.043 A 
HETATM   11  C12 UNL     1      27.341  49.293  47.723  1.00  0.00     0.047 A 
HETATM   12  C13 UNL     1      26.006  49.219  47.370  1.00  0.00     0.104 A 
HETATM   13  C15 UNL     1      25.702  48.761  46.098  1.00  0.00     0.135 A 
HETATM   14  C17 UNL     1      26.685  48.390  45.207  1.00  0.00     0.104 A 
HETATM   15  C19 UNL     1      27.997  48.482  45.606  1.00  0.00     0.047 A 
BRANCH  12  16
HETATM   16  O3  UNL     1      25.000  49.582  48.234  1.00  0.00    -0.353 OA
HETATM   17  C14 UNL     1      24.875  49.115  49.551  1.00  0.00     0.210 C 
ENDBRANCH  12  16
BRANCH  13  18
HETATM   18  O4  UNL     1      24.359  48.681  45.725  1.00  0.00    -0.351 OA
HETATM   19  C16 UNL     1      23.576  47.534  45.970  1.00  0.00     0.210 C 
ENDBRANCH  13  18
BRANCH  14  20
HETATM   20  O5  UNL     1      26.332  47.939  43.949  1.00  0.00    -0.353 OA
HETATM   21  C18 UNL     1      26.407  46.537  43.689  1.00  0.00     0.210 C 
ENDBRANCH  14  20
ENDBRANCH   7  10
BRANCH   8  22
HETATM   22  C21 UNL     1      30.286  46.671  47.816  1.00  0.00     0.180 C 
HETATM   23  O6  UNL     1      30.490  45.524  47.390  1.00  0.00    -0.648 OA
HETATM   24  O7  UNL     1      29.739  46.844  49.072  1.00  0.00    -0.648 OA
ENDBRANCH   8  22
BRANCH   6  25
HETATM   25  O2  UNL     1      28.787  51.671  46.072  1.00  0.00    -0.359 OA
ATOM     26  H2  UNL     1      28.402  52.377  46.577  1.00  0.00     0.217 HD
ENDBRANCH   6  25
BRANCH   9  27
HETATM   27  O8  UNL     1      31.931  48.679  48.835  1.00  0.00    -0.390 OA
ATOM     28  H8  UNL     1      32.012  47.822  49.237  1.00  0.00     0.210 HD
ENDBRANCH   9  27
BRANCH   1  29
HETATM   29  C2  UNL     1      30.608  53.474  45.088  1.00  0.00     0.007 C 
HETATM   30  C1  UNL     1      30.552  54.648  45.662  1.00  0.00     0.012 C 
ENDBRANCH   1  29
BRANCH   2  31
HETATM   31  O1  UNL     1      33.370  52.793  45.333  1.00  0.00    -0.355 OA
HETATM   32  C5  UNL     1      34.313  53.312  46.246  1.00  0.00     0.210 C 
ENDBRANCH   2  31
TORSDOF 9
ENDMDL
