MODEL 1
REMARK VINA RESULT: -8.461164984      0.000      0.000
REMARK  6 active torsions:
REMARK  status: ('A' for Active; 'I' for Inactive)
REMARK    1  A    between atoms: C2_2  and  N1_3 
REMARK    2  A    between atoms: N1_3  and  C3_5 
REMARK    3  A    between atoms: C5_7  and  N2_8 
REMARK    4  A    between atoms: C6_11  and  S1_12 
REMARK    5  A    between atoms: S1_12  and  C7_13 
REMARK    6  A    between atoms: C10_21  and  N5_22 
ROOT
HETATM    1  C7  UNL     1      31.768   7.671  25.223  1.00  0.00     0.088 A 
HETATM    2  C8  UNL     1      31.777   6.759  26.245  1.00  0.00     0.125 A 
HETATM    3 CL1  UNL     1      32.245   5.090  26.034  1.00  0.00    -0.063 Cl
HETATM    4  N3  UNL     1      31.344   7.176  27.476  1.00  0.00    -0.342 N 
ATOM      5  H3  UNL     1      31.343   6.512  28.251  1.00  0.00     0.167 HD
HETATM    6  C9  UNL     1      30.921   8.430  27.695  1.00  0.00     0.183 A 
HETATM    7  N4  UNL     1      30.918   9.305  26.683  1.00  0.00    -0.337 N 
ATOM      8  H4  UNL     1      30.593  10.255  26.862  1.00  0.00     0.168 HD
HETATM    9  C10 UNL     1      31.329   8.984  25.427  1.00  0.00     0.124 A 
ENDROOT
BRANCH   1  10
HETATM   10  S1  UNL     1      32.306   7.251  23.601  1.00  0.00    -0.080 SA
BRANCH  10  11
HETATM   11  C6  UNL     1      33.908   6.535  23.441  1.00  0.00     0.047 A 
HETATM   12  C5  UNL     1      34.293   5.773  22.362  1.00  0.00     0.048 A 
HETATM   13  C4  UNL     1      35.601   5.263  22.291  1.00  0.00     0.078 A 
HETATM   14  C3  UNL     1      36.537   5.495  23.267  1.00  0.00     0.102 A 
HETATM   15  N6  UNL     1      36.149   6.243  24.315  1.00  0.00    -0.351 N 
HETATM   16  C18 UNL     1      34.909   6.736  24.401  1.00  0.00     0.111 A 
ATOM     17  H6  UNL     1      36.815   6.438  25.062  1.00  0.00     0.166 HD
BRANCH  12  18
HETATM   18  N2  UNL     1      33.510   5.540  21.382  1.00  0.00    -0.398 N 
ATOM     19  H22 UNL     1      32.684   4.949  21.477  1.00  0.00     0.156 HD
ATOM     20  H21 UNL     1      33.714   5.994  20.492  1.00  0.00     0.156 HD
ENDBRANCH  12  18
BRANCH  14  21
HETATM   21  N1  UNL     1      37.849   4.971  23.175  1.00  0.00    -0.377 N 
ATOM     22  H1  UNL     1      38.604   5.578  22.856  1.00  0.00     0.161 HD
BRANCH  21  23
HETATM   23  C2  UNL     1      38.147   3.614  23.518  1.00  0.00     0.116 C 
HETATM   24  C1  UNL     1      38.372   3.435  24.998  1.00  0.00     0.026 C 
ENDBRANCH  21  23
ENDBRANCH  14  21
ENDBRANCH  10  11
ENDBRANCH   1  10
BRANCH   9  25
HETATM   25  N5  UNL     1      31.282   9.950  24.396  1.00  0.00    -0.365 N 
HETATM   26  C11 UNL     1      30.131  10.447  23.700  1.00  0.00     0.125 C 
HETATM   27  C12 UNL     1      30.344  11.944  23.741  1.00  0.00     0.031 C 
HETATM   28  C13 UNL     1      31.844  12.059  23.685  1.00  0.00    -0.023 C 
HETATM   29  C14 UNL     1      32.372  12.827  22.514  1.00  0.00     0.011 C 
HETATM   30  C16 UNL     1      32.397  13.096  24.613  1.00  0.00     0.011 C 
HETATM   31  C17 UNL     1      32.413  10.667  23.862  1.00  0.00     0.134 C 
HETATM   32  C15 UNL     1      33.039  13.780  23.447  1.00  0.00     0.002 C 
ENDBRANCH   9  25
TORSDOF 6
ENDMDL
MODEL 2
REMARK VINA RESULT: -8.178437699      0.979      1.311
REMARK  6 active torsions:
REMARK  status: ('A' for Active; 'I' for Inactive)
REMARK    1  A    between atoms: C2_2  and  N1_3 
REMARK    2  A    between atoms: N1_3  and  C3_5 
REMARK    3  A    between atoms: C5_7  and  N2_8 
REMARK    4  A    between atoms: C6_11  and  S1_12 
REMARK    5  A    between atoms: S1_12  and  C7_13 
REMARK    6  A    between atoms: C10_21  and  N5_22 
ROOT
HETATM    1  C7  UNL     1      31.500   7.882  25.435  1.00  0.00     0.088 A 
HETATM    2  C8  UNL     1      31.466   7.064  26.532  1.00  0.00     0.125 A 
HETATM    3 CL1  UNL     1      31.891   5.371  26.475  1.00  0.00    -0.063 Cl
HETATM    4  N3  UNL     1      31.026   7.597  27.715  1.00  0.00    -0.342 N 
ATOM      5  H3  UNL     1      30.995   7.003  28.544  1.00  0.00     0.167 HD
HETATM    6  C9  UNL     1      30.634   8.877  27.817  1.00  0.00     0.183 A 
HETATM    7  N4  UNL     1      30.672   9.660  26.732  1.00  0.00    -0.337 N 
ATOM      8  H4  UNL     1      30.371  10.630  26.822  1.00  0.00     0.168 HD
HETATM    9  C10 UNL     1      31.094   9.220  25.516  1.00  0.00     0.124 A 
ENDROOT
BRANCH   1  10
HETATM   10  S1  UNL     1      32.050   7.309  23.866  1.00  0.00    -0.080 SA
BRANCH  10  11
HETATM   11  C6  UNL     1      33.599   6.469  23.811  1.00  0.00     0.047 A 
HETATM   12  C5  UNL     1      34.806   7.091  24.032  1.00  0.00     0.048 A 
HETATM   13  C4  UNL     1      35.998   6.346  24.004  1.00  0.00     0.078 A 
HETATM   14  C3  UNL     1      36.017   4.995  23.764  1.00  0.00     0.102 A 
HETATM   15  N6  UNL     1      34.830   4.399  23.552  1.00  0.00    -0.351 N 
HETATM   16  C18 UNL     1      33.687   5.091  23.574  1.00  0.00     0.111 A 
ATOM     17  H6  UNL     1      34.802   3.395  23.370  1.00  0.00     0.166 HD
BRANCH  12  18
HETATM   18  N2  UNL     1      34.889   8.334  24.308  1.00  0.00    -0.398 N 
ATOM     19  H22 UNL     1      35.375   8.674  25.138  1.00  0.00     0.156 HD
ATOM     20  H21 UNL     1      34.480   8.996  23.649  1.00  0.00     0.156 HD
ENDBRANCH  12  18
BRANCH  14  21
HETATM   21  N1  UNL     1      37.229   4.264  23.740  1.00  0.00    -0.377 N 
ATOM     22  H1  UNL     1      38.005   4.608  23.175  1.00  0.00     0.161 HD
BRANCH  21  23
HETATM   23  C2  UNL     1      37.397   3.055  24.487  1.00  0.00     0.116 C 
HETATM   24  C1  UNL     1      38.533   3.146  25.474  1.00  0.00     0.026 C 
ENDBRANCH  21  23
ENDBRANCH  14  21
ENDBRANCH  10  11
ENDBRANCH   1  10
BRANCH   9  25
HETATM   25  N5  UNL     1      31.089  10.093  24.405  1.00  0.00    -0.365 N 
HETATM   26  C11 UNL     1      29.965  10.550  23.641  1.00  0.00     0.125 C 
HETATM   27  C12 UNL     1      30.209  12.040  23.557  1.00  0.00     0.031 C 
HETATM   28  C13 UNL     1      31.712  12.120  23.527  1.00  0.00    -0.023 C 
HETATM   29  C14 UNL     1      32.281  12.774  22.307  1.00  0.00     0.011 C 
HETATM   30  C16 UNL     1      32.266  13.224  24.375  1.00  0.00     0.011 C 
HETATM   31  C17 UNL     1      32.247  10.739  23.838  1.00  0.00     0.134 C 
HETATM   32  C15 UNL     1      32.948  13.792  23.170  1.00  0.00     0.002 C 
ENDBRANCH   9  25
TORSDOF 6
ENDMDL
MODEL 3
REMARK VINA RESULT: -8.112466978      2.888      8.628
REMARK  6 active torsions:
REMARK  status: ('A' for Active; 'I' for Inactive)
REMARK    1  A    between atoms: C2_2  and  N1_3 
REMARK    2  A    between atoms: N1_3  and  C3_5 
REMARK    3  A    between atoms: C5_7  and  N2_8 
REMARK    4  A    between atoms: C6_11  and  S1_12 
REMARK    5  A    between atoms: S1_12  and  C7_13 
REMARK    6  A    between atoms: C10_21  and  N5_22 
ROOT
HETATM    1  C7  UNL     1      35.561   4.592  23.726  1.00  0.00     0.088 A 
HETATM    2  C8  UNL     1      36.174   5.390  22.798  1.00  0.00     0.125 A 
HETATM    3 CL1  UNL     1      35.306   6.509  21.777  1.00  0.00    -0.063 Cl
HETATM    4  N3  UNL     1      37.528   5.257  22.636  1.00  0.00    -0.342 N 
ATOM      5  H3  UNL     1      38.003   5.844  21.949  1.00  0.00     0.167 HD
HETATM    6  C9  UNL     1      38.248   4.379  23.350  1.00  0.00     0.183 A 
HETATM    7  N4  UNL     1      37.630   3.606  24.250  1.00  0.00    -0.337 N 
ATOM      8  H4  UNL     1      38.188   2.942  24.786  1.00  0.00     0.168 HD
HETATM    9  C10 UNL     1      36.291   3.667  24.482  1.00  0.00     0.124 A 
ENDROOT
BRANCH   1  10
HETATM   10  S1  UNL     1      33.829   4.677  24.026  1.00  0.00    -0.080 SA
BRANCH  10  11
HETATM   11  C6  UNL     1      33.165   6.246  24.476  1.00  0.00     0.047 A 
HETATM   12  C5  UNL     1      33.580   6.956  25.580  1.00  0.00     0.048 A 
HETATM   13  C4  UNL     1      33.025   8.217  25.856  1.00  0.00     0.078 A 
HETATM   14  C3  UNL     1      32.067   8.792  25.058  1.00  0.00     0.102 A 
HETATM   15  N6  UNL     1      31.672   8.089  23.981  1.00  0.00    -0.351 N 
HETATM   16  C18 UNL     1      32.188   6.888  23.704  1.00  0.00     0.111 A 
ATOM     17  H6  UNL     1      30.963   8.482  23.363  1.00  0.00     0.166 HD
BRANCH  12  18
HETATM   18  N2  UNL     1      34.496   6.527  26.358  1.00  0.00    -0.398 N 
ATOM     19  H22 UNL     1      34.827   7.069  27.156  1.00  0.00     0.156 HD
ATOM     20  H21 UNL     1      34.874   5.597  26.179  1.00  0.00     0.156 HD
ENDBRANCH  12  18
BRANCH  14  21
HETATM   21  N1  UNL     1      31.521  10.064  25.354  1.00  0.00    -0.377 N 
ATOM     22  H1  UNL     1      32.142  10.808  25.673  1.00  0.00     0.161 HD
BRANCH  21  23
HETATM   23  C2  UNL     1      30.123  10.336  25.219  1.00  0.00     0.116 C 
HETATM   24  C1  UNL     1      29.805  11.078  23.946  1.00  0.00     0.026 C 
ENDBRANCH  21  23
ENDBRANCH  14  21
ENDBRANCH  10  11
ENDBRANCH   1  10
BRANCH   9  25
HETATM   25  N5  UNL     1      35.696   2.807  25.433  1.00  0.00    -0.365 N 
HETATM   26  C11 UNL     1      35.164   1.491  25.227  1.00  0.00     0.125 C 
HETATM   27  C12 UNL     1      35.776   0.708  26.368  1.00  0.00     0.031 C 
HETATM   28  C13 UNL     1      35.864   1.742  27.459  1.00  0.00    -0.023 C 
HETATM   29  C14 UNL     1      35.103   1.407  28.703  1.00  0.00     0.011 C 
HETATM   30  C16 UNL     1      37.146   1.685  28.231  1.00  0.00     0.011 C 
HETATM   31  C17 UNL     1      35.544   3.085  26.840  1.00  0.00     0.134 C 
HETATM   32  C15 UNL     1      36.365   1.490  29.493  1.00  0.00     0.002 C 
ENDBRANCH   9  25
TORSDOF 6
ENDMDL
MODEL 4
REMARK VINA RESULT: -8.070606783      2.078      7.216
REMARK  6 active torsions:
REMARK  status: ('A' for Active; 'I' for Inactive)
REMARK    1  A    between atoms: C2_2  and  N1_3 
REMARK    2  A    between atoms: N1_3  and  C3_5 
REMARK    3  A    between atoms: C5_7  and  N2_8 
REMARK    4  A    between atoms: C6_11  and  S1_12 
REMARK    5  A    between atoms: S1_12  and  C7_13 
REMARK    6  A    between atoms: C10_21  and  N5_22 
ROOT
HETATM    1  C7  UNL     1      33.250   5.712  25.689  1.00  0.00     0.088 A 
HETATM    2  C8  UNL     1      32.703   5.738  26.943  1.00  0.00     0.125 A 
HETATM    3 CL1  UNL     1      31.275   6.659  27.345  1.00  0.00    -0.063 Cl
HETATM    4  N3  UNL     1      33.346   5.046  27.935  1.00  0.00    -0.342 N 
ATOM      5  H3  UNL     1      32.953   5.052  28.877  1.00  0.00     0.167 HD
HETATM    6  C9  UNL     1      34.477   4.360  27.708  1.00  0.00     0.183 A 
HETATM    7  N4  UNL     1      34.997   4.349  26.475  1.00  0.00    -0.337 N 
ATOM      8  H4  UNL     1      35.858   3.826  26.315  1.00  0.00     0.168 HD
HETATM    9  C10 UNL     1      34.430   5.006  25.427  1.00  0.00     0.124 A 
ENDROOT
BRANCH   1  10
HETATM   10  S1  UNL     1      32.510   6.559  24.336  1.00  0.00    -0.080 SA
BRANCH  10  11
HETATM   11  C6  UNL     1      32.773   8.298  24.231  1.00  0.00     0.047 A 
HETATM   12  C5  UNL     1      31.773   9.227  24.413  1.00  0.00     0.048 A 
HETATM   13  C4  UNL     1      32.068  10.600  24.346  1.00  0.00     0.078 A 
HETATM   14  C3  UNL     1      33.334  11.072  24.106  1.00  0.00     0.102 A 
HETATM   15  N6  UNL     1      34.301  10.154  23.932  1.00  0.00    -0.351 N 
HETATM   16  C18 UNL     1      34.040   8.844  23.991  1.00  0.00     0.111 A 
ATOM     17  H6  UNL     1      35.256  10.463  23.751  1.00  0.00     0.166 HD
BRANCH  12  18
HETATM   18  N2  UNL     1      30.574   8.889  24.686  1.00  0.00    -0.398 N 
ATOM     19  H22 UNL     1      30.183   7.993  24.394  1.00  0.00     0.156 HD
ATOM     20  H21 UNL     1      30.014   9.533  25.245  1.00  0.00     0.156 HD
ENDBRANCH  12  18
BRANCH  14  21
HETATM   21  N1  UNL     1      33.609  12.459  24.043  1.00  0.00    -0.377 N 
ATOM     22  H1  UNL     1      34.498  12.805  24.403  1.00  0.00     0.161 HD
BRANCH  21  23
HETATM   23  C2  UNL     1      32.674  13.390  23.488  1.00  0.00     0.116 C 
HETATM   24  C1  UNL     1      32.318  13.060  22.060  1.00  0.00     0.026 C 
ENDBRANCH  21  23
ENDBRANCH  14  21
ENDBRANCH  10  11
ENDBRANCH   1  10
BRANCH   9  25
HETATM   25  N5  UNL     1      35.043   4.972  24.153  1.00  0.00    -0.365 N 
HETATM   26  C11 UNL     1      36.078   5.824  23.645  1.00  0.00     0.125 C 
HETATM   27  C12 UNL     1      37.052   4.833  23.045  1.00  0.00     0.031 C 
HETATM   28  C13 UNL     1      36.141   3.737  22.561  1.00  0.00    -0.023 C 
HETATM   29  C14 UNL     1      36.210   3.468  21.090  1.00  0.00     0.011 C 
HETATM   30  C16 UNL     1      36.667   2.362  22.835  1.00  0.00     0.011 C 
HETATM   31  C17 UNL     1      34.759   4.019  23.109  1.00  0.00     0.134 C 
HETATM   32  C15 UNL     1      36.598   2.056  21.372  1.00  0.00     0.002 C 
ENDBRANCH   9  25
TORSDOF 6
ENDMDL
MODEL 5
REMARK VINA RESULT: -7.976614300      2.737      7.707
REMARK  6 active torsions:
REMARK  status: ('A' for Active; 'I' for Inactive)
REMARK    1  A    between atoms: C2_2  and  N1_3 
REMARK    2  A    between atoms: N1_3  and  C3_5 
REMARK    3  A    between atoms: C5_7  and  N2_8 
REMARK    4  A    between atoms: C6_11  and  S1_12 
REMARK    5  A    between atoms: S1_12  and  C7_13 
REMARK    6  A    between atoms: C10_21  and  N5_22 
ROOT
HETATM    1  C7  UNL     1      33.751   5.143  26.243  1.00  0.00     0.088 A 
HETATM    2  C8  UNL     1      33.330   5.596  27.465  1.00  0.00     0.125 A 
HETATM    3 CL1  UNL     1      32.144   6.863  27.658  1.00  0.00    -0.063 Cl
HETATM    4  N3  UNL     1      33.912   5.057  28.581  1.00  0.00    -0.342 N 
ATOM      5  H3  UNL     1      33.611   5.381  29.501  1.00  0.00     0.167 HD
HETATM    6  C9  UNL     1      34.867   4.118  28.504  1.00  0.00     0.183 A 
HETATM    7  N4  UNL     1      35.267   3.690  27.301  1.00  0.00    -0.337 N 
ATOM      8  H4  UNL     1      35.994   2.977  27.255  1.00  0.00     0.168 HD
HETATM    9  C10 UNL     1      34.747   4.165  26.137  1.00  0.00     0.124 A 
ENDROOT
BRANCH   1  10
HETATM   10  S1  UNL     1      33.072   5.757  24.741  1.00  0.00    -0.080 SA
BRANCH  10  11
HETATM   11  C6  UNL     1      33.308   7.467  24.388  1.00  0.00     0.047 A 
HETATM   12  C5  UNL     1      32.280   8.383  24.357  1.00  0.00     0.048 A 
HETATM   13  C4  UNL     1      32.553   9.738  24.101  1.00  0.00     0.078 A 
HETATM   14  C3  UNL     1      33.824  10.205  23.876  1.00  0.00     0.102 A 
HETATM   15  N6  UNL     1      34.818   9.301  23.911  1.00  0.00    -0.351 N 
HETATM   16  C18 UNL     1      34.578   8.008  24.152  1.00  0.00     0.111 A 
ATOM     17  H6  UNL     1      35.777   9.608  23.749  1.00  0.00     0.166 HD
BRANCH  12  18
HETATM   18  N2  UNL     1      31.072   8.055  24.598  1.00  0.00    -0.398 N 
ATOM     19  H22 UNL     1      30.291   8.424  24.055  1.00  0.00     0.156 HD
ATOM     20  H21 UNL     1      30.902   7.375  25.339  1.00  0.00     0.156 HD
ENDBRANCH  12  18
BRANCH  14  21
HETATM   21  N1  UNL     1      34.075  11.574  23.619  1.00  0.00    -0.377 N 
ATOM     22  H1  UNL     1      35.011  11.946  23.783  1.00  0.00     0.161 HD
BRANCH  21  23
HETATM   23  C2  UNL     1      33.055  12.452  23.135  1.00  0.00     0.116 C 
HETATM   24  C1  UNL     1      33.010  13.753  23.897  1.00  0.00     0.026 C 
ENDBRANCH  21  23
ENDBRANCH  14  21
ENDBRANCH  10  11
ENDBRANCH   1  10
BRANCH   9  25
HETATM   25  N5  UNL     1      35.229   3.686  24.897  1.00  0.00    -0.365 N 
HETATM   26  C11 UNL     1      36.377   4.130  24.161  1.00  0.00     0.125 C 
HETATM   27  C12 UNL     1      37.061   2.829  23.805  1.00  0.00     0.031 C 
HETATM   28  C13 UNL     1      35.899   1.887  23.639  1.00  0.00    -0.023 C 
HETATM   29  C14 UNL     1      35.784   1.264  22.284  1.00  0.00     0.011 C 
HETATM   30  C16 UNL     1      36.138   0.536  24.239  1.00  0.00     0.011 C 
HETATM   31  C17 UNL     1      34.660   2.602  24.136  1.00  0.00     0.134 C 
HETATM   32  C15 UNL     1      35.882  -0.089  22.903  1.00  0.00     0.002 C 
ENDBRANCH   9  25
TORSDOF 6
ENDMDL
