MODEL 1
REMARK VINA RESULT: -7.265562871      0.000      0.000
REMARK  10 active torsions:
REMARK  status: ('A' for Active; 'I' for Inactive)
REMARK    1  A    between atoms: N1_1  and  N2_4 
REMARK    2  A    between atoms: N2_4  and  N3_5 
REMARK    3  A    between atoms: N3_5  and  C1_7 
REMARK    4  A    between atoms: C2_8  and  O1_9 
REMARK    5  A    between atoms: C4_12  and  O2_13 
REMARK    6  A    between atoms: C5_15  and  C6_16 
REMARK    7  A    between atoms: C6_16  and  C7_17 
REMARK    8  A    between atoms: C7_17  and  C8_18 
REMARK    9  A    between atoms: C8_18  and  N4_19 
REMARK   10  A    between atoms: N5_25  and  O3_27 
ROOT
HETATM    1  C1  UNL     1      35.641   5.742  19.723  1.00  0.00     0.114 A 
HETATM    2  C2  UNL     1      35.885   6.918  20.391  1.00  0.00     0.098 A 
HETATM    3  C3  UNL     1      35.779   7.011  21.755  1.00  0.00     0.076 A 
HETATM    4  C4  UNL     1      35.410   5.852  22.445  1.00  0.00     0.082 A 
HETATM    5  C5  UNL     1      35.154   4.642  21.841  1.00  0.00     0.041 A 
HETATM    6  C14 UNL     1      35.284   4.634  20.434  1.00  0.00     0.058 A 
HETATM    7 BR1  UNL     1      34.949   3.002  19.494  1.00  0.00    -0.047 Br
ENDROOT
BRANCH   5   8
HETATM    8  C6  UNL     1      34.828   3.410  22.529  1.00  0.00     0.048 C 
HETATM    9  N5  UNL     1      33.606   3.310  22.975  1.00  0.00    -0.272 N 
ATOM     10  H5  UNL     1      32.976   4.095  22.812  1.00  0.00     0.194 HD
BRANCH   8  11
HETATM   11  C7  UNL     1      35.701   2.274  22.654  1.00  0.00     0.080 C 
BRANCH  11  12
HETATM   12  C8  UNL     1      37.165   2.523  22.771  1.00  0.00     0.133 C 
BRANCH  12  13
HETATM   13  N4  UNL     1      37.550   2.294  24.127  1.00  0.00    -0.374 N 
HETATM   14  C9  UNL     1      38.522   3.115  24.673  1.00  0.00     0.063 C 
HETATM   15  C10 UNL     1      38.666   3.174  26.154  1.00  0.00     0.045 C 
HETATM   16  C11 UNL     1      37.437   2.648  26.847  1.00  0.00     0.010 C 
HETATM   17  C12 UNL     1      37.230   1.232  26.291  1.00  0.00     0.045 C 
HETATM   18  C13 UNL     1      36.761   1.435  24.875  1.00  0.00     0.063 C 
ENDBRANCH  12  13
ENDBRANCH  11  12
ENDBRANCH   8  11
BRANCH   9  19
HETATM   19  O3  UNL     1      33.117   2.240  23.640  1.00  0.00    -0.290 OA
ATOM     20  H3  UNL     1      32.970   2.208  24.578  1.00  0.00     0.244 HD
ENDBRANCH   9  19
ENDBRANCH   5   8
BRANCH   4  21
HETATM   21  O2  UNL     1      35.299   5.977  23.829  1.00  0.00    -0.360 OA
ATOM     22  H2  UNL     1      35.502   5.198  24.334  1.00  0.00     0.217 HD
ENDBRANCH   4  21
BRANCH   1  23
HETATM   23  N3  UNL     1      35.757   5.662  18.288  1.00  0.00    -0.213 N 
ATOM     24  H3  UNL     1      36.405   5.006  17.854  1.00  0.00     0.204 HD
BRANCH  23  25
HETATM   25  N2  UNL     1      35.048   6.411  17.590  1.00  0.00    -0.243 NA
BRANCH  25  26
HETATM   26  N1  UNL     1      34.266   7.234  17.146  1.00  0.00    -0.260 N 
ATOM     27  H12 UNL     1      34.841   8.002  17.493  1.00  0.00     0.193 HD
ATOM     28  H11 UNL     1      33.497   7.740  16.706  1.00  0.00     0.193 HD
ENDBRANCH  25  26
ENDBRANCH  23  25
ENDBRANCH   1  23
BRANCH   2  29
HETATM   29  O1  UNL     1      36.250   8.043  19.651  1.00  0.00    -0.358 OA
ATOM     30  H1  UNL     1      37.122   8.078  19.277  1.00  0.00     0.217 HD
ENDBRANCH   2  29
TORSDOF 10
ENDMDL
MODEL 2
REMARK VINA RESULT: -6.986782843      3.089      6.370
REMARK  10 active torsions:
REMARK  status: ('A' for Active; 'I' for Inactive)
REMARK    1  A    between atoms: N1_1  and  N2_4 
REMARK    2  A    between atoms: N2_4  and  N3_5 
REMARK    3  A    between atoms: N3_5  and  C1_7 
REMARK    4  A    between atoms: C2_8  and  O1_9 
REMARK    5  A    between atoms: C4_12  and  O2_13 
REMARK    6  A    between atoms: C5_15  and  C6_16 
REMARK    7  A    between atoms: C6_16  and  C7_17 
REMARK    8  A    between atoms: C7_17  and  C8_18 
REMARK    9  A    between atoms: C8_18  and  N4_19 
REMARK   10  A    between atoms: N5_25  and  O3_27 
ROOT
HETATM    1  C1  UNL     1      36.287   2.590  21.688  1.00  0.00     0.114 A 
HETATM    2  C2  UNL     1      35.547   2.031  20.674  1.00  0.00     0.098 A 
HETATM    3  C3  UNL     1      34.811   2.800  19.808  1.00  0.00     0.076 A 
HETATM    4  C4  UNL     1      34.844   4.185  20.000  1.00  0.00     0.082 A 
HETATM    5  C5  UNL     1      35.564   4.809  20.993  1.00  0.00     0.041 A 
HETATM    6  C14 UNL     1      36.293   3.945  21.841  1.00  0.00     0.058 A 
HETATM    7 BR1  UNL     1      37.328   4.710  23.256  1.00  0.00    -0.047 Br
ENDROOT
BRANCH   5   8
HETATM    8  C6  UNL     1      35.669   6.241  21.184  1.00  0.00     0.048 C 
HETATM    9  N5  UNL     1      36.154   6.918  20.180  1.00  0.00    -0.272 N 
ATOM     10  H5  UNL     1      36.422   6.399  19.343  1.00  0.00     0.194 HD
BRANCH   8  11
HETATM   11  C7  UNL     1      35.185   6.963  22.330  1.00  0.00     0.080 C 
BRANCH  11  12
HETATM   12  C8  UNL     1      33.921   6.500  22.969  1.00  0.00     0.133 C 
BRANCH  12  13
HETATM   13  N4  UNL     1      33.392   7.577  23.743  1.00  0.00    -0.374 N 
HETATM   14  C9  UNL     1      34.136   8.741  23.831  1.00  0.00     0.063 C 
HETATM   15  C10 UNL     1      33.467   9.994  24.279  1.00  0.00     0.045 C 
HETATM   16  C11 UNL     1      31.969   9.888  24.159  1.00  0.00     0.010 C 
HETATM   17  C12 UNL     1      31.582   8.642  24.969  1.00  0.00     0.045 C 
HETATM   18  C13 UNL     1      32.070   7.478  24.149  1.00  0.00     0.063 C 
ENDBRANCH  12  13
ENDBRANCH  11  12
ENDBRANCH   8  11
BRANCH   9  19
HETATM   19  O3  UNL     1      36.327   8.258  20.170  1.00  0.00    -0.290 OA
ATOM     20  H3  UNL     1      35.725   8.877  19.773  1.00  0.00     0.244 HD
ENDBRANCH   9  19
ENDBRANCH   5   8
BRANCH   4  21
HETATM   21  O2  UNL     1      34.079   4.941  19.113  1.00  0.00    -0.360 OA
ATOM     22  H2  UNL     1      34.555   5.579  18.594  1.00  0.00     0.217 HD
ENDBRANCH   4  21
BRANCH   1  23
HETATM   23  N3  UNL     1      37.054   1.766  22.590  1.00  0.00    -0.213 N 
ATOM     24  H3  UNL     1      38.053   1.928  22.719  1.00  0.00     0.204 HD
BRANCH  23  25
HETATM   25  N2  UNL     1      36.473   0.855  23.207  1.00  0.00    -0.243 NA
BRANCH  25  26
HETATM   26  N1  UNL     1      35.963  -0.184  23.591  1.00  0.00    -0.260 N 
ATOM     27  H12 UNL     1      36.865  -0.659  23.579  1.00  0.00     0.193 HD
ATOM     28  H11 UNL     1      35.344  -0.931  23.908  1.00  0.00     0.193 HD
ENDBRANCH  25  26
ENDBRANCH  23  25
ENDBRANCH   1  23
BRANCH   2  29
HETATM   29  O1  UNL     1      35.551   0.644  20.529  1.00  0.00    -0.358 OA
ATOM     30  H1  UNL     1      35.028   0.123  21.126  1.00  0.00     0.217 HD
ENDBRANCH   2  29
TORSDOF 10
ENDMDL
MODEL 3
REMARK VINA RESULT: -6.981484723      5.240      6.410
REMARK  10 active torsions:
REMARK  status: ('A' for Active; 'I' for Inactive)
REMARK    1  A    between atoms: N1_1  and  N2_4 
REMARK    2  A    between atoms: N2_4  and  N3_5 
REMARK    3  A    between atoms: N3_5  and  C1_7 
REMARK    4  A    between atoms: C2_8  and  O1_9 
REMARK    5  A    between atoms: C4_12  and  O2_13 
REMARK    6  A    between atoms: C5_15  and  C6_16 
REMARK    7  A    between atoms: C6_16  and  C7_17 
REMARK    8  A    between atoms: C7_17  and  C8_18 
REMARK    9  A    between atoms: C8_18  and  N4_19 
REMARK   10  A    between atoms: N5_25  and  O3_27 
ROOT
HETATM    1  C1  UNL     1      31.653  10.984  24.161  1.00  0.00     0.114 A 
HETATM    2  C2  UNL     1      32.428  12.047  23.765  1.00  0.00     0.098 A 
HETATM    3  C3  UNL     1      33.775  11.915  23.536  1.00  0.00     0.076 A 
HETATM    4  C4  UNL     1      34.331  10.647  23.724  1.00  0.00     0.082 A 
HETATM    5  C5  UNL     1      33.614   9.540  24.117  1.00  0.00     0.041 A 
HETATM    6  C14 UNL     1      32.235   9.762  24.332  1.00  0.00     0.058 A 
HETATM    7 BR1  UNL     1      31.146   8.290  24.883  1.00  0.00    -0.047 Br
ENDROOT
BRANCH   5   8
HETATM    8  C6  UNL     1      34.146   8.200  24.263  1.00  0.00     0.048 C 
HETATM    9  N5  UNL     1      34.437   7.830  25.480  1.00  0.00    -0.272 N 
ATOM     10  H5  UNL     1      34.272   8.501  26.231  1.00  0.00     0.194 HD
BRANCH   8  11
HETATM   11  C7  UNL     1      34.268   7.236  23.203  1.00  0.00     0.080 C 
BRANCH  11  12
HETATM   12  C8  UNL     1      35.483   7.289  22.342  1.00  0.00     0.133 C 
BRANCH  12  13
HETATM   13  N4  UNL     1      35.940   5.953  22.131  1.00  0.00    -0.374 N 
HETATM   14  C9  UNL     1      36.758   5.386  23.093  1.00  0.00     0.063 C 
HETATM   15  C10 UNL     1      36.929   3.907  23.114  1.00  0.00     0.045 C 
HETATM   16  C11 UNL     1      35.836   3.218  22.341  1.00  0.00     0.010 C 
HETATM   17  C12 UNL     1      35.877   3.835  20.936  1.00  0.00     0.045 C 
HETATM   18  C13 UNL     1      35.341   5.231  21.109  1.00  0.00     0.063 C 
ENDBRANCH  12  13
ENDBRANCH  11  12
ENDBRANCH   8  11
BRANCH   9  19
HETATM   19  O3  UNL     1      34.941   6.622  25.815  1.00  0.00    -0.290 OA
ATOM     20  H3  UNL     1      34.423   5.834  25.930  1.00  0.00     0.244 HD
ENDBRANCH   9  19
ENDBRANCH   5   8
BRANCH   4  21
HETATM   21  O2  UNL     1      35.702  10.543  23.495  1.00  0.00    -0.360 OA
ATOM     22  H2  UNL     1      36.003   9.717  23.136  1.00  0.00     0.217 HD
ENDBRANCH   4  21
BRANCH   1  23
HETATM   23  N3  UNL     1      30.240  11.140  24.398  1.00  0.00    -0.213 N 
ATOM     24  H3  UNL     1      29.842  10.951  25.317  1.00  0.00     0.204 HD
BRANCH  23  25
HETATM   25  N2  UNL     1      29.514  11.512  23.457  1.00  0.00    -0.243 NA
BRANCH  25  26
HETATM   26  N1  UNL     1      28.977  12.085  22.524  1.00  0.00    -0.260 N 
ATOM     27  H12 UNL     1      29.617  12.874  22.609  1.00  0.00     0.193 HD
ATOM     28  H11 UNL     1      28.394  12.381  21.741  1.00  0.00     0.193 HD
ENDBRANCH  25  26
ENDBRANCH  23  25
ENDBRANCH   1  23
BRANCH   2  29
HETATM   29  O1  UNL     1      31.819  13.290  23.593  1.00  0.00    -0.358 OA
ATOM     30  H1  UNL     1      31.837  13.691  22.732  1.00  0.00     0.217 HD
ENDBRANCH   2  29
TORSDOF 10
ENDMDL
MODEL 4
REMARK VINA RESULT: -6.906433228      5.834      8.881
REMARK  10 active torsions:
REMARK  status: ('A' for Active; 'I' for Inactive)
REMARK    1  A    between atoms: N1_1  and  N2_4 
REMARK    2  A    between atoms: N2_4  and  N3_5 
REMARK    3  A    between atoms: N3_5  and  C1_7 
REMARK    4  A    between atoms: C2_8  and  O1_9 
REMARK    5  A    between atoms: C4_12  and  O2_13 
REMARK    6  A    between atoms: C5_15  and  C6_16 
REMARK    7  A    between atoms: C6_16  and  C7_17 
REMARK    8  A    between atoms: C7_17  and  C8_18 
REMARK    9  A    between atoms: C8_18  and  N4_19 
REMARK   10  A    between atoms: N5_25  and  O3_27 
ROOT
HETATM    1  C1  UNL     1      34.023   5.206  26.717  1.00  0.00     0.114 A 
HETATM    2  C2  UNL     1      33.704   4.509  25.577  1.00  0.00     0.098 A 
HETATM    3  C3  UNL     1      32.685   4.907  24.748  1.00  0.00     0.076 A 
HETATM    4  C4  UNL     1      31.980   6.058  25.112  1.00  0.00     0.082 A 
HETATM    5  C5  UNL     1      32.249   6.804  26.237  1.00  0.00     0.041 A 
HETATM    6  C14 UNL     1      33.312   6.325  27.037  1.00  0.00     0.058 A 
HETATM    7 BR1  UNL     1      33.767   7.287  28.626  1.00  0.00    -0.047 Br
ENDROOT
BRANCH   5   8
HETATM    8  C6  UNL     1      31.579   8.032  26.613  1.00  0.00     0.048 C 
HETATM    9  N5  UNL     1      30.719   7.939  27.589  1.00  0.00    -0.272 N 
ATOM     10  H5  UNL     1      30.579   7.021  28.012  1.00  0.00     0.194 HD
BRANCH   8  11
HETATM   11  C7  UNL     1      31.870   9.334  26.074  1.00  0.00     0.080 C 
BRANCH  11  12
HETATM   12  C8  UNL     1      31.195   9.737  24.810  1.00  0.00     0.133 C 
BRANCH  12  13
HETATM   13  N4  UNL     1      32.009  10.714  24.160  1.00  0.00    -0.374 N 
HETATM   14  C9  UNL     1      31.383  11.817  23.606  1.00  0.00     0.063 C 
HETATM   15  C10 UNL     1      32.198  13.020  23.280  1.00  0.00     0.045 C 
HETATM   16  C11 UNL     1      33.517  13.002  24.006  1.00  0.00     0.010 C 
HETATM   17  C12 UNL     1      34.178  11.672  23.618  1.00  0.00     0.045 C 
HETATM   18  C13 UNL     1      33.381  10.618  24.339  1.00  0.00     0.063 C 
ENDBRANCH  12  13
ENDBRANCH  11  12
ENDBRANCH   8  11
BRANCH   9  19
HETATM   19  O3  UNL     1      29.998   8.972  28.078  1.00  0.00    -0.290 OA
ATOM     20  H3  UNL     1      29.118   8.899  28.427  1.00  0.00     0.244 HD
ENDBRANCH   9  19
ENDBRANCH   5   8
BRANCH   4  21
HETATM   21  O2  UNL     1      30.945   6.434  24.258  1.00  0.00    -0.360 OA
ATOM     22  H2  UNL     1      30.139   5.938  24.339  1.00  0.00     0.217 HD
ENDBRANCH   4  21
BRANCH   1  23
HETATM   23  N3  UNL     1      35.096   4.773  27.578  1.00  0.00    -0.213 N 
ATOM     24  H3  UNL     1      35.852   5.411  27.827  1.00  0.00     0.204 HD
BRANCH  23  25
HETATM   25  N2  UNL     1      35.081   3.606  28.010  1.00  0.00    -0.243 NA
BRANCH  25  26
HETATM   26  N1  UNL     1      35.151   2.401  28.184  1.00  0.00    -0.260 N 
ATOM     27  H12 UNL     1      34.158   2.290  27.981  1.00  0.00     0.193 HD
ATOM     28  H11 UNL     1      35.429   1.438  28.372  1.00  0.00     0.193 HD
ENDBRANCH  25  26
ENDBRANCH  23  25
ENDBRANCH   1  23
BRANCH   2  29
HETATM   29  O1  UNL     1      34.441   3.368  25.262  1.00  0.00    -0.358 OA
ATOM     30  H1  UNL     1      34.500   3.101  24.353  1.00  0.00     0.217 HD
ENDBRANCH   2  29
TORSDOF 10
ENDMDL
MODEL 5
REMARK VINA RESULT: -6.877626276      6.664      7.451
REMARK  10 active torsions:
REMARK  status: ('A' for Active; 'I' for Inactive)
REMARK    1  A    between atoms: N1_1  and  N2_4 
REMARK    2  A    between atoms: N2_4  and  N3_5 
REMARK    3  A    between atoms: N3_5  and  C1_7 
REMARK    4  A    between atoms: C2_8  and  O1_9 
REMARK    5  A    between atoms: C4_12  and  O2_13 
REMARK    6  A    between atoms: C5_15  and  C6_16 
REMARK    7  A    between atoms: C6_16  and  C7_17 
REMARK    8  A    between atoms: C7_17  and  C8_18 
REMARK    9  A    between atoms: C8_18  and  N4_19 
REMARK   10  A    between atoms: N5_25  and  O3_27 
ROOT
HETATM    1  C1  UNL     1      31.047  11.796  23.532  1.00  0.00     0.114 A 
HETATM    2  C2  UNL     1      32.304  12.168  23.119  1.00  0.00     0.098 A 
HETATM    3  C3  UNL     1      33.406  11.387  23.359  1.00  0.00     0.076 A 
HETATM    4  C4  UNL     1      33.198  10.187  24.046  1.00  0.00     0.082 A 
HETATM    5  C5  UNL     1      31.968   9.752  24.485  1.00  0.00     0.041 A 
HETATM    6  C14 UNL     1      30.887  10.617  24.199  1.00  0.00     0.058 A 
HETATM    7 BR1  UNL     1      29.133  10.108  24.768  1.00  0.00    -0.047 Br
ENDROOT
BRANCH   5   8
HETATM    8  C6  UNL     1      31.708   8.490  25.146  1.00  0.00     0.048 C 
HETATM    9  N5  UNL     1      31.323   7.510  24.376  1.00  0.00    -0.272 N 
ATOM     10  H5  UNL     1      31.233   7.700  23.377  1.00  0.00     0.194 HD
BRANCH   8  11
HETATM   11  C7  UNL     1      31.944   8.218  26.539  1.00  0.00     0.080 C 
BRANCH  11  12
HETATM   12  C8  UNL     1      33.310   7.785  26.948  1.00  0.00     0.133 C 
BRANCH  12  13
HETATM   13  N4  UNL     1      33.191   6.982  28.123  1.00  0.00    -0.374 N 
HETATM   14  C9  UNL     1      34.317   6.811  28.909  1.00  0.00     0.063 C 
HETATM   15  C10 UNL     1      34.152   6.331  30.309  1.00  0.00     0.045 C 
HETATM   16  C11 UNL     1      32.737   6.515  30.790  1.00  0.00     0.010 C 
HETATM   17  C12 UNL     1      31.860   5.780  29.766  1.00  0.00     0.045 C 
HETATM   18  C13 UNL     1      31.911   6.634  28.527  1.00  0.00     0.063 C 
ENDBRANCH  12  13
ENDBRANCH  11  12
ENDBRANCH   8  11
BRANCH   9  19
HETATM   19  O3  UNL     1      31.034   6.263  24.807  1.00  0.00    -0.290 OA
ATOM     20  H3  UNL     1      30.155   5.911  24.892  1.00  0.00     0.244 HD
ENDBRANCH   9  19
ENDBRANCH   5   8
BRANCH   4  21
HETATM   21  O2  UNL     1      34.335   9.417  24.285  1.00  0.00    -0.360 OA
ATOM     22  H2  UNL     1      34.357   8.566  23.864  1.00  0.00     0.217 HD
ENDBRANCH   4  21
BRANCH   1  23
HETATM   23  N3  UNL     1      29.901  12.630  23.272  1.00  0.00    -0.213 N 
ATOM     24  H3  UNL     1      29.532  13.247  23.995  1.00  0.00     0.204 HD
BRANCH  23  25
HETATM   25  N2  UNL     1      29.370  12.582  22.147  1.00  0.00    -0.243 NA
BRANCH  25  26
HETATM   26  N1  UNL     1      29.084  12.648  20.964  1.00  0.00    -0.260 N 
ATOM     27  H12 UNL     1      29.656  11.830  20.755  1.00  0.00     0.193 HD
ATOM     28  H11 UNL     1      28.723  12.883  20.039  1.00  0.00     0.193 HD
ENDBRANCH  25  26
ENDBRANCH  23  25
ENDBRANCH   1  23
BRANCH   2  29
HETATM   29  O1  UNL     1      32.452  13.376  22.437  1.00  0.00    -0.358 OA
ATOM     30  H1  UNL     1      33.327  13.722  22.310  1.00  0.00     0.217 HD
ENDBRANCH   2  29
TORSDOF 10
ENDMDL
