MODEL 1
REMARK VINA RESULT: -8.001504870      0.000      0.000
REMARK  7 active torsions:
REMARK  status: ('A' for Active; 'I' for Inactive)
REMARK    1  A    between atoms: C2_2  and  O1_4 
REMARK    2  A    between atoms: O1_4  and  C4_5 
REMARK    3  A    between atoms: C6_7  and  N1_8 
REMARK    4  A    between atoms: N1_8  and  C7_10 
REMARK    5  A    between atoms: C10_19  and  N5_20 
REMARK    6  A    between atoms: C12_25  and  S2_26 
REMARK    7  A    between atoms: S2_26  and  C13_27 
ROOT
HETATM    1  N1  UNL     1      32.653   9.096  25.134  1.00  0.00    -0.340 N 
ATOM      2  H1  UNL     1      32.309   9.254  26.081  1.00  0.00     0.167 HD
ENDROOT
BRANCH   1   3
HETATM    3  C6  UNL     1      32.759   7.748  24.784  1.00  0.00     0.053 A 
HETATM    4  C5  UNL     1      33.353   7.275  23.654  1.00  0.00     0.071 A 
HETATM    5  C4  UNL     1      33.440   5.911  23.322  1.00  0.00     0.110 A 
HETATM    6  C17 UNL     1      32.890   5.011  24.193  1.00  0.00     0.151 A 
HETATM    7  C16 UNL     1      32.277   5.495  25.361  1.00  0.00     0.066 A 
HETATM    8  F1  UNL     1      32.910   3.651  23.984  1.00  0.00    -0.203 F 
HETATM    9  C12 UNL     1      32.202   6.827  25.666  1.00  0.00     0.030 A 
BRANCH   5  10
HETATM   10  O1  UNL     1      34.049   5.538  22.176  1.00  0.00    -0.344 OA
BRANCH  10  11
HETATM   11  C2  UNL     1      35.152   4.857  21.798  1.00  0.00     0.121 C 
HETATM   12  C1  UNL     1      36.400   5.254  22.623  1.00  0.00     0.040 C 
HETATM   13  C3  UNL     1      35.547   5.245  20.355  1.00  0.00     0.040 C 
ENDBRANCH  10  11
ENDBRANCH   5  10
BRANCH   9  14
HETATM   14  S2  UNL     1      31.410   7.351  27.167  1.00  0.00    -0.123 SA
BRANCH  14  15
HETATM   15  C13 UNL     1      32.434   7.139  28.616  1.00  0.00     0.044 C 
HETATM   16  C14 UNL     1      33.913   7.239  28.320  1.00  0.00     0.021 C 
HETATM   17  C15 UNL     1      32.149   5.821  29.322  1.00  0.00     0.021 C 
ENDBRANCH  14  15
ENDBRANCH   9  14
ENDBRANCH   1   3
BRANCH   1  18
HETATM   18  C7  UNL     1      32.902  10.144  24.500  1.00  0.00     0.128 A 
HETATM   19  N2  UNL     1      34.192  10.573  24.357  1.00  0.00    -0.337 N 
HETATM   20  C8  UNL     1      34.318  11.728  23.644  1.00  0.00     0.183 A 
ATOM     21  H2  UNL     1      34.989  10.074  24.750  1.00  0.00     0.168 HD
HETATM   22  N3  UNL     1      33.330  12.417  23.112  1.00  0.00    -0.337 N 
HETATM   23  C9  UNL     1      32.023  12.011  23.239  1.00  0.00     0.129 A 
ATOM     24  H3  UNL     1      33.538  13.271  22.595  1.00  0.00     0.168 HD
HETATM   25  N4  UNL     1      30.955  12.609  22.758  1.00  0.00    -0.322 N 
HETATM   26  C11 UNL     1      31.855  10.858  23.949  1.00  0.00     0.096 A 
HETATM   27  C10 UNL     1      29.765  12.054  22.990  1.00  0.00     0.144 A 
ATOM     28  H4  UNL     1      31.034  13.474  22.222  1.00  0.00     0.169 HD
HETATM   29  S1  UNL     1      30.158  10.665  23.902  1.00  0.00    -0.047 SA
BRANCH  27  30
HETATM   30  N5  UNL     1      28.590  12.496  22.596  1.00  0.00    -0.380 N 
ATOM     31  H52 UNL     1      28.254  13.454  22.499  1.00  0.00     0.158 HD
ATOM     32  H51 UNL     1      27.785  11.938  22.312  1.00  0.00     0.158 HD
ENDBRANCH  27  30
ENDBRANCH   1  18
TORSDOF 7
ENDMDL
MODEL 2
REMARK VINA RESULT: -7.778175583      2.139      4.574
REMARK  7 active torsions:
REMARK  status: ('A' for Active; 'I' for Inactive)
REMARK    1  A    between atoms: C2_2  and  O1_4 
REMARK    2  A    between atoms: O1_4  and  C4_5 
REMARK    3  A    between atoms: C6_7  and  N1_8 
REMARK    4  A    between atoms: N1_8  and  C7_10 
REMARK    5  A    between atoms: C10_19  and  N5_20 
REMARK    6  A    between atoms: C12_25  and  S2_26 
REMARK    7  A    between atoms: S2_26  and  C13_27 
ROOT
HETATM    1  N1  UNL     1      31.996   8.715  25.350  1.00  0.00    -0.340 N 
ATOM      2  H1  UNL     1      30.980   8.630  25.333  1.00  0.00     0.167 HD
ENDROOT
BRANCH   1   3
HETATM    3  C6  UNL     1      32.642   7.695  26.051  1.00  0.00     0.053 A 
HETATM    4  C5  UNL     1      33.010   7.754  27.360  1.00  0.00     0.071 A 
HETATM    5  C4  UNL     1      33.668   6.713  28.041  1.00  0.00     0.110 A 
HETATM    6  C17 UNL     1      33.950   5.575  27.337  1.00  0.00     0.151 A 
HETATM    7  C16 UNL     1      33.571   5.510  25.986  1.00  0.00     0.066 A 
HETATM    8  F1  UNL     1      34.588   4.487  27.887  1.00  0.00    -0.203 F 
HETATM    9  C12 UNL     1      32.933   6.534  25.340  1.00  0.00     0.030 A 
BRANCH   5  10
HETATM   10  O1  UNL     1      33.994   6.865  29.343  1.00  0.00    -0.344 OA
BRANCH  10  11
HETATM   11  C2  UNL     1      33.556   6.439  30.547  1.00  0.00     0.121 C 
HETATM   12  C1  UNL     1      34.424   5.289  31.114  1.00  0.00     0.040 C 
HETATM   13  C3  UNL     1      32.161   5.788  30.404  1.00  0.00     0.040 C 
ENDBRANCH  10  11
ENDBRANCH   5  10
BRANCH   9  14
HETATM   14  S2  UNL     1      32.487   6.365  23.629  1.00  0.00    -0.123 SA
BRANCH  14  15
HETATM   15  C13 UNL     1      33.892   6.123  22.554  1.00  0.00     0.044 C 
HETATM   16  C14 UNL     1      34.443   4.716  22.601  1.00  0.00     0.021 C 
HETATM   17  C15 UNL     1      35.009   7.112  22.853  1.00  0.00     0.021 C 
ENDBRANCH  14  15
ENDBRANCH   9  14
ENDBRANCH   1   3
BRANCH   1  18
HETATM   18  C7  UNL     1      32.434   9.714  24.738  1.00  0.00     0.128 A 
HETATM   19  N2  UNL     1      33.779   9.950  24.678  1.00  0.00    -0.337 N 
HETATM   20  C8  UNL     1      34.116  11.071  23.980  1.00  0.00     0.183 A 
ATOM     21  H2  UNL     1      34.469   9.341  25.117  1.00  0.00     0.168 HD
HETATM   22  N3  UNL     1      33.273  11.896  23.393  1.00  0.00    -0.337 N 
HETATM   23  C9  UNL     1      31.916  11.685  23.436  1.00  0.00     0.129 A 
ATOM     24  H3  UNL     1      33.636  12.708  22.895  1.00  0.00     0.168 HD
HETATM   25  N4  UNL     1      30.978  12.430  22.893  1.00  0.00    -0.322 N 
HETATM   26  C11 UNL     1      31.538  10.570  24.127  1.00  0.00     0.096 A 
HETATM   27  C10 UNL     1      29.708  12.055  23.048  1.00  0.00     0.144 A 
ATOM     28  H4  UNL     1      31.216  13.272  22.368  1.00  0.00     0.169 HD
HETATM   29  S1  UNL     1      29.837  10.627  23.974  1.00  0.00    -0.047 SA
BRANCH  27  30
HETATM   30  N5  UNL     1      28.637  12.662  22.585  1.00  0.00    -0.380 N 
ATOM     31  H52 UNL     1      27.653  12.494  22.792  1.00  0.00     0.158 HD
ATOM     32  H51 UNL     1      28.604  13.431  21.914  1.00  0.00     0.158 HD
ENDBRANCH  27  30
ENDBRANCH   1  18
TORSDOF 7
ENDMDL
MODEL 3
REMARK VINA RESULT: -7.764278079      1.086      1.349
REMARK  7 active torsions:
REMARK  status: ('A' for Active; 'I' for Inactive)
REMARK    1  A    between atoms: C2_2  and  O1_4 
REMARK    2  A    between atoms: O1_4  and  C4_5 
REMARK    3  A    between atoms: C6_7  and  N1_8 
REMARK    4  A    between atoms: N1_8  and  C7_10 
REMARK    5  A    between atoms: C10_19  and  N5_20 
REMARK    6  A    between atoms: C12_25  and  S2_26 
REMARK    7  A    between atoms: S2_26  and  C13_27 
ROOT
HETATM    1  N1  UNL     1      33.055   8.891  24.978  1.00  0.00    -0.340 N 
ATOM      2  H1  UNL     1      32.417   8.953  25.771  1.00  0.00     0.167 HD
ENDROOT
BRANCH   1   3
HETATM    3  C6  UNL     1      33.560   7.609  24.751  1.00  0.00     0.053 A 
HETATM    4  C5  UNL     1      33.784   7.059  23.526  1.00  0.00     0.071 A 
HETATM    5  C4  UNL     1      34.288   5.760  23.326  1.00  0.00     0.110 A 
HETATM    6  C17 UNL     1      34.567   5.011  24.436  1.00  0.00     0.151 A 
HETATM    7  C16 UNL     1      34.338   5.575  25.702  1.00  0.00     0.066 A 
HETATM    8  F1  UNL     1      35.064   3.729  24.375  1.00  0.00    -0.203 F 
HETATM    9  C12 UNL     1      33.846   6.841  25.876  1.00  0.00     0.030 A 
BRANCH   5  10
HETATM   10  O1  UNL     1      34.476   5.301  22.070  1.00  0.00    -0.344 OA
BRANCH  10  11
HETATM   11  C2  UNL     1      35.479   4.790  21.325  1.00  0.00     0.121 C 
HETATM   12  C1  UNL     1      35.547   5.425  19.915  1.00  0.00     0.040 C 
HETATM   13  C3  UNL     1      35.210   3.297  21.025  1.00  0.00     0.040 C 
ENDBRANCH  10  11
ENDBRANCH   5  10
BRANCH   9  14
HETATM   14  S2  UNL     1      33.591   7.477  27.515  1.00  0.00    -0.123 SA
BRANCH  14  15
HETATM   15  C13 UNL     1      32.049   6.946  28.245  1.00  0.00     0.044 C 
HETATM   16  C14 UNL     1      32.235   5.975  29.389  1.00  0.00     0.021 C 
HETATM   17  C15 UNL     1      31.115   6.335  27.211  1.00  0.00     0.021 C 
ENDBRANCH  14  15
ENDBRANCH   9  14
ENDBRANCH   1   3
BRANCH   1  18
HETATM   18  C7  UNL     1      33.241   9.976  24.387  1.00  0.00     0.128 A 
HETATM   19  N2  UNL     1      34.509  10.447  24.192  1.00  0.00    -0.337 N 
HETATM   20  C8  UNL     1      34.564  11.640  23.534  1.00  0.00     0.183 A 
ATOM     21  H2  UNL     1      35.340   9.950  24.511  1.00  0.00     0.168 HD
HETATM   22  N3  UNL     1      33.530  12.329  23.098  1.00  0.00    -0.337 N 
HETATM   23  C9  UNL     1      32.244  11.881  23.280  1.00  0.00     0.129 A 
ATOM     24  H3  UNL     1      33.687  13.213  22.616  1.00  0.00     0.168 HD
HETATM   25  N4  UNL     1      31.134  12.474  22.894  1.00  0.00    -0.322 N 
HETATM   26  C11 UNL     1      32.145  10.689  23.936  1.00  0.00     0.096 A 
HETATM   27  C10 UNL     1      29.974  11.876  23.165  1.00  0.00     0.144 A 
ATOM     28  H4  UNL     1      31.161  13.366  22.401  1.00  0.00     0.169 HD
HETATM   29  S1  UNL     1      30.454  10.453  23.978  1.00  0.00    -0.047 SA
BRANCH  27  30
HETATM   30  N5  UNL     1      28.768  12.305  22.864  1.00  0.00    -0.380 N 
ATOM     31  H52 UNL     1      28.273  12.284  21.973  1.00  0.00     0.158 HD
ATOM     32  H51 UNL     1      28.096  12.748  23.492  1.00  0.00     0.158 HD
ENDBRANCH  27  30
ENDBRANCH   1  18
TORSDOF 7
ENDMDL
MODEL 4
REMARK VINA RESULT: -7.742153160      3.728      6.127
REMARK  7 active torsions:
REMARK  status: ('A' for Active; 'I' for Inactive)
REMARK    1  A    between atoms: C2_2  and  O1_4 
REMARK    2  A    between atoms: O1_4  and  C4_5 
REMARK    3  A    between atoms: C6_7  and  N1_8 
REMARK    4  A    between atoms: N1_8  and  C7_10 
REMARK    5  A    between atoms: C10_19  and  N5_20 
REMARK    6  A    between atoms: C12_25  and  S2_26 
REMARK    7  A    between atoms: S2_26  and  C13_27 
ROOT
HETATM    1  N1  UNL     1      34.463   7.188  25.885  1.00  0.00    -0.340 N 
ATOM      2  H1  UNL     1      35.198   7.516  26.510  1.00  0.00     0.167 HD
ENDROOT
BRANCH   1   3
HETATM    3  C6  UNL     1      33.378   8.061  25.773  1.00  0.00     0.053 A 
HETATM    4  C5  UNL     1      33.250   9.037  24.834  1.00  0.00     0.071 A 
HETATM    5  C4  UNL     1      32.148   9.909  24.748  1.00  0.00     0.110 A 
HETATM    6  C17 UNL     1      31.149   9.758  25.670  1.00  0.00     0.151 A 
HETATM    7  C16 UNL     1      31.277   8.752  26.641  1.00  0.00     0.066 A 
HETATM    8  F1  UNL     1      30.020  10.545  25.694  1.00  0.00    -0.203 F 
HETATM    9  C12 UNL     1      32.358   7.914  26.708  1.00  0.00     0.030 A 
BRANCH   5  10
HETATM   10  O1  UNL     1      32.111  10.848  23.779  1.00  0.00    -0.344 OA
BRANCH  10  11
HETATM   11  C2  UNL     1      32.216  12.190  23.673  1.00  0.00     0.121 C 
HETATM   12  C1  UNL     1      32.044  12.680  22.214  1.00  0.00     0.040 C 
HETATM   13  C3  UNL     1      33.652  12.640  24.027  1.00  0.00     0.040 C 
ENDBRANCH  10  11
ENDBRANCH   5  10
BRANCH   9  14
HETATM   14  S2  UNL     1      32.436   6.665  27.968  1.00  0.00    -0.123 SA
BRANCH  14  15
HETATM   15  C13 UNL     1      33.465   7.124  29.354  1.00  0.00     0.044 C 
HETATM   16  C14 UNL     1      34.703   6.267  29.487  1.00  0.00     0.021 C 
HETATM   17  C15 UNL     1      32.692   7.098  30.665  1.00  0.00     0.021 C 
ENDBRANCH  14  15
ENDBRANCH   9  14
ENDBRANCH   1   3
BRANCH   1  18
HETATM   18  C7  UNL     1      34.697   6.079  25.358  1.00  0.00     0.128 A 
HETATM   19  N2  UNL     1      34.629   4.935  26.102  1.00  0.00    -0.337 N 
HETATM   20  C8  UNL     1      34.908   3.799  25.402  1.00  0.00     0.183 A 
ATOM     21  H2  UNL     1      34.391   4.931  27.094  1.00  0.00     0.168 HD
HETATM   22  N3  UNL     1      35.221   3.738  24.124  1.00  0.00    -0.337 N 
HETATM   23  C9  UNL     1      35.298   4.872  23.351  1.00  0.00     0.129 A 
ATOM     24  H3  UNL     1      35.411   2.831  23.700  1.00  0.00     0.168 HD
HETATM   25  N4  UNL     1      35.599   4.942  22.072  1.00  0.00    -0.322 N 
HETATM   26  C11 UNL     1      35.026   6.031  24.017  1.00  0.00     0.096 A 
HETATM   27  C10 UNL     1      35.621   6.144  21.497  1.00  0.00     0.144 A 
ATOM     28  H4  UNL     1      35.810   4.100  21.536  1.00  0.00     0.169 HD
HETATM   29  S1  UNL     1      35.211   7.194  22.779  1.00  0.00    -0.047 SA
BRANCH  27  30
HETATM   30  N5  UNL     1      35.897   6.420  20.241  1.00  0.00    -0.380 N 
ATOM     31  H52 UNL     1      35.328   6.893  19.538  1.00  0.00     0.158 HD
ATOM     32  H51 UNL     1      36.755   6.202  19.735  1.00  0.00     0.158 HD
ENDBRANCH  27  30
ENDBRANCH   1  18
TORSDOF 7
ENDMDL
MODEL 5
REMARK VINA RESULT: -7.626734649      3.782      6.017
REMARK  7 active torsions:
REMARK  status: ('A' for Active; 'I' for Inactive)
REMARK    1  A    between atoms: C2_2  and  O1_4 
REMARK    2  A    between atoms: O1_4  and  C4_5 
REMARK    3  A    between atoms: C6_7  and  N1_8 
REMARK    4  A    between atoms: N1_8  and  C7_10 
REMARK    5  A    between atoms: C10_19  and  N5_20 
REMARK    6  A    between atoms: C12_25  and  S2_26 
REMARK    7  A    between atoms: S2_26  and  C13_27 
ROOT
HETATM    1  N1  UNL     1      33.742   6.687  25.721  1.00  0.00    -0.340 N 
ATOM      2  H1  UNL     1      34.599   6.768  26.267  1.00  0.00     0.167 HD
ENDROOT
BRANCH   1   3
HETATM    3  C6  UNL     1      32.710   7.524  26.151  1.00  0.00     0.053 A 
HETATM    4  C5  UNL     1      32.191   8.560  25.438  1.00  0.00     0.071 A 
HETATM    5  C4  UNL     1      31.154   9.393  25.899  1.00  0.00     0.110 A 
HETATM    6  C17 UNL     1      30.643   9.138  27.141  1.00  0.00     0.151 A 
HETATM    7  C16 UNL     1      31.175   8.069  27.880  1.00  0.00     0.066 A 
HETATM    8  F1  UNL     1      29.628   9.878  27.705  1.00  0.00    -0.203 F 
HETATM    9  C12 UNL     1      32.184   7.270  27.415  1.00  0.00     0.030 A 
BRANCH   5  10
HETATM   10  O1  UNL     1      30.706  10.398  25.117  1.00  0.00    -0.344 OA
BRANCH  10  11
HETATM   11  C2  UNL     1      30.957  10.912  23.894  1.00  0.00     0.121 C 
HETATM   12  C1  UNL     1      31.771  12.227  23.965  1.00  0.00     0.040 C 
HETATM   13  C3  UNL     1      29.637  11.353  23.221  1.00  0.00     0.040 C 
ENDBRANCH  10  11
ENDBRANCH   5  10
BRANCH   9  14
HETATM   14  S2  UNL     1      32.795   5.936  28.416  1.00  0.00    -0.123 SA
BRANCH  14  15
HETATM   15  C13 UNL     1      33.591   6.487  29.917  1.00  0.00     0.044 C 
HETATM   16  C14 UNL     1      35.029   6.036  30.029  1.00  0.00     0.021 C 
HETATM   17  C15 UNL     1      32.826   6.046  31.157  1.00  0.00     0.021 C 
ENDBRANCH  14  15
ENDBRANCH   9  14
ENDBRANCH   1   3
BRANCH   1  18
HETATM   18  C7  UNL     1      33.808   5.856  24.789  1.00  0.00     0.128 A 
HETATM   19  N2  UNL     1      33.262   4.612  24.934  1.00  0.00    -0.337 N 
HETATM   20  C8  UNL     1      33.406   3.810  23.841  1.00  0.00     0.183 A 
ATOM     21  H2  UNL     1      32.788   4.310  25.785  1.00  0.00     0.168 HD
HETATM   22  N3  UNL     1      34.004   4.142  22.716  1.00  0.00    -0.337 N 
HETATM   23  C9  UNL     1      34.563   5.385  22.540  1.00  0.00     0.129 A 
ATOM     24  H3  UNL     1      34.055   3.461  21.958  1.00  0.00     0.168 HD
HETATM   25  N4  UNL     1      35.185   5.833  21.471  1.00  0.00    -0.322 N 
HETATM   26  C11 UNL     1      34.440   6.218  23.614  1.00  0.00     0.096 A 
HETATM   27  C10 UNL     1      35.660   7.078  21.496  1.00  0.00     0.144 A 
ATOM     28  H4  UNL     1      35.299   5.244  20.646  1.00  0.00     0.169 HD
HETATM   29  S1  UNL     1      35.224   7.628  23.052  1.00  0.00    -0.047 SA
BRANCH  27  30
HETATM   30  N5  UNL     1      36.305   7.703  20.534  1.00  0.00    -0.380 N 
ATOM     31  H52 UNL     1      36.232   8.671  20.224  1.00  0.00     0.158 HD
ATOM     32  H51 UNL     1      37.014   7.313  19.912  1.00  0.00     0.158 HD
ENDBRANCH  27  30
ENDBRANCH   1  18
TORSDOF 7
ENDMDL
