MODEL 1
REMARK VINA RESULT: -7.674353408      0.000      0.000
REMARK  8 active torsions:
REMARK  status: ('A' for Active; 'I' for Inactive)
REMARK    1  A    between atoms: C3_3  and  C4_4 
REMARK    2  A    between atoms: C4_4  and  C5_5 
REMARK    3  A    between atoms: C6_6  and  O1_7 
REMARK    4  A    between atoms: C9_10  and  O2_11 
REMARK    5  A    between atoms: C12_14  and  O3_15 
REMARK    6  A    between atoms: C14_17  and  N1_18 
REMARK    7  A    between atoms: N1_18  and  S1_20 
REMARK    8  A    between atoms: N3_26  and  C16_27 
ROOT
HETATM    1  C1  UNL     1       6.082   5.550  17.845  1.00  0.00     0.046 C 
HETATM    2  C2  UNL     1       6.553   5.878  19.061  1.00  0.00     0.061 A 
HETATM    3  C3  UNL     1       6.147   6.925  19.858  1.00  0.00     0.039 A 
HETATM    4  C14 UNL     1       6.906   6.879  21.019  1.00  0.00     0.142 A 
HETATM    5  N2  UNL     1       7.725   5.822  20.878  1.00  0.00    -0.277 N 
ATOM      6  H2  UNL     1       8.410   5.524  21.573  1.00  0.00     0.189 HD
HETATM    7  N3  UNL     1       7.523   5.222  19.719  1.00  0.00    -0.255 N 
ENDROOT
BRANCH   3   8
HETATM    8  C4  UNL     1       5.215   7.809  19.575  1.00  0.00     0.034 C 
BRANCH   8   9
HETATM    9  C5  UNL     1       5.434   9.213  19.363  1.00  0.00     0.032 A 
HETATM   10  C6  UNL     1       5.158  10.101  20.375  1.00  0.00     0.083 A 
HETATM   11  C8  UNL     1       5.357  11.477  20.209  1.00  0.00     0.074 A 
HETATM   12  C9  UNL     1       5.832  11.947  19.023  1.00  0.00     0.073 A 
HETATM   13  C11 UNL     1       6.114  11.091  18.002  1.00  0.00     0.074 A 
HETATM   14  C12 UNL     1       5.912   9.738  18.183  1.00  0.00     0.083 A 
BRANCH  10  15
HETATM   15  O1  UNL     1       4.682   9.668  21.576  1.00  0.00    -0.355 OA
HETATM   16  C7  UNL     1       3.405   9.888  22.088  1.00  0.00     0.210 C 
ENDBRANCH  10  15
BRANCH  12  17
HETATM   17  O2  UNL     1       6.048  13.323  18.810  1.00  0.00    -0.356 OA
HETATM   18  C10 UNL     1       4.925  14.192  18.865  1.00  0.00     0.210 C 
ENDBRANCH  12  17
BRANCH  14  19
HETATM   19  O3  UNL     1       6.194   8.883  17.162  1.00  0.00    -0.355 OA
HETATM   20  C13 UNL     1       5.405   8.892  15.992  1.00  0.00     0.210 C 
ENDBRANCH  14  19
ENDBRANCH   8   9
ENDBRANCH   3   8
BRANCH   4  21
HETATM   21  N1  UNL     1       6.825   7.701  22.023  1.00  0.00    -0.268 N 
ATOM     22  H1  UNL     1       5.911   7.848  22.452  1.00  0.00     0.180 HD
BRANCH  21  23
HETATM   23  S1  UNL     1       8.158   8.546  22.660  1.00  0.00     0.228 S 
HETATM   24  C15 UNL     1       7.824  10.218  23.083  1.00  0.00     0.186 C 
HETATM   25  O4  UNL     1       9.309   8.538  21.692  1.00  0.00    -0.206 OA
HETATM   26  O5  UNL     1       8.660   7.843  23.908  1.00  0.00    -0.206 OA
ENDBRANCH  21  23
ENDBRANCH   4  21
BRANCH   7  27
HETATM   27  C16 UNL     1       8.195   4.057  19.191  1.00  0.00     0.057 A 
HETATM   28  C17 UNL     1       9.209   4.195  18.261  1.00  0.00     0.034 A 
HETATM   29  C18 UNL     1       9.854   3.091  17.751  1.00  0.00     0.044 A 
HETATM   30  C19 UNL     1       9.478   1.820  18.180  1.00  0.00     0.116 A 
HETATM   31  F1  UNL     1      10.090   0.719  17.699  1.00  0.00    -0.206 F 
HETATM   32  C20 UNL     1       8.471   1.687  19.102  1.00  0.00     0.044 A 
HETATM   33  C21 UNL     1       7.847   2.796  19.591  1.00  0.00     0.034 A 
ENDBRANCH   7  27
TORSDOF 8
ENDMDL
MODEL 2
REMARK VINA RESULT: -7.623462615      0.221      2.213
REMARK  8 active torsions:
REMARK  status: ('A' for Active; 'I' for Inactive)
REMARK    1  A    between atoms: C3_3  and  C4_4 
REMARK    2  A    between atoms: C4_4  and  C5_5 
REMARK    3  A    between atoms: C6_6  and  O1_7 
REMARK    4  A    between atoms: C9_10  and  O2_11 
REMARK    5  A    between atoms: C12_14  and  O3_15 
REMARK    6  A    between atoms: C14_17  and  N1_18 
REMARK    7  A    between atoms: N1_18  and  S1_20 
REMARK    8  A    between atoms: N3_26  and  C16_27 
ROOT
HETATM    1  C1  UNL     1       5.985   5.619  17.967  1.00  0.00     0.046 C 
HETATM    2  C2  UNL     1       6.529   5.991  19.140  1.00  0.00     0.061 A 
HETATM    3  C3  UNL     1       6.178   7.073  19.915  1.00  0.00     0.039 A 
HETATM    4  C14 UNL     1       7.004   7.066  21.031  1.00  0.00     0.142 A 
HETATM    5  N2  UNL     1       7.806   5.998  20.886  1.00  0.00    -0.277 N 
ATOM      6  H2  UNL     1       8.528   5.722  21.551  1.00  0.00     0.189 HD
HETATM    7  N3  UNL     1       7.532   5.353  19.766  1.00  0.00    -0.255 N 
ENDROOT
BRANCH   3   8
HETATM    8  C4  UNL     1       5.237   7.953  19.652  1.00  0.00     0.034 C 
BRANCH   8   9
HETATM    9  C5  UNL     1       5.443   9.362  19.462  1.00  0.00     0.032 A 
HETATM   10  C6  UNL     1       5.900   9.821  18.249  1.00  0.00     0.083 A 
HETATM   11  C8  UNL     1       6.114  11.186  18.022  1.00  0.00     0.074 A 
HETATM   12  C9  UNL     1       5.867  12.078  19.020  1.00  0.00     0.073 A 
HETATM   13  C11 UNL     1       5.415  11.652  20.233  1.00  0.00     0.074 A 
HETATM   14  C12 UNL     1       5.208  10.304  20.439  1.00  0.00     0.083 A 
BRANCH  10  15
HETATM   15  O1  UNL     1       6.157   8.959  17.226  1.00  0.00    -0.355 OA
HETATM   16  C7  UNL     1       5.419   8.824  16.052  1.00  0.00     0.210 C 
ENDBRANCH  10  15
BRANCH  12  17
HETATM   17  O2  UNL     1       6.068  13.460  18.839  1.00  0.00    -0.356 OA
HETATM   18  C10 UNL     1       4.944  14.321  18.966  1.00  0.00     0.210 C 
ENDBRANCH  12  17
BRANCH  14  19
HETATM   19  O3  UNL     1       4.756   9.880  21.651  1.00  0.00    -0.355 OA
HETATM   20  C13 UNL     1       3.412  10.095  22.021  1.00  0.00     0.210 C 
ENDBRANCH  14  19
ENDBRANCH   8   9
ENDBRANCH   3   8
BRANCH   4  21
HETATM   21  N1  UNL     1       6.987   7.929  22.004  1.00  0.00    -0.268 N 
ATOM     22  H1  UNL     1       6.111   8.073  22.505  1.00  0.00     0.180 HD
BRANCH  21  23
HETATM   23  S1  UNL     1       8.347   8.833  22.485  1.00  0.00     0.228 S 
HETATM   24  C15 UNL     1       7.987  10.480  22.978  1.00  0.00     0.186 C 
HETATM   25  O4  UNL     1       9.367   8.894  21.383  1.00  0.00    -0.206 OA
HETATM   26  O5  UNL     1       9.035   8.140  23.649  1.00  0.00    -0.206 OA
ENDBRANCH  21  23
ENDBRANCH   4  21
BRANCH   7  27
HETATM   27  C16 UNL     1       8.163   4.161  19.247  1.00  0.00     0.057 A 
HETATM   28  C17 UNL     1       9.162   4.257  18.295  1.00  0.00     0.034 A 
HETATM   29  C18 UNL     1       9.769   3.126  17.794  1.00  0.00     0.044 A 
HETATM   30  C19 UNL     1       9.370   1.874  18.254  1.00  0.00     0.116 A 
HETATM   31  F1  UNL     1       9.945   0.749  17.783  1.00  0.00    -0.206 F 
HETATM   32  C20 UNL     1       8.378   1.784  19.198  1.00  0.00     0.044 A 
HETATM   33  C21 UNL     1       7.792   2.917  19.678  1.00  0.00     0.034 A 
ENDBRANCH   7  27
TORSDOF 8
ENDMDL
MODEL 3
REMARK VINA RESULT: -7.598971617      2.550      4.111
REMARK  8 active torsions:
REMARK  status: ('A' for Active; 'I' for Inactive)
REMARK    1  A    between atoms: C3_3  and  C4_4 
REMARK    2  A    between atoms: C4_4  and  C5_5 
REMARK    3  A    between atoms: C6_6  and  O1_7 
REMARK    4  A    between atoms: C9_10  and  O2_11 
REMARK    5  A    between atoms: C12_14  and  O3_15 
REMARK    6  A    between atoms: C14_17  and  N1_18 
REMARK    7  A    between atoms: N1_18  and  S1_20 
REMARK    8  A    between atoms: N3_26  and  C16_27 
ROOT
HETATM    1  C1  UNL     1       7.226   5.756  20.399  1.00  0.00     0.046 C 
HETATM    2  C2  UNL     1       6.935   6.039  19.117  1.00  0.00     0.061 A 
HETATM    3  C3  UNL     1       6.208   7.108  18.643  1.00  0.00     0.039 A 
HETATM    4  C14 UNL     1       6.162   6.996  17.260  1.00  0.00     0.142 A 
HETATM    5  N2  UNL     1       6.852   5.882  16.961  1.00  0.00    -0.277 N 
ATOM      6  H2  UNL     1       6.998   5.529  16.015  1.00  0.00     0.189 HD
HETATM    7  N3  UNL     1       7.315   5.307  18.056  1.00  0.00    -0.255 N 
ENDROOT
BRANCH   3   8
HETATM    8  C4  UNL     1       5.657   8.061  19.362  1.00  0.00     0.034 C 
BRANCH   8   9
HETATM    9  C5  UNL     1       6.338   9.218  19.875  1.00  0.00     0.032 A 
HETATM   10  C6  UNL     1       6.453   9.387  21.235  1.00  0.00     0.083 A 
HETATM   11  C8  UNL     1       7.108  10.501  21.775  1.00  0.00     0.074 A 
HETATM   12  C9  UNL     1       7.641  11.435  20.941  1.00  0.00     0.073 A 
HETATM   13  C11 UNL     1       7.541  11.294  19.590  1.00  0.00     0.074 A 
HETATM   14  C12 UNL     1       6.893  10.191  19.074  1.00  0.00     0.083 A 
BRANCH  10  15
HETATM   15  O1  UNL     1       5.934   8.473  22.100  1.00  0.00    -0.355 OA
HETATM   16  C7  UNL     1       6.468   8.104  23.333  1.00  0.00     0.210 C 
ENDBRANCH  10  15
BRANCH  12  17
HETATM   17  O2  UNL     1       8.309  12.571  21.439  1.00  0.00    -0.356 OA
HETATM   18  C10 UNL     1       8.305  13.750  20.645  1.00  0.00     0.210 C 
ENDBRANCH  12  17
BRANCH  14  19
HETATM   19  O3  UNL     1       6.794  10.051  17.724  1.00  0.00    -0.355 OA
HETATM   20  C13 UNL     1       6.761  11.192  16.894  1.00  0.00     0.210 C 
ENDBRANCH  14  19
ENDBRANCH   8   9
ENDBRANCH   3   8
BRANCH   4  21
HETATM   21  N1  UNL     1       5.565   7.813  16.443  1.00  0.00    -0.268 N 
ATOM     22  H1  UNL     1       5.138   8.654  16.830  1.00  0.00     0.180 HD
BRANCH  21  23
HETATM   23  S1  UNL     1       5.458   7.555  14.764  1.00  0.00     0.228 S 
HETATM   24  C15 UNL     1       4.577   8.801  13.893  1.00  0.00     0.186 C 
HETATM   25  O4  UNL     1       4.803   6.235  14.466  1.00  0.00    -0.206 OA
HETATM   26  O5  UNL     1       6.852   7.471  14.169  1.00  0.00    -0.206 OA
ENDBRANCH  21  23
ENDBRANCH   4  21
BRANCH   7  27
HETATM   27  C16 UNL     1       8.100   4.099  18.164  1.00  0.00     0.057 A 
HETATM   28  C17 UNL     1       7.598   2.994  18.828  1.00  0.00     0.034 A 
HETATM   29  C18 UNL     1       8.340   1.839  18.936  1.00  0.00     0.044 A 
HETATM   30  C19 UNL     1       9.610   1.786  18.369  1.00  0.00     0.116 A 
HETATM   31  F1  UNL     1      10.362   0.670  18.458  1.00  0.00    -0.206 F 
HETATM   32  C20 UNL     1      10.105   2.884  17.712  1.00  0.00     0.044 A 
HETATM   33  C21 UNL     1       9.352   4.017  17.618  1.00  0.00     0.034 A 
ENDBRANCH   7  27
TORSDOF 8
ENDMDL
MODEL 4
REMARK VINA RESULT: -7.576641879      1.718      3.105
REMARK  8 active torsions:
REMARK  status: ('A' for Active; 'I' for Inactive)
REMARK    1  A    between atoms: C3_3  and  C4_4 
REMARK    2  A    between atoms: C4_4  and  C5_5 
REMARK    3  A    between atoms: C6_6  and  O1_7 
REMARK    4  A    between atoms: C9_10  and  O2_11 
REMARK    5  A    between atoms: C12_14  and  O3_15 
REMARK    6  A    between atoms: C14_17  and  N1_18 
REMARK    7  A    between atoms: N1_18  and  S1_20 
REMARK    8  A    between atoms: N3_26  and  C16_27 
ROOT
HETATM    1  C1  UNL     1       6.340   5.484  17.087  1.00  0.00     0.046 C 
HETATM    2  C2  UNL     1       6.745   6.006  18.259  1.00  0.00     0.061 A 
HETATM    3  C3  UNL     1       6.335   7.189  18.831  1.00  0.00     0.039 A 
HETATM    4  C14 UNL     1       7.014   7.324  20.034  1.00  0.00     0.142 A 
HETATM    5  N2  UNL     1       7.793   6.234  20.137  1.00  0.00    -0.277 N 
ATOM      6  H2  UNL     1       8.418   6.041  20.920  1.00  0.00     0.189 HD
HETATM    7  N3  UNL     1       7.641   5.445  19.088  1.00  0.00    -0.255 N 
ENDROOT
BRANCH   3   8
HETATM    8  C4  UNL     1       5.462   8.038  18.334  1.00  0.00     0.034 C 
BRANCH   8   9
HETATM    9  C5  UNL     1       5.753   9.065  17.372  1.00  0.00     0.032 A 
HETATM   10  C6  UNL     1       5.343   8.907  16.070  1.00  0.00     0.083 A 
HETATM   11  C8  UNL     1       5.606   9.884  15.101  1.00  0.00     0.074 A 
HETATM   12  C9  UNL     1       6.282  11.012  15.453  1.00  0.00     0.073 A 
HETATM   13  C11 UNL     1       6.702  11.195  16.736  1.00  0.00     0.074 A 
HETATM   14  C12 UNL     1       6.433  10.223  17.678  1.00  0.00     0.083 A 
BRANCH  10  15
HETATM   15  O1  UNL     1       4.663   7.793  15.680  1.00  0.00    -0.355 OA
HETATM   16  C7  UNL     1       4.445   7.373  14.369  1.00  0.00     0.210 C 
ENDBRANCH  10  15
BRANCH  12  17
HETATM   17  O2  UNL     1       6.570  12.021  14.514  1.00  0.00    -0.356 OA
HETATM   18  C10 UNL     1       7.536  11.742  13.509  1.00  0.00     0.210 C 
ENDBRANCH  12  17
BRANCH  14  19
HETATM   19  O3  UNL     1       6.853  10.407  18.959  1.00  0.00    -0.355 OA
HETATM   20  C13 UNL     1       7.446  11.629  19.342  1.00  0.00     0.210 C 
ENDBRANCH  14  19
ENDBRANCH   8   9
ENDBRANCH   3   8
BRANCH   4  21
HETATM   21  N1  UNL     1       6.904   8.312  20.872  1.00  0.00    -0.268 N 
ATOM     22  H1  UNL     1       6.025   8.830  20.892  1.00  0.00     0.180 HD
BRANCH  21  23
HETATM   23  S1  UNL     1       8.144   8.790  21.935  1.00  0.00     0.228 S 
HETATM   24  C15 UNL     1       7.764  10.203  22.906  1.00  0.00     0.186 C 
HETATM   25  O4  UNL     1       9.413   9.076  21.183  1.00  0.00    -0.206 OA
HETATM   26  O5  UNL     1       8.472   7.649  22.883  1.00  0.00    -0.206 OA
ENDBRANCH  21  23
ENDBRANCH   4  21
BRANCH   7  27
HETATM   27  C16 UNL     1       8.294   4.185  18.819  1.00  0.00     0.057 A 
HETATM   28  C17 UNL     1       7.836   3.019  19.407  1.00  0.00     0.034 A 
HETATM   29  C18 UNL     1       8.453   1.814  19.156  1.00  0.00     0.044 A 
HETATM   30  C19 UNL     1       9.551   1.772  18.301  1.00  0.00     0.116 A 
HETATM   31  F1  UNL     1      10.177   0.607  18.036  1.00  0.00    -0.206 F 
HETATM   32  C20 UNL     1      10.003   2.930  17.720  1.00  0.00     0.044 A 
HETATM   33  C21 UNL     1       9.375   4.112  17.984  1.00  0.00     0.034 A 
ENDBRANCH   7  27
TORSDOF 8
ENDMDL
MODEL 5
REMARK VINA RESULT: -7.538427790      1.769      2.621
REMARK  8 active torsions:
REMARK  status: ('A' for Active; 'I' for Inactive)
REMARK    1  A    between atoms: C3_3  and  C4_4 
REMARK    2  A    between atoms: C4_4  and  C5_5 
REMARK    3  A    between atoms: C6_6  and  O1_7 
REMARK    4  A    between atoms: C9_10  and  O2_11 
REMARK    5  A    between atoms: C12_14  and  O3_15 
REMARK    6  A    between atoms: C14_17  and  N1_18 
REMARK    7  A    between atoms: N1_18  and  S1_20 
REMARK    8  A    between atoms: N3_26  and  C16_27 
ROOT
HETATM    1  C1  UNL     1       6.364   5.491  17.039  1.00  0.00     0.046 C 
HETATM    2  C2  UNL     1       6.773   6.023  18.204  1.00  0.00     0.061 A 
HETATM    3  C3  UNL     1       6.367   7.212  18.766  1.00  0.00     0.039 A 
HETATM    4  C14 UNL     1       7.051   7.357  19.965  1.00  0.00     0.142 A 
HETATM    5  N2  UNL     1       7.827   6.266  20.077  1.00  0.00    -0.277 N 
ATOM      6  H2  UNL     1       8.454   6.079  20.860  1.00  0.00     0.189 HD
HETATM    7  N3  UNL     1       7.670   5.468  19.036  1.00  0.00    -0.255 N 
ENDROOT
BRANCH   3   8
HETATM    8  C4  UNL     1       5.495   8.058  18.263  1.00  0.00     0.034 C 
BRANCH   8   9
HETATM    9  C5  UNL     1       5.775   9.044  17.255  1.00  0.00     0.032 A 
HETATM   10  C6  UNL     1       6.432  10.199  17.603  1.00  0.00     0.083 A 
HETATM   11  C8  UNL     1       6.723  11.185  16.651  1.00  0.00     0.074 A 
HETATM   12  C9  UNL     1       6.349  10.997  15.356  1.00  0.00     0.073 A 
HETATM   13  C11 UNL     1       5.696   9.861  14.982  1.00  0.00     0.074 A 
HETATM   14  C12 UNL     1       5.418   8.901  15.932  1.00  0.00     0.083 A 
BRANCH  10  15
HETATM   15  O1  UNL     1       6.823  10.423  18.889  1.00  0.00    -0.355 OA
HETATM   16  C7  UNL     1       7.654  11.448  19.335  1.00  0.00     0.210 C 
ENDBRANCH  10  15
BRANCH  12  17
HETATM   17  O2  UNL     1       6.621  11.959  14.364  1.00  0.00    -0.356 OA
HETATM   18  C10 UNL     1       7.525  11.611  13.325  1.00  0.00     0.210 C 
ENDBRANCH  12  17
BRANCH  14  19
HETATM   19  O3  UNL     1       4.765   7.767  15.557  1.00  0.00    -0.355 OA
HETATM   20  C13 UNL     1       4.805   7.338  14.214  1.00  0.00     0.210 C 
ENDBRANCH  14  19
ENDBRANCH   8   9
ENDBRANCH   3   8
BRANCH   4  21
HETATM   21  N1  UNL     1       6.945   8.354  20.794  1.00  0.00    -0.268 N 
ATOM     22  H1  UNL     1       6.097   8.920  20.760  1.00  0.00     0.180 HD
BRANCH  21  23
HETATM   23  S1  UNL     1       8.142   8.765  21.931  1.00  0.00     0.228 S 
HETATM   24  C15 UNL     1       7.745  10.151  22.934  1.00  0.00     0.186 C 
HETATM   25  O4  UNL     1       9.452   9.051  21.250  1.00  0.00    -0.206 OA
HETATM   26  O5  UNL     1       8.402   7.585  22.851  1.00  0.00    -0.206 OA
ENDBRANCH  21  23
ENDBRANCH   4  21
BRANCH   7  27
HETATM   27  C16 UNL     1       8.319   4.203  18.777  1.00  0.00     0.057 A 
HETATM   28  C17 UNL     1       7.852   3.042  19.366  1.00  0.00     0.034 A 
HETATM   29  C18 UNL     1       8.465   1.833  19.126  1.00  0.00     0.044 A 
HETATM   30  C19 UNL     1       9.569   1.783  18.279  1.00  0.00     0.116 A 
HETATM   31  F1  UNL     1      10.192   0.614  18.024  1.00  0.00    -0.206 F 
HETATM   32  C20 UNL     1      10.031   2.936  17.697  1.00  0.00     0.044 A 
HETATM   33  C21 UNL     1       9.407   4.122  17.951  1.00  0.00     0.034 A 
ENDBRANCH   7  27
TORSDOF 8
ENDMDL
