MODEL 1
REMARK VINA RESULT: -8.751468985      0.000      0.000
REMARK  7 active torsions:
REMARK  status: ('A' for Active; 'I' for Inactive)
REMARK    1  A    between atoms: S1_2  and  C2_5 
REMARK    2  A    between atoms: C5_8  and  C6_9 
REMARK    3  A    between atoms: C6_9  and  S2_10 
REMARK    4  A    between atoms: S2_10  and  C7_13 
REMARK    5  A    between atoms: C9_17  and  N2_18 
REMARK       I    between atoms: N2_18  and  C10_20 
REMARK    6  A    between atoms: C10_20  and  C11_22 
REMARK    7  A    between atoms: C11_22  and  C12_23 
ROOT
HETATM    1  C7  UNL     1       7.149   8.178  21.631  1.00  0.00     0.091 A 
HETATM    2  C8  UNL     1       7.802   6.980  21.739  1.00  0.00     0.131 A 
HETATM    3  N1  UNL     1       7.051   5.844  21.833  1.00  0.00    -0.200 N 
ATOM      4  H1  UNL     1       7.530   4.947  21.914  1.00  0.00     0.183 HD
HETATM    5  C9  UNL     1       5.724   5.855  21.823  1.00  0.00     0.684 A 
HETATM    6  N3  UNL     1       5.060   7.022  21.717  1.00  0.00    -0.200 N 
ATOM      7  H3  UNL     1       4.040   7.041  21.709  1.00  0.00     0.183 HD
HETATM    8  C18 UNL     1       5.779   8.181  21.621  1.00  0.00     0.131 A 
ENDROOT
BRANCH   1   9
HETATM    9  S2  UNL     1       8.070   9.650  21.510  1.00  0.00     0.182 S 
HETATM   10  O3  UNL     1       7.281  10.607  20.630  1.00  0.00    -0.222 OA
HETATM   11  O4  UNL     1       9.412   9.438  20.874  1.00  0.00    -0.222 OA
BRANCH   9  12
HETATM   12  C6  UNL     1       8.227  10.349  23.124  1.00  0.00     0.184 C 
BRANCH  12  13
HETATM   13  C5  UNL     1       9.117   9.585  24.006  1.00  0.00    -0.044 A 
HETATM   14  C4  UNL     1      10.490   9.650  23.877  1.00  0.00     0.009 A 
HETATM   15  C3  UNL     1      11.330   8.930  24.709  1.00  0.00     0.024 A 
HETATM   16  C2  UNL     1      10.825   8.116  25.702  1.00  0.00     0.058 A 
HETATM   17  C20 UNL     1       9.455   8.045  25.837  1.00  0.00     0.024 A 
HETATM   18  C19 UNL     1       8.618   8.764  25.007  1.00  0.00     0.009 A 
BRANCH  16  19
HETATM   19  S1  UNL     1      11.905   7.208  26.750  1.00  0.00     0.171 S 
HETATM   20  C1  UNL     1      11.050   5.790  27.381  1.00  0.00     0.167 C 
HETATM   21  O1  UNL     1      12.348   8.034  27.920  1.00  0.00    -0.223 OA
HETATM   22  O2  UNL     1      13.135   6.796  25.994  1.00  0.00    -0.223 OA
ENDBRANCH  16  19
ENDBRANCH  12  13
ENDBRANCH   9  12
ENDBRANCH   1   9
BRANCH   5  23
HETATM   23  N2  UNL     1       5.027   4.786  21.910  1.00  0.00    -0.159 N 
HETATM   24  C10 UNL     1       5.357   3.560  21.310  1.00  0.00     0.240 C 
HETATM   25  O5  UNL     1       5.630   2.551  22.009  1.00  0.00    -0.272 OA
ATOM     26  H2  UNL     1       4.166   4.827  22.457  1.00  0.00     0.187 HD
BRANCH  24  27
HETATM   27  C11 UNL     1       5.388   3.434  19.829  1.00  0.00     0.142 C 
BRANCH  27  28
HETATM   28  C12 UNL     1       6.765   3.218  19.335  1.00  0.00    -0.049 A 
HETATM   29  C13 UNL     1       7.394   1.995  19.362  1.00  0.00     0.011 A 
HETATM   30  C14 UNL     1       8.669   1.855  18.892  1.00  0.00     0.043 A 
HETATM   31  C15 UNL     1       9.367   2.942  18.374  1.00  0.00     0.116 A 
HETATM   32  F1  UNL     1      10.625   2.702  17.932  1.00  0.00    -0.206 F 
HETATM   33  C16 UNL     1       8.752   4.161  18.342  1.00  0.00     0.043 A 
HETATM   34  C17 UNL     1       7.475   4.285  18.817  1.00  0.00     0.011 A 
ENDBRANCH  27  28
ENDBRANCH  24  27
ENDBRANCH   5  23
TORSDOF 7
ENDMDL
MODEL 2
REMARK VINA RESULT: -8.604213589      2.599      3.387
REMARK  7 active torsions:
REMARK  status: ('A' for Active; 'I' for Inactive)
REMARK    1  A    between atoms: S1_2  and  C2_5 
REMARK    2  A    between atoms: C5_8  and  C6_9 
REMARK    3  A    between atoms: C6_9  and  S2_10 
REMARK    4  A    between atoms: S2_10  and  C7_13 
REMARK    5  A    between atoms: C9_17  and  N2_18 
REMARK       I    between atoms: N2_18  and  C10_20 
REMARK    6  A    between atoms: C10_20  and  C11_22 
REMARK    7  A    between atoms: C11_22  and  C12_23 
ROOT
HETATM    1  C7  UNL     1       5.193   7.094  21.835  1.00  0.00     0.091 A 
HETATM    2  C8  UNL     1       6.122   6.095  21.725  1.00  0.00     0.131 A 
HETATM    3  N1  UNL     1       6.700   5.886  20.506  1.00  0.00    -0.200 N 
ATOM      4  H1  UNL     1       7.393   5.142  20.416  1.00  0.00     0.183 HD
HETATM    5  C9  UNL     1       6.399   6.606  19.433  1.00  0.00     0.684 A 
HETATM    6  N3  UNL     1       5.489   7.595  19.518  1.00  0.00    -0.200 N 
ATOM      7  H3  UNL     1       5.251   8.155  18.699  1.00  0.00     0.183 HD
HETATM    8  C18 UNL     1       4.889   7.835  20.723  1.00  0.00     0.131 A 
ENDROOT
BRANCH   1   9
HETATM    9  S2  UNL     1       4.432   7.394  23.371  1.00  0.00     0.182 S 
HETATM   10  O3  UNL     1       4.854   6.276  24.312  1.00  0.00    -0.222 OA
HETATM   11  O4  UNL     1       2.935   7.381  23.284  1.00  0.00    -0.222 OA
BRANCH   9  12
HETATM   12  C6  UNL     1       5.025   8.932  24.002  1.00  0.00     0.184 C 
BRANCH  12  13
HETATM   13  C5  UNL     1       6.454   8.912  24.339  1.00  0.00    -0.044 A 
HETATM   14  C4  UNL     1       6.924   8.236  25.446  1.00  0.00     0.009 A 
HETATM   15  C3  UNL     1       8.272   8.217  25.765  1.00  0.00     0.024 A 
HETATM   16  C2  UNL     1       9.198   8.876  24.985  1.00  0.00     0.058 A 
HETATM   17  C20 UNL     1       8.737   9.555  23.876  1.00  0.00     0.024 A 
HETATM   18  C19 UNL     1       7.392   9.573  23.561  1.00  0.00     0.009 A 
BRANCH  16  19
HETATM   19  S1  UNL     1      10.906   8.843  25.401  1.00  0.00     0.171 S 
HETATM   20  C1  UNL     1      11.197   7.544  26.569  1.00  0.00     0.167 C 
HETATM   21  O1  UNL     1      11.335  10.132  26.034  1.00  0.00    -0.223 OA
HETATM   22  O2  UNL     1      11.736   8.646  24.166  1.00  0.00    -0.223 OA
ENDBRANCH  16  19
ENDBRANCH  12  13
ENDBRANCH   9  12
ENDBRANCH   1   9
BRANCH   5  23
HETATM   23  N2  UNL     1       6.946   6.405  18.294  1.00  0.00    -0.159 N 
HETATM   24  C10 UNL     1       6.334   5.745  17.215  1.00  0.00     0.240 C 
HETATM   25  O5  UNL     1       6.073   6.356  16.149  1.00  0.00    -0.272 OA
ATOM     26  H2  UNL     1       7.896   6.749  18.159  1.00  0.00     0.187 HD
BRANCH  24  27
HETATM   27  C11 UNL     1       5.986   4.303  17.317  1.00  0.00     0.142 C 
BRANCH  27  28
HETATM   28  C12 UNL     1       7.187   3.474  17.558  1.00  0.00    -0.049 A 
HETATM   29  C13 UNL     1       8.277   3.462  16.719  1.00  0.00     0.011 A 
HETATM   30  C14 UNL     1       9.360   2.675  16.992  1.00  0.00     0.043 A 
HETATM   31  C15 UNL     1       9.392   1.865  18.123  1.00  0.00     0.116 A 
HETATM   32  F1  UNL     1      10.509   1.121  18.307  1.00  0.00    -0.206 F 
HETATM   33  C16 UNL     1       8.315   1.868  18.963  1.00  0.00     0.043 A 
HETATM   34  C17 UNL     1       7.238   2.662  18.675  1.00  0.00     0.011 A 
ENDBRANCH  27  28
ENDBRANCH  24  27
ENDBRANCH   5  23
TORSDOF 7
ENDMDL
MODEL 3
REMARK VINA RESULT: -8.300596754      3.967      8.058
REMARK  7 active torsions:
REMARK  status: ('A' for Active; 'I' for Inactive)
REMARK    1  A    between atoms: S1_2  and  C2_5 
REMARK    2  A    between atoms: C5_8  and  C6_9 
REMARK    3  A    between atoms: C6_9  and  S2_10 
REMARK    4  A    between atoms: S2_10  and  C7_13 
REMARK    5  A    between atoms: C9_17  and  N2_18 
REMARK       I    between atoms: N2_18  and  C10_20 
REMARK    6  A    between atoms: C10_20  and  C11_22 
REMARK    7  A    between atoms: C11_22  and  C12_23 
ROOT
HETATM    1  C7  UNL     1       6.286   5.703  20.179  1.00  0.00     0.091 A 
HETATM    2  C8  UNL     1       7.476   5.681  20.854  1.00  0.00     0.131 A 
HETATM    3  N1  UNL     1       7.536   6.296  22.072  1.00  0.00    -0.200 N 
ATOM      4  H1  UNL     1       8.420   6.284  22.581  1.00  0.00     0.183 HD
HETATM    5  C9  UNL     1       6.495   6.909  22.621  1.00  0.00     0.684 A 
HETATM    6  N3  UNL     1       5.314   6.943  21.974  1.00  0.00    -0.200 N 
ATOM      7  H3  UNL     1       4.508   7.411  22.388  1.00  0.00     0.183 HD
HETATM    8  C18 UNL     1       5.215   6.337  20.753  1.00  0.00     0.131 A 
ENDROOT
BRANCH   1   9
HETATM    9  S2  UNL     1       6.167   4.931  18.623  1.00  0.00     0.182 S 
HETATM   10  O3  UNL     1       7.484   5.164  17.900  1.00  0.00    -0.222 OA
HETATM   11  O4  UNL     1       5.069   5.506  17.778  1.00  0.00    -0.222 OA
BRANCH   9  12
HETATM   12  C6  UNL     1       5.945   3.197  18.872  1.00  0.00     0.184 C 
BRANCH  12  13
HETATM   13  C5  UNL     1       5.160   2.876  20.069  1.00  0.00    -0.044 A 
HETATM   14  C4  UNL     1       3.783   2.975  20.077  1.00  0.00     0.009 A 
HETATM   15  C3  UNL     1       3.042   2.672  21.207  1.00  0.00     0.024 A 
HETATM   16  C2  UNL     1       3.653   2.258  22.371  1.00  0.00     0.058 A 
HETATM   17  C20 UNL     1       5.028   2.155  22.372  1.00  0.00     0.024 A 
HETATM   18  C19 UNL     1       5.766   2.458  21.244  1.00  0.00     0.009 A 
BRANCH  16  19
HETATM   19  S1  UNL     1       2.699   1.876  23.797  1.00  0.00     0.171 S 
HETATM   20  C1  UNL     1       1.005   1.661  23.326  1.00  0.00     0.167 C 
HETATM   21  O1  UNL     1       2.757   2.986  24.803  1.00  0.00    -0.223 OA
HETATM   22  O2  UNL     1       3.230   0.637  24.459  1.00  0.00    -0.223 OA
ENDBRANCH  16  19
ENDBRANCH  12  13
ENDBRANCH   9  12
ENDBRANCH   1   9
BRANCH   5  23
HETATM   23  N2  UNL     1       6.559   7.482  23.763  1.00  0.00    -0.159 N 
HETATM   24  C10 UNL     1       6.959   8.813  23.973  1.00  0.00     0.240 C 
HETATM   25  O5  UNL     1       6.153   9.667  24.419  1.00  0.00    -0.272 OA
ATOM     26  H2  UNL     1       6.299   6.933  24.582  1.00  0.00     0.187 HD
BRANCH  24  27
HETATM   27  C11 UNL     1       8.353   9.233  23.670  1.00  0.00     0.142 C 
BRANCH  27  28
HETATM   28  C12 UNL     1       9.300   8.732  24.688  1.00  0.00    -0.049 A 
HETATM   29  C13 UNL     1       8.907   8.051  25.815  1.00  0.00     0.011 A 
HETATM   30  C14 UNL     1       9.829   7.611  26.724  1.00  0.00     0.043 A 
HETATM   31  C15 UNL     1      11.188   7.840  26.535  1.00  0.00     0.116 A 
HETATM   32  F1  UNL     1      12.023   7.366  27.490  1.00  0.00    -0.206 F 
HETATM   33  C16 UNL     1      11.591   8.517  25.419  1.00  0.00     0.043 A 
HETATM   34  C17 UNL     1      10.655   8.950  24.519  1.00  0.00     0.011 A 
ENDBRANCH  27  28
ENDBRANCH  24  27
ENDBRANCH   5  23
TORSDOF 7
ENDMDL
MODEL 4
REMARK VINA RESULT: -8.274328705      3.932      5.984
REMARK  7 active torsions:
REMARK  status: ('A' for Active; 'I' for Inactive)
REMARK    1  A    between atoms: S1_2  and  C2_5 
REMARK    2  A    between atoms: C5_8  and  C6_9 
REMARK    3  A    between atoms: C6_9  and  S2_10 
REMARK    4  A    between atoms: S2_10  and  C7_13 
REMARK    5  A    between atoms: C9_17  and  N2_18 
REMARK       I    between atoms: N2_18  and  C10_20 
REMARK    6  A    between atoms: C10_20  and  C11_22 
REMARK    7  A    between atoms: C11_22  and  C12_23 
ROOT
HETATM    1  C7  UNL     1       6.266   7.466  21.935  1.00  0.00     0.091 A 
HETATM    2  C8  UNL     1       5.989   8.358  20.933  1.00  0.00     0.131 A 
HETATM    3  N1  UNL     1       5.383   7.888  19.804  1.00  0.00    -0.200 N 
ATOM      4  H1  UNL     1       5.174   8.547  19.053  1.00  0.00     0.183 HD
HETATM    5  C9  UNL     1       5.054   6.614  19.639  1.00  0.00     0.684 A 
HETATM    6  N3  UNL     1       5.316   5.718  20.611  1.00  0.00    -0.200 N 
ATOM      7  H3  UNL     1       5.068   4.736  20.494  1.00  0.00     0.183 HD
HETATM    8  C18 UNL     1       5.922   6.151  21.758  1.00  0.00     0.131 A 
ENDROOT
BRANCH   1   9
HETATM    9  S2  UNL     1       7.038   8.023  23.391  1.00  0.00     0.182 S 
HETATM   10  O3  UNL     1       7.039   9.543  23.351  1.00  0.00    -0.222 OA
HETATM   11  O4  UNL     1       8.462   7.564  23.498  1.00  0.00    -0.222 OA
BRANCH   9  12
HETATM   12  C6  UNL     1       6.084   7.484  24.775  1.00  0.00     0.184 C 
BRANCH  12  13
HETATM   13  C5  UNL     1       4.719   8.024  24.788  1.00  0.00    -0.044 A 
HETATM   14  C4  UNL     1       3.636   7.255  24.413  1.00  0.00     0.009 A 
HETATM   15  C3  UNL     1       2.348   7.764  24.424  1.00  0.00     0.024 A 
HETATM   16  C2  UNL     1       2.098   9.063  24.813  1.00  0.00     0.058 A 
HETATM   17  C20 UNL     1       3.175   9.838  25.190  1.00  0.00     0.024 A 
HETATM   18  C19 UNL     1       4.458   9.329  25.178  1.00  0.00     0.009 A 
BRANCH  16  19
HETATM   19  S1  UNL     1       0.458   9.695  24.823  1.00  0.00     0.171 S 
HETATM   20  C1  UNL     1      -0.619   8.539  24.021  1.00  0.00     0.167 C 
HETATM   21  O1  UNL     1       0.372  10.994  24.080  1.00  0.00    -0.223 OA
HETATM   22  O2  UNL     1       0.010   9.949  26.234  1.00  0.00    -0.223 OA
ENDBRANCH  16  19
ENDBRANCH  12  13
ENDBRANCH   9  12
ENDBRANCH   1   9
BRANCH   5  23
HETATM   23  N2  UNL     1       4.486   6.181  18.578  1.00  0.00    -0.159 N 
HETATM   24  C10 UNL     1       5.043   5.244  17.692  1.00  0.00     0.240 C 
HETATM   25  O5  UNL     1       4.523   4.111  17.539  1.00  0.00    -0.272 OA
ATOM     26  H2  UNL     1       3.558   6.544  18.358  1.00  0.00     0.187 HD
BRANCH  24  27
HETATM   27  C11 UNL     1       6.266   5.581  16.915  1.00  0.00     0.142 C 
BRANCH  27  28
HETATM   28  C12 UNL     1       7.358   4.622  17.187  1.00  0.00    -0.049 A 
HETATM   29  C13 UNL     1       7.836   3.737  16.250  1.00  0.00     0.011 A 
HETATM   30  C14 UNL     1       8.849   2.872  16.558  1.00  0.00     0.043 A 
HETATM   31  C15 UNL     1       9.423   2.862  17.825  1.00  0.00     0.116 A 
HETATM   32  F1  UNL     1      10.420   1.969  18.034  1.00  0.00    -0.206 F 
HETATM   33  C16 UNL     1       8.956   3.737  18.764  1.00  0.00     0.043 A 
HETATM   34  C17 UNL     1       7.941   4.597  18.440  1.00  0.00     0.011 A 
ENDBRANCH  27  28
ENDBRANCH  24  27
ENDBRANCH   5  23
TORSDOF 7
ENDMDL
MODEL 5
REMARK VINA RESULT: -8.261198155      2.660      3.231
REMARK  7 active torsions:
REMARK  status: ('A' for Active; 'I' for Inactive)
REMARK    1  A    between atoms: S1_2  and  C2_5 
REMARK    2  A    between atoms: C5_8  and  C6_9 
REMARK    3  A    between atoms: C6_9  and  S2_10 
REMARK    4  A    between atoms: S2_10  and  C7_13 
REMARK    5  A    between atoms: C9_17  and  N2_18 
REMARK       I    between atoms: N2_18  and  C10_20 
REMARK    6  A    between atoms: C10_20  and  C11_22 
REMARK    7  A    between atoms: C11_22  and  C12_23 
ROOT
HETATM    1  C7  UNL     1       6.175   7.800  19.396  1.00  0.00     0.091 A 
HETATM    2  C8  UNL     1       6.921   6.676  19.631  1.00  0.00     0.131 A 
HETATM    3  N1  UNL     1       7.055   5.770  18.618  1.00  0.00    -0.200 N 
ATOM      4  H1  UNL     1       7.610   4.930  18.785  1.00  0.00     0.183 HD
HETATM    5  C9  UNL     1       6.496   5.934  17.426  1.00  0.00     0.684 A 
HETATM    6  N3  UNL     1       5.757   7.032  17.172  1.00  0.00    -0.200 N 
ATOM      7  H3  UNL     1       5.323   7.167  16.259  1.00  0.00     0.183 HD
HETATM    8  C18 UNL     1       5.601   7.962  18.162  1.00  0.00     0.131 A 
ENDROOT
BRANCH   1   9
HETATM    9  S2  UNL     1       5.979   8.979  20.660  1.00  0.00     0.182 S 
HETATM   10  O3  UNL     1       4.654   9.686  20.419  1.00  0.00    -0.222 OA
HETATM   11  O4  UNL     1       7.062  10.017  20.652  1.00  0.00    -0.222 OA
BRANCH   9  12
HETATM   12  C6  UNL     1       5.908   8.136  22.210  1.00  0.00     0.184 C 
BRANCH  12  13
HETATM   13  C5  UNL     1       7.142   8.256  22.995  1.00  0.00    -0.044 A 
HETATM   14  C4  UNL     1       7.154   8.034  24.358  1.00  0.00     0.009 A 
HETATM   15  C3  UNL     1       8.318   8.147  25.099  1.00  0.00     0.024 A 
HETATM   16  C2  UNL     1       9.513   8.488  24.503  1.00  0.00     0.058 A 
HETATM   17  C20 UNL     1       9.510   8.711  23.142  1.00  0.00     0.024 A 
HETATM   18  C19 UNL     1       8.349   8.598  22.404  1.00  0.00     0.009 A 
BRANCH  16  19
HETATM   19  S1  UNL     1      10.983   8.627  25.458  1.00  0.00     0.171 S 
HETATM   20  C1  UNL     1      10.913   7.483  26.808  1.00  0.00     0.167 C 
HETATM   21  O1  UNL     1      11.129  10.004  26.031  1.00  0.00    -0.223 OA
HETATM   22  O2  UNL     1      12.186   8.364  24.598  1.00  0.00    -0.223 OA
ENDBRANCH  16  19
ENDBRANCH  12  13
ENDBRANCH   9  12
ENDBRANCH   1   9
BRANCH   5  23
HETATM   23  N2  UNL     1       6.626   5.081  16.482  1.00  0.00    -0.159 N 
HETATM   24  C10 UNL     1       5.752   4.007  16.242  1.00  0.00     0.240 C 
HETATM   25  O5  UNL     1       5.067   3.956  15.190  1.00  0.00    -0.272 OA
ATOM     26  H2  UNL     1       7.425   5.188  15.856  1.00  0.00     0.187 HD
BRANCH  24  27
HETATM   27  C11 UNL     1       5.625   2.908  17.235  1.00  0.00     0.142 C 
BRANCH  27  28
HETATM   28  C12 UNL     1       6.943   2.330  17.571  1.00  0.00    -0.049 A 
HETATM   29  C13 UNL     1       7.446   2.289  18.850  1.00  0.00     0.011 A 
HETATM   30  C14 UNL     1       8.673   1.742  19.102  1.00  0.00     0.043 A 
HETATM   31  C15 UNL     1       9.447   1.212  18.074  1.00  0.00     0.116 A 
HETATM   32  F1  UNL     1      10.648   0.692  18.423  1.00  0.00    -0.206 F 
HETATM   33  C16 UNL     1       8.957   1.246  16.799  1.00  0.00     0.043 A 
HETATM   34  C17 UNL     1       7.727   1.798  16.564  1.00  0.00     0.011 A 
ENDBRANCH  27  28
ENDBRANCH  24  27
ENDBRANCH   5  23
TORSDOF 7
ENDMDL
