MODEL 1
REMARK VINA RESULT: -6.004996570      0.000      0.000
REMARK  6 active torsions:
REMARK  status: ('A' for Active; 'I' for Inactive)
REMARK    1  A    between atoms: O1_1  and  C1_3 
REMARK    2  A    between atoms: C1_3  and  N1_4 
REMARK    3  A    between atoms: C1_3  and  C8_12 
REMARK    4  A    between atoms: N1_4  and  C2_6 
REMARK    5  A    between atoms: C8_12  and  O2_13 
REMARK    6  A    between atoms: C8_12  and  C9_15 
ROOT
HETATM    1  C1  UNL     1      14.367  29.928  -4.222  1.00  0.00     0.247 C 
ENDROOT
BRANCH   1   2
HETATM    2  O1  UNL     1      13.960  28.628  -3.981  1.00  0.00    -0.374 OA
ATOM      3  H1  UNL     1      13.079  28.609  -3.628  1.00  0.00     0.212 HD
ENDBRANCH   1   2
BRANCH   1   4
HETATM    4  N1  UNL     1      14.741  30.099  -5.593  1.00  0.00    -0.390 N 
ATOM      5  H1  UNL     1      15.649  29.791  -5.940  1.00  0.00     0.156 HD
BRANCH   4   6
HETATM    6  C2  UNL     1      13.798  30.714  -6.445  1.00  0.00     0.079 C 
HETATM    7  C3  UNL     1      14.338  31.278  -7.718  1.00  0.00     0.025 C 
HETATM    8  C4  UNL     1      13.174  31.844  -8.500  1.00  0.00     0.002 C 
HETATM    9  C5  UNL     1      11.837  31.379  -7.963  1.00  0.00     0.000 C 
HETATM   10  C6  UNL     1      11.623  31.810  -6.523  1.00  0.00     0.002 C 
HETATM   11  C7  UNL     1      12.965  31.796  -5.780  1.00  0.00     0.025 C 
ENDBRANCH   4   6
ENDBRANCH   1   4
BRANCH   1  12
HETATM   12  C8  UNL     1      15.608  30.254  -3.411  1.00  0.00     0.207 C 
BRANCH  12  13
HETATM   13  O2  UNL     1      15.971  31.560  -3.766  1.00  0.00    -0.386 OA
ATOM     14  H2  UNL     1      16.750  31.763  -3.261  1.00  0.00     0.210 HD
ENDBRANCH  12  13
BRANCH  12  15
HETATM   15  C9  UNL     1      15.360  30.225  -1.942  1.00  0.00     0.034 A 
HETATM   16  C10 UNL     1      14.772  31.172  -1.143  1.00  0.00     0.107 A 
HETATM   17  N2  UNL     1      14.661  30.920   0.131  1.00  0.00    -0.350 N 
HETATM   18  C11 UNL     1      15.124  29.758   0.593  1.00  0.00     0.143 A 
ATOM     19  H2  UNL     1      14.230  31.596   0.760  1.00  0.00     0.166 HD
HETATM   20  S1  UNL     1      15.103  29.205   2.156  1.00  0.00    -0.052 SA
HETATM   21  S2  UNL     1      15.731  29.003  -0.811  1.00  0.00    -0.061 SA
ENDBRANCH  12  15
ENDBRANCH   1  12
TORSDOF 6
ENDMDL
MODEL 2
REMARK VINA RESULT: -5.937827041      1.841      2.400
REMARK  6 active torsions:
REMARK  status: ('A' for Active; 'I' for Inactive)
REMARK    1  A    between atoms: O1_1  and  C1_3 
REMARK    2  A    between atoms: C1_3  and  N1_4 
REMARK    3  A    between atoms: C1_3  and  C8_12 
REMARK    4  A    between atoms: N1_4  and  C2_6 
REMARK    5  A    between atoms: C8_12  and  O2_13 
REMARK    6  A    between atoms: C8_12  and  C9_15 
ROOT
HETATM    1  C1  UNL     1      13.449  31.027  -3.617  1.00  0.00     0.247 C 
ENDROOT
BRANCH   1   2
HETATM    2  O1  UNL     1      13.723  29.682  -3.447  1.00  0.00    -0.374 OA
ATOM      3  H1  UNL     1      12.922  29.186  -3.328  1.00  0.00     0.212 HD
ENDBRANCH   1   2
BRANCH   1   4
HETATM    4  N1  UNL     1      14.248  31.582  -4.667  1.00  0.00    -0.390 N 
ATOM      5  H1  UNL     1      15.152  32.015  -4.477  1.00  0.00     0.156 HD
BRANCH   4   6
HETATM    6  C2  UNL     1      13.731  31.504  -5.978  1.00  0.00     0.079 C 
HETATM    7  C3  UNL     1      12.249  31.640  -6.104  1.00  0.00     0.025 C 
HETATM    8  C4  UNL     1      11.905  31.575  -7.576  1.00  0.00     0.002 C 
HETATM    9  C5  UNL     1      13.122  31.745  -8.461  1.00  0.00     0.000 C 
HETATM   10  C6  UNL     1      14.153  30.656  -8.223  1.00  0.00     0.002 C 
HETATM   11  C7  UNL     1      14.144  30.258  -6.742  1.00  0.00     0.025 C 
ENDBRANCH   4   6
ENDBRANCH   1   4
BRANCH   1  12
HETATM   12  C8  UNL     1      13.814  31.804  -2.365  1.00  0.00     0.207 C 
BRANCH  12  13
HETATM   13  O2  UNL     1      12.702  31.717  -1.517  1.00  0.00    -0.386 OA
ATOM     14  H2  UNL     1      13.048  31.612  -0.638  1.00  0.00     0.210 HD
ENDBRANCH  12  13
BRANCH  12  15
HETATM   15  C9  UNL     1      14.988  31.228  -1.650  1.00  0.00     0.034 A 
HETATM   16  C10 UNL     1      15.039  30.603  -0.431  1.00  0.00     0.107 A 
HETATM   17  N2  UNL     1      16.195  30.175  -0.007  1.00  0.00    -0.350 N 
HETATM   18  C11 UNL     1      17.267  30.365  -0.777  1.00  0.00     0.143 A 
ATOM     19  H2  UNL     1      16.278  29.705   0.894  1.00  0.00     0.166 HD
HETATM   20  S1  UNL     1      18.833  29.917  -0.468  1.00  0.00    -0.052 SA
HETATM   21  S2  UNL     1      16.623  31.170  -2.137  1.00  0.00    -0.061 SA
ENDBRANCH  12  15
ENDBRANCH   1  12
TORSDOF 6
ENDMDL
MODEL 3
REMARK VINA RESULT: -5.911568246      2.011      2.504
REMARK  6 active torsions:
REMARK  status: ('A' for Active; 'I' for Inactive)
REMARK    1  A    between atoms: O1_1  and  C1_3 
REMARK    2  A    between atoms: C1_3  and  N1_4 
REMARK    3  A    between atoms: C1_3  and  C8_12 
REMARK    4  A    between atoms: N1_4  and  C2_6 
REMARK    5  A    between atoms: C8_12  and  O2_13 
REMARK    6  A    between atoms: C8_12  and  C9_15 
ROOT
HETATM    1  C1  UNL     1      15.434  32.507  -4.827  1.00  0.00     0.247 C 
ENDROOT
BRANCH   1   2
HETATM    2  O1  UNL     1      15.642  33.333  -5.918  1.00  0.00    -0.374 OA
ATOM      3  H1  UNL     1      15.051  33.112  -6.627  1.00  0.00     0.212 HD
ENDBRANCH   1   2
BRANCH   1   4
HETATM    4  N1  UNL     1      14.196  31.799  -4.953  1.00  0.00    -0.390 N 
ATOM      5  H1  UNL     1      13.716  31.419  -4.137  1.00  0.00     0.156 HD
BRANCH   4   6
HETATM    6  C2  UNL     1      13.669  31.651  -6.253  1.00  0.00     0.079 C 
HETATM    7  C3  UNL     1      12.182  31.728  -6.368  1.00  0.00     0.025 C 
HETATM    8  C4  UNL     1      11.826  31.592  -7.831  1.00  0.00     0.002 C 
HETATM    9  C5  UNL     1      13.026  31.771  -8.736  1.00  0.00     0.000 C 
HETATM   10  C6  UNL     1      14.099  30.730  -8.468  1.00  0.00     0.002 C 
HETATM   11  C7  UNL     1      14.120  30.391  -6.972  1.00  0.00     0.025 C 
ENDBRANCH   4   6
ENDBRANCH   1   4
BRANCH   1  12
HETATM   12  C8  UNL     1      15.316  33.327  -3.556  1.00  0.00     0.207 C 
BRANCH  12  13
HETATM   13  O2  UNL     1      14.176  34.127  -3.714  1.00  0.00    -0.386 OA
ATOM     14  H2  UNL     1      13.716  34.098  -2.884  1.00  0.00     0.210 HD
ENDBRANCH  12  13
BRANCH  12  15
HETATM   15  C9  UNL     1      15.125  32.484  -2.341  1.00  0.00     0.034 A 
HETATM   16  C10 UNL     1      14.144  32.552  -1.385  1.00  0.00     0.107 A 
HETATM   17  N2  UNL     1      14.183  31.696  -0.403  1.00  0.00    -0.350 N 
HETATM   18  C11 UNL     1      15.170  30.800  -0.376  1.00  0.00     0.143 A 
ATOM     19  H2  UNL     1      13.473  31.711   0.330  1.00  0.00     0.166 HD
HETATM   20  S1  UNL     1      15.438  29.617   0.754  1.00  0.00    -0.052 SA
HETATM   21  S2  UNL     1      16.067  31.178  -1.777  1.00  0.00    -0.061 SA
ENDBRANCH  12  15
ENDBRANCH   1  12
TORSDOF 6
ENDMDL
MODEL 4
REMARK VINA RESULT: -5.892220722      3.747      6.167
REMARK  6 active torsions:
REMARK  status: ('A' for Active; 'I' for Inactive)
REMARK    1  A    between atoms: O1_1  and  C1_3 
REMARK    2  A    between atoms: C1_3  and  N1_4 
REMARK    3  A    between atoms: C1_3  and  C8_12 
REMARK    4  A    between atoms: N1_4  and  C2_6 
REMARK    5  A    between atoms: C8_12  and  O2_13 
REMARK    6  A    between atoms: C8_12  and  C9_15 
ROOT
HETATM    1  C1  UNL     1      13.886  29.580  -2.262  1.00  0.00     0.247 C 
ENDROOT
BRANCH   1   2
HETATM    2  O1  UNL     1      13.048  28.489  -2.413  1.00  0.00    -0.374 OA
ATOM      3  H1  UNL     1      12.861  28.330  -3.330  1.00  0.00     0.212 HD
ENDBRANCH   1   2
BRANCH   1   4
HETATM    4  N1  UNL     1      14.362  29.675  -0.916  1.00  0.00    -0.390 N 
ATOM      5  H1  UNL     1      13.755  29.988  -0.158  1.00  0.00     0.156 HD
BRANCH   4   6
HETATM    6  C2  UNL     1      15.707  29.318  -0.683  1.00  0.00     0.079 C 
HETATM    7  C3  UNL     1      15.962  27.870  -0.421  1.00  0.00     0.025 C 
HETATM    8  C4  UNL     1      17.453  27.691  -0.243  1.00  0.00     0.002 C 
HETATM    9  C5  UNL     1      18.239  28.896  -0.713  1.00  0.00     0.000 C 
HETATM   10  C6  UNL     1      17.873  30.150   0.062  1.00  0.00     0.002 C 
HETATM   11  C7  UNL     1      16.382  30.110   0.424  1.00  0.00     0.025 C 
ENDBRANCH   4   6
ENDBRANCH   1   4
BRANCH   1  12
HETATM   12  C8  UNL     1      13.129  30.869  -2.526  1.00  0.00     0.207 C 
BRANCH  12  13
HETATM   13  O2  UNL     1      12.233  31.019  -1.459  1.00  0.00    -0.386 OA
ATOM     14  H2  UNL     1      12.190  31.951  -1.280  1.00  0.00     0.210 HD
ENDBRANCH  12  13
BRANCH  12  15
HETATM   15  C9  UNL     1      14.018  32.065  -2.556  1.00  0.00     0.034 A 
HETATM   16  C10 UNL     1      15.030  32.370  -3.431  1.00  0.00     0.107 A 
HETATM   17  N2  UNL     1      15.675  33.489  -3.257  1.00  0.00    -0.350 N 
HETATM   18  C11 UNL     1      15.323  34.278  -2.242  1.00  0.00     0.143 A 
ATOM     19  H2  UNL     1      16.434  33.755  -3.884  1.00  0.00     0.166 HD
HETATM   20  S1  UNL     1      15.981  35.738  -1.813  1.00  0.00    -0.052 SA
HETATM   21  S2  UNL     1      14.044  33.415  -1.514  1.00  0.00    -0.061 SA
ENDBRANCH  12  15
ENDBRANCH   1  12
TORSDOF 6
ENDMDL
MODEL 5
REMARK VINA RESULT: -5.862690125      9.359     10.702
REMARK  6 active torsions:
REMARK  status: ('A' for Active; 'I' for Inactive)
REMARK    1  A    between atoms: O1_1  and  C1_3 
REMARK    2  A    between atoms: C1_3  and  N1_4 
REMARK    3  A    between atoms: C1_3  and  C8_12 
REMARK    4  A    between atoms: N1_4  and  C2_6 
REMARK    5  A    between atoms: C8_12  and  O2_13 
REMARK    6  A    between atoms: C8_12  and  C9_15 
ROOT
HETATM    1  C1  UNL     1      21.920  35.946  -4.916  1.00  0.00     0.247 C 
ENDROOT
BRANCH   1   2
HETATM    2  O1  UNL     1      23.114  35.794  -4.234  1.00  0.00    -0.374 OA
ATOM      3  H1  UNL     1      23.817  36.257  -4.673  1.00  0.00     0.212 HD
ENDBRANCH   1   2
BRANCH   1   4
HETATM    4  N1  UNL     1      20.973  36.678  -4.130  1.00  0.00    -0.390 N 
ATOM      5  H1  UNL     1      20.446  36.231  -3.381  1.00  0.00     0.156 HD
BRANCH   4   6
HETATM    6  C2  UNL     1      20.802  38.044  -4.438  1.00  0.00     0.079 C 
HETATM    7  C3  UNL     1      21.906  38.954  -4.009  1.00  0.00     0.025 C 
HETATM    8  C4  UNL     1      21.554  40.352  -4.468  1.00  0.00     0.002 C 
HETATM    9  C5  UNL     1      20.430  40.361  -5.483  1.00  0.00     0.000 C 
HETATM   10  C6  UNL     1      19.150  39.771  -4.916  1.00  0.00     0.002 C 
HETATM   11  C7  UNL     1      19.496  38.640  -3.940  1.00  0.00     0.025 C 
ENDBRANCH   4   6
ENDBRANCH   1   4
BRANCH   1  12
HETATM   12  C8  UNL     1      21.283  34.594  -5.178  1.00  0.00     0.207 C 
BRANCH  12  13
HETATM   13  O2  UNL     1      19.914  34.837  -5.354  1.00  0.00    -0.386 OA
ATOM     14  H2  UNL     1      19.844  35.723  -5.688  1.00  0.00     0.210 HD
ENDBRANCH  12  13
BRANCH  12  15
HETATM   15  C9  UNL     1      21.801  33.942  -6.415  1.00  0.00     0.034 A 
HETATM   16  C10 UNL     1      21.208  33.827  -7.646  1.00  0.00     0.107 A 
HETATM   17  N2  UNL     1      21.863  33.209  -8.588  1.00  0.00    -0.350 N 
HETATM   18  C11 UNL     1      23.072  32.720  -8.310  1.00  0.00     0.143 A 
ATOM     19  H2  UNL     1      21.460  33.100  -9.519  1.00  0.00     0.166 HD
HETATM   20  S1  UNL     1      24.096  31.901  -9.324  1.00  0.00    -0.052 SA
HETATM   21  S2  UNL     1      23.288  33.147  -6.672  1.00  0.00    -0.061 SA
ENDBRANCH  12  15
ENDBRANCH   1  12
TORSDOF 6
ENDMDL
