MODEL 1
REMARK VINA RESULT: -4.565387808      0.000      0.000
REMARK  2 active torsions:
REMARK  status: ('A' for Active; 'I' for Inactive)
REMARK    1  A    between atoms: C2_2  and  O1_3 
REMARK    2  A    between atoms: O1_3  and  C3_4 
ROOT
HETATM    1  C3  UNL     1      -0.749  19.645  23.330  1.00  0.00     0.084 A 
HETATM    2  C4  UNL     1      -0.905  18.566  22.583  1.00  0.00     0.043 A 
HETATM    3  C5  UNL     1       0.451  18.135  22.944  1.00  0.00     0.249 A 
HETATM    4  N1  UNL     1       1.548  18.984  22.616  1.00  0.00    -0.053 N 
ATOM      5  H11 UNL     1       1.877  19.479  21.787  1.00  0.00     0.279 HD
ATOM      6  H12 UNL     1       2.554  18.876  22.491  1.00  0.00     0.279 HD
HETATM    7  C6  UNL     1       0.645  19.267  23.726  1.00  0.00     0.277 A 
ENDROOT
BRANCH   1   8
HETATM    8  O1  UNL     1      -1.622  20.691  23.583  1.00  0.00    -0.326 OA
BRANCH   8   9
HETATM    9  C2  UNL     1      -1.469  21.945  22.992  1.00  0.00     0.132 C 
HETATM   10  C1  UNL     1      -2.196  22.917  23.513  1.00  0.00     0.037 C 
ENDBRANCH   8   9
ENDBRANCH   1   8
TORSDOF 2
ENDMDL
MODEL 2
REMARK VINA RESULT: -4.424699859      2.271      4.349
REMARK  2 active torsions:
REMARK  status: ('A' for Active; 'I' for Inactive)
REMARK    1  A    between atoms: C2_2  and  O1_3 
REMARK    2  A    between atoms: O1_3  and  C3_4 
ROOT
HETATM    1  C3  UNL     1      -2.026  22.015  23.639  1.00  0.00     0.084 A 
HETATM    2  C4  UNL     1      -2.937  22.859  24.091  1.00  0.00     0.043 A 
HETATM    3  C5  UNL     1      -2.270  23.947  23.366  1.00  0.00     0.249 A 
HETATM    4  N1  UNL     1      -0.912  24.246  23.680  1.00  0.00    -0.053 N 
ATOM      5  H11 UNL     1      -0.371  24.418  24.527  1.00  0.00     0.279 HD
ATOM      6  H12 UNL     1      -0.287  25.044  23.568  1.00  0.00     0.279 HD
HETATM    7  C6  UNL     1      -1.294  23.082  22.887  1.00  0.00     0.277 A 
ENDROOT
BRANCH   1   8
HETATM    8  O1  UNL     1      -1.887  20.652  23.851  1.00  0.00    -0.326 OA
BRANCH   8   9
HETATM    9  C2  UNL     1      -1.144  19.841  22.993  1.00  0.00     0.132 C 
HETATM   10  C1  UNL     1      -0.402  18.917  23.579  1.00  0.00     0.037 C 
ENDBRANCH   8   9
ENDBRANCH   1   8
TORSDOF 2
ENDMDL
MODEL 3
REMARK VINA RESULT: -4.028939599      2.505      4.570
REMARK  2 active torsions:
REMARK  status: ('A' for Active; 'I' for Inactive)
REMARK    1  A    between atoms: C2_2  and  O1_3 
REMARK    2  A    between atoms: O1_3  and  C3_4 
ROOT
HETATM    1  C3  UNL     1      -1.810  22.283  23.475  1.00  0.00     0.084 A 
HETATM    2  C4  UNL     1      -0.838  23.174  23.386  1.00  0.00     0.043 A 
HETATM    3  C5  UNL     1      -1.834  24.212  23.093  1.00  0.00     0.249 A 
HETATM    4  N1  UNL     1      -2.665  24.057  21.945  1.00  0.00    -0.053 N 
ATOM      5  H11 UNL     1      -2.528  23.846  20.957  1.00  0.00     0.279 HD
ATOM      6  H12 UNL     1      -3.226  24.668  21.351  1.00  0.00     0.279 HD
HETATM    7  C6  UNL     1      -2.873  23.292  23.170  1.00  0.00     0.277 A 
ENDROOT
BRANCH   1   8
HETATM    8  O1  UNL     1      -1.756  20.925  23.752  1.00  0.00    -0.326 OA
BRANCH   8   9
HETATM    9  C2  UNL     1      -1.118  20.021  22.904  1.00  0.00     0.132 C 
HETATM   10  C1  UNL     1      -0.530  18.997  23.497  1.00  0.00     0.037 C 
ENDBRANCH   8   9
ENDBRANCH   1   8
TORSDOF 2
ENDMDL
MODEL 4
REMARK VINA RESULT: -3.988634844      1.693      2.282
REMARK  2 active torsions:
REMARK  status: ('A' for Active; 'I' for Inactive)
REMARK    1  A    between atoms: C2_2  and  O1_3 
REMARK    2  A    between atoms: O1_3  and  C3_4 
ROOT
HETATM    1  C3  UNL     1       0.606  18.672  23.256  1.00  0.00     0.084 A 
HETATM    2  C4  UNL     1       1.735  19.216  23.675  1.00  0.00     0.043 A 
HETATM    3  C5  UNL     1       2.133  17.922  24.244  1.00  0.00     0.249 A 
HETATM    4  N1  UNL     1       1.303  17.328  25.239  1.00  0.00    -0.053 N 
ATOM      5  H11 UNL     1       0.866  17.626  26.110  1.00  0.00     0.279 HD
ATOM      6  H12 UNL     1       1.415  16.628  25.972  1.00  0.00     0.279 HD
HETATM    7  C6  UNL     1       0.948  17.329  23.824  1.00  0.00     0.277 A 
ENDROOT
BRANCH   1   8
HETATM    8  O1  UNL     1      -0.452  19.232  22.556  1.00  0.00    -0.326 OA
BRANCH   8   9
HETATM    9  C2  UNL     1      -1.471  19.938  23.194  1.00  0.00     0.132 C 
HETATM   10  C1  UNL     1      -1.409  21.254  23.088  1.00  0.00     0.037 C 
ENDBRANCH   8   9
ENDBRANCH   1   8
TORSDOF 2
ENDMDL
MODEL 5
REMARK VINA RESULT: -3.978759212      1.955      2.631
REMARK  2 active torsions:
REMARK  status: ('A' for Active; 'I' for Inactive)
REMARK    1  A    between atoms: C2_2  and  O1_3 
REMARK    2  A    between atoms: O1_3  and  C3_4 
ROOT
HETATM    1  C3  UNL     1       0.680  18.052  23.602  1.00  0.00     0.084 A 
HETATM    2  C4  UNL     1       0.674  17.029  24.439  1.00  0.00     0.043 A 
HETATM    3  C5  UNL     1       1.802  17.629  25.162  1.00  0.00     0.249 A 
HETATM    4  N1  UNL     1       3.017  17.868  24.455  1.00  0.00    -0.053 N 
ATOM      5  H11 UNL     1       3.634  17.332  23.846  1.00  0.00     0.279 HD
ATOM      6  H12 UNL     1       3.997  18.009  24.699  1.00  0.00     0.279 HD
HETATM    7  C6  UNL     1       1.837  18.710  24.288  1.00  0.00     0.277 A 
ENDROOT
BRANCH   1   8
HETATM    8  O1  UNL     1      -0.132  18.320  22.511  1.00  0.00    -0.326 OA
BRANCH   8   9
HETATM    9  C2  UNL     1      -1.366  18.955  22.644  1.00  0.00     0.132 C 
HETATM   10  C1  UNL     1      -1.340  20.143  23.223  1.00  0.00     0.037 C 
ENDBRANCH   8   9
ENDBRANCH   1   8
TORSDOF 2
ENDMDL
