MODEL 1
REMARK VINA RESULT: -4.798019088      0.000      0.000
REMARK  3 active torsions:
REMARK  status: ('A' for Active; 'I' for Inactive)
REMARK    1  A    between atoms: N1_2  and  N2_3 
REMARK    2  A    between atoms: N2_3  and  N3_4 
REMARK    3  A    between atoms: N3_4  and  C2_6 
ROOT
HETATM    1  C2  UNL     1      12.214  20.001  13.640  1.00  0.00     0.119 A 
HETATM    2  C3  UNL     1      11.562  20.767  12.509  1.00  0.00     0.064 C 
HETATM    3  C4  UNL     1      11.154  19.480  14.574  1.00  0.00     0.127 A 
HETATM    4  C5  UNL     1      11.750  20.467  15.494  1.00  0.00     0.095 A 
HETATM    5  N4  UNL     1      11.368  20.774  16.858  1.00  0.00    -0.088 NA
HETATM    6  N5  UNL     1      12.639  20.891  14.685  1.00  0.00    -0.355 N 
ATOM      7  H5  UNL     1      13.374  21.595  14.754  1.00  0.00     0.163 HD
ENDROOT
BRANCH   1   8
HETATM    8  N3  UNL     1      13.125  18.985  13.269  1.00  0.00    -0.295 N 
ATOM      9  H3  UNL     1      14.096  19.214  13.060  1.00  0.00     0.180 HD
BRANCH   8  10
HETATM   10  N2  UNL     1      12.693  17.716  13.197  1.00  0.00    -0.035 NA
BRANCH  10  11
HETATM   11  N1  UNL     1      13.518  16.862  13.976  1.00  0.00    -0.131 NA
HETATM   12  C1  UNL     1      12.733  16.219  15.010  1.00  0.00     0.156 C 
ENDBRANCH  10  11
ENDBRANCH   8  10
ENDBRANCH   1   8
TORSDOF 3
ENDMDL
MODEL 2
REMARK VINA RESULT: -4.745866715      3.476      5.310
REMARK  3 active torsions:
REMARK  status: ('A' for Active; 'I' for Inactive)
REMARK    1  A    between atoms: N1_2  and  N2_3 
REMARK    2  A    between atoms: N2_3  and  N3_4 
REMARK    3  A    between atoms: N3_4  and  C2_6 
ROOT
HETATM    1  C2  UNL     1      12.993  14.258  15.896  1.00  0.00     0.119 A 
HETATM    2  C3  UNL     1      13.333  13.263  16.987  1.00  0.00     0.064 C 
HETATM    3  C4  UNL     1      12.521  15.545  16.519  1.00  0.00     0.127 A 
HETATM    4  C5  UNL     1      11.233  15.136  15.929  1.00  0.00     0.095 A 
HETATM    5  N4  UNL     1       9.959  15.822  15.982  1.00  0.00    -0.088 NA
HETATM    6  N5  UNL     1      11.657  14.051  15.411  1.00  0.00    -0.355 N 
ATOM      7  H5  UNL     1      11.215  13.315  14.860  1.00  0.00     0.163 HD
ENDROOT
BRANCH   1   8
HETATM    8  N3  UNL     1      13.989  14.487  14.920  1.00  0.00    -0.295 N 
ATOM      9  H3  UNL     1      14.293  13.732  14.306  1.00  0.00     0.180 HD
BRANCH   8  10
HETATM   10  N2  UNL     1      14.529  15.710  14.813  1.00  0.00    -0.035 NA
BRANCH  10  11
HETATM   11  N1  UNL     1      14.274  16.258  13.527  1.00  0.00    -0.131 NA
HETATM   12  C1  UNL     1      13.268  17.297  13.619  1.00  0.00     0.156 C 
ENDBRANCH  10  11
ENDBRANCH   8  10
ENDBRANCH   1   8
TORSDOF 3
ENDMDL
MODEL 3
REMARK VINA RESULT: -4.569500635      1.493      1.732
REMARK  3 active torsions:
REMARK  status: ('A' for Active; 'I' for Inactive)
REMARK    1  A    between atoms: N1_2  and  N2_3 
REMARK    2  A    between atoms: N2_3  and  N3_4 
REMARK    3  A    between atoms: N3_4  and  C2_6 
ROOT
HETATM    1  C2  UNL     1      12.084  20.398  13.480  1.00  0.00     0.119 A 
HETATM    2  C3  UNL     1      11.198  20.894  12.356  1.00  0.00     0.064 C 
HETATM    3  C4  UNL     1      11.931  21.298  14.677  1.00  0.00     0.127 A 
HETATM    4  C5  UNL     1      13.320  21.662  14.342  1.00  0.00     0.095 A 
HETATM    5  N4  UNL     1      14.192  22.605  15.013  1.00  0.00    -0.088 NA
HETATM    6  N5  UNL     1      13.426  20.892  13.332  1.00  0.00    -0.355 N 
ATOM      7  H5  UNL     1      14.177  20.699  12.670  1.00  0.00     0.163 HD
ENDROOT
BRANCH   1   8
HETATM    8  N3  UNL     1      11.950  19.036  13.832  1.00  0.00    -0.295 N 
ATOM      9  H3  UNL     1      11.369  18.762  14.624  1.00  0.00     0.180 HD
BRANCH   8  10
HETATM   10  N2  UNL     1      12.598  18.108  13.111  1.00  0.00    -0.035 NA
BRANCH  10  11
HETATM   11  N1  UNL     1      12.890  16.969  13.908  1.00  0.00    -0.131 NA
HETATM   12  C1  UNL     1      12.022  16.937  15.068  1.00  0.00     0.156 C 
ENDBRANCH  10  11
ENDBRANCH   8  10
ENDBRANCH   1   8
TORSDOF 3
ENDMDL
MODEL 4
REMARK VINA RESULT: -4.485128644      1.664      2.695
REMARK  3 active torsions:
REMARK  status: ('A' for Active; 'I' for Inactive)
REMARK    1  A    between atoms: N1_2  and  N2_3 
REMARK    2  A    between atoms: N2_3  and  N3_4 
REMARK    3  A    between atoms: N3_4  and  C2_6 
ROOT
HETATM    1  C2  UNL     1      12.373  20.262  13.622  1.00  0.00     0.119 A 
HETATM    2  C3  UNL     1      12.070  20.745  15.025  1.00  0.00     0.064 C 
HETATM    3  C4  UNL     1      12.990  21.381  12.826  1.00  0.00     0.127 A 
HETATM    4  C5  UNL     1      11.711  21.310  12.095  1.00  0.00     0.095 A 
HETATM    5  N4  UNL     1      11.270  22.109  10.970  1.00  0.00    -0.088 NA
HETATM    6  N5  UNL     1      11.211  20.360  12.783  1.00  0.00    -0.355 N 
ATOM      7  H5  UNL     1      10.323  19.860  12.750  1.00  0.00     0.163 HD
ENDROOT
BRANCH   1   8
HETATM    8  N3  UNL     1      13.128  19.071  13.516  1.00  0.00    -0.295 N 
ATOM      9  H3  UNL     1      14.129  19.075  13.710  1.00  0.00     0.180 HD
BRANCH   8  10
HETATM   10  N2  UNL     1      12.509  17.936  13.156  1.00  0.00    -0.035 NA
BRANCH  10  11
HETATM   11  N1  UNL     1      12.926  16.856  13.979  1.00  0.00    -0.131 NA
HETATM   12  C1  UNL     1      12.079  16.766  15.151  1.00  0.00     0.156 C 
ENDBRANCH  10  11
ENDBRANCH   8  10
ENDBRANCH   1   8
TORSDOF 3
ENDMDL
MODEL 5
REMARK VINA RESULT: -4.480354222      1.875      2.071
REMARK  3 active torsions:
REMARK  status: ('A' for Active; 'I' for Inactive)
REMARK    1  A    between atoms: N1_2  and  N2_3 
REMARK    2  A    between atoms: N2_3  and  N3_4 
REMARK    3  A    between atoms: N3_4  and  C2_6 
ROOT
HETATM    1  C2  UNL     1      11.258  19.193  14.967  1.00  0.00     0.119 A 
HETATM    2  C3  UNL     1      12.257  19.365  13.843  1.00  0.00     0.064 C 
HETATM    3  C4  UNL     1      10.146  20.197  14.811  1.00  0.00     0.127 A 
HETATM    4  C5  UNL     1      10.747  20.768  16.030  1.00  0.00     0.095 A 
HETATM    5  N4  UNL     1      10.329  21.936  16.778  1.00  0.00    -0.088 NA
HETATM    6  N5  UNL     1      11.679  19.906  16.142  1.00  0.00    -0.355 N 
ATOM      7  H5  UNL     1      12.437  19.773  16.811  1.00  0.00     0.163 HD
ENDROOT
BRANCH   1   8
HETATM    8  N3  UNL     1      10.756  17.888  15.169  1.00  0.00    -0.295 N 
ATOM      9  H3  UNL     1       9.776  17.743  15.413  1.00  0.00     0.180 HD
BRANCH   8  10
HETATM   10  N2  UNL     1      11.585  16.842  15.036  1.00  0.00    -0.035 NA
BRANCH  10  11
HETATM   11  N1  UNL     1      12.241  16.563  16.266  1.00  0.00    -0.131 NA
HETATM   12  C1  UNL     1      12.477  15.139  16.393  1.00  0.00     0.156 C 
ENDBRANCH  10  11
ENDBRANCH   8  10
ENDBRANCH   1   8
TORSDOF 3
ENDMDL
