MODEL 1
REMARK VINA RESULT: -4.750207867      0.000      0.000
REMARK  5 active torsions:
REMARK  status: ('A' for Active; 'I' for Inactive)
REMARK    1  A    between atoms: N1_2  and  N2_3 
REMARK    2  A    between atoms: N1_2  and  C2_6 
REMARK    3  A    between atoms: C4_10  and  C5_11 
REMARK    4  A    between atoms: C5_11  and  N4_12 
REMARK    5  A    between atoms: C5_11  and  N5_16 
ROOT
HETATM    1  C2  UNL     1      12.089  16.788  14.985  1.00  0.00     0.698 A 
HETATM    2  N3  UNL     1      10.932  16.341  15.502  1.00  0.00    -0.198 N 
ATOM      3  H3  UNL     1      10.041  16.834  15.453  1.00  0.00     0.183 HD
HETATM    4  C3  UNL     1      11.119  15.151  16.092  1.00  0.00     0.135 A 
HETATM    5  C4  UNL     1      12.453  14.859  15.927  1.00  0.00     0.099 A 
HETATM    6  N6  UNL     1      13.023  15.871  15.250  1.00  0.00    -0.189 N 
ATOM      7  H6  UNL     1      14.006  15.928  14.983  1.00  0.00     0.184 HD
ENDROOT
BRANCH   5   8
HETATM    8  C5  UNL     1      13.163  13.632  16.412  1.00  0.00     0.429 C 
BRANCH   8   9
HETATM    9  N4  UNL     1      14.122  13.287  15.372  1.00  0.00    -0.045 N 
ATOM     10  H43 UNL     1      14.069  12.312  15.077  1.00  0.00     0.277 HD
ATOM     11  H42 UNL     1      13.906  13.702  14.466  1.00  0.00     0.277 HD
ATOM     12  H41 UNL     1      15.037  13.554  15.735  1.00  0.00     0.277 HD
ENDBRANCH   8   9
BRANCH   8  13
HETATM   13  N5  UNL     1      12.208  12.555  16.548  1.00  0.00    -0.045 N 
ATOM     14  H53 UNL     1      11.629  12.653  17.382  1.00  0.00     0.277 HD
ATOM     15  H52 UNL     1      11.465  12.606  15.851  1.00  0.00     0.277 HD
ATOM     16  H51 UNL     1      12.703  11.664  16.521  1.00  0.00     0.277 HD
ENDBRANCH   8  13
ENDBRANCH   5   8
BRANCH   1  17
HETATM   17  N1  UNL     1      12.339  18.006  14.275  1.00  0.00    -0.135 N 
HETATM   18  C1  UNL     1      11.704  19.241  14.586  1.00  0.00     0.197 C 
BRANCH  17  19
HETATM   19  N2  UNL     1      13.262  17.947  13.223  1.00  0.00    -0.329 N 
ATOM     20  H22 UNL     1      12.883  17.828  12.283  1.00  0.00     0.177 HD
ATOM     21  H21 UNL     1      14.259  18.023  13.422  1.00  0.00     0.177 HD
ENDBRANCH  17  19
ENDBRANCH   1  17
TORSDOF 5
ENDMDL
MODEL 2
REMARK VINA RESULT: -4.442785421      0.850      1.151
REMARK  5 active torsions:
REMARK  status: ('A' for Active; 'I' for Inactive)
REMARK    1  A    between atoms: N1_2  and  N2_3 
REMARK    2  A    between atoms: N1_2  and  C2_6 
REMARK    3  A    between atoms: C4_10  and  C5_11 
REMARK    4  A    between atoms: C5_11  and  N4_12 
REMARK    5  A    between atoms: C5_11  and  N5_16 
ROOT
HETATM    1  C2  UNL     1      11.735  16.921  15.271  1.00  0.00     0.698 A 
HETATM    2  N3  UNL     1      10.612  16.248  15.574  1.00  0.00    -0.198 N 
ATOM      3  H3  UNL     1       9.666  16.619  15.484  1.00  0.00     0.183 HD
HETATM    4  C3  UNL     1      10.915  15.017  16.013  1.00  0.00     0.135 A 
HETATM    5  C4  UNL     1      12.287  14.935  15.975  1.00  0.00     0.099 A 
HETATM    6  N6  UNL     1      12.765  16.107  15.521  1.00  0.00    -0.189 N 
ATOM      7  H6  UNL     1      13.750  16.337  15.388  1.00  0.00     0.184 HD
ENDROOT
BRANCH   5   8
HETATM    8  C5  UNL     1      13.121  13.754  16.370  1.00  0.00     0.429 C 
BRANCH   8   9
HETATM    9  N4  UNL     1      14.089  13.572  15.298  1.00  0.00    -0.045 N 
ATOM     10  H43 UNL     1      14.859  12.951  15.546  1.00  0.00     0.277 HD
ATOM     11  H42 UNL     1      13.733  13.019  14.518  1.00  0.00     0.277 HD
ATOM     12  H41 UNL     1      14.390  14.509  15.029  1.00  0.00     0.277 HD
ENDBRANCH   8   9
BRANCH   8  13
HETATM   13  N5  UNL     1      12.276  12.584  16.446  1.00  0.00    -0.045 N 
ATOM     14  H53 UNL     1      11.474  12.643  15.819  1.00  0.00     0.277 HD
ATOM     15  H52 UNL     1      12.716  11.760  16.037  1.00  0.00     0.277 HD
ATOM     16  H51 UNL     1      12.000  12.434  17.417  1.00  0.00     0.277 HD
ENDBRANCH   8  13
ENDBRANCH   5   8
BRANCH   1  17
HETATM   17  N1  UNL     1      11.870  18.256  14.773  1.00  0.00    -0.135 N 
HETATM   18  C1  UNL     1      12.630  18.590  13.616  1.00  0.00     0.197 C 
BRANCH  17  19
HETATM   19  N2  UNL     1      11.208  19.266  15.482  1.00  0.00    -0.329 N 
ATOM     20  H22 UNL     1      11.613  19.543  16.376  1.00  0.00     0.177 HD
ATOM     21  H21 UNL     1      10.363  19.684  15.094  1.00  0.00     0.177 HD
ENDBRANCH  17  19
ENDBRANCH   1  17
TORSDOF 5
ENDMDL
MODEL 3
REMARK VINA RESULT: -4.377789651      1.653      4.968
REMARK  5 active torsions:
REMARK  status: ('A' for Active; 'I' for Inactive)
REMARK    1  A    between atoms: N1_2  and  N2_3 
REMARK    2  A    between atoms: N1_2  and  C2_6 
REMARK    3  A    between atoms: C4_10  and  C5_11 
REMARK    4  A    between atoms: C5_11  and  N4_12 
REMARK    5  A    between atoms: C5_11  and  N5_16 
ROOT
HETATM    1  C2  UNL     1      12.802  16.748  14.763  1.00  0.00     0.698 A 
HETATM    2  N3  UNL     1      11.717  17.275  15.356  1.00  0.00    -0.198 N 
ATOM      3  H3  UNL     1      11.187  16.830  16.105  1.00  0.00     0.183 HD
HETATM    4  C3  UNL     1      11.432  18.471  14.821  1.00  0.00     0.135 A 
HETATM    5  C4  UNL     1      12.388  18.684  13.856  1.00  0.00     0.099 A 
HETATM    6  N6  UNL     1      13.211  17.621  13.838  1.00  0.00    -0.189 N 
ATOM      7  H6  UNL     1      14.015  17.502  13.221  1.00  0.00     0.184 HD
ENDROOT
BRANCH   5   8
HETATM    8  C5  UNL     1      12.506  19.886  12.968  1.00  0.00     0.429 C 
BRANCH   8   9
HETATM    9  N4  UNL     1      13.607  20.673  13.503  1.00  0.00    -0.045 N 
ATOM     10  H43 UNL     1      14.482  20.153  13.571  1.00  0.00     0.277 HD
ATOM     11  H42 UNL     1      13.942  21.393  12.863  1.00  0.00     0.277 HD
ATOM     12  H41 UNL     1      13.281  21.041  14.397  1.00  0.00     0.277 HD
ENDBRANCH   8   9
BRANCH   8  13
HETATM   13  N5  UNL     1      11.288  20.660  13.057  1.00  0.00    -0.045 N 
ATOM     14  H53 UNL     1      11.447  21.655  12.896  1.00  0.00     0.277 HD
ATOM     15  H52 UNL     1      10.660  20.487  12.272  1.00  0.00     0.277 HD
ATOM     16  H51 UNL     1      10.842  20.479  13.957  1.00  0.00     0.277 HD
ENDBRANCH   8  13
ENDBRANCH   5   8
BRANCH   1  17
HETATM   17  N1  UNL     1      13.445  15.497  15.024  1.00  0.00    -0.135 N 
HETATM   18  C1  UNL     1      12.888  14.487  15.860  1.00  0.00     0.197 C 
BRANCH  17  19
HETATM   19  N2  UNL     1      14.686  15.283  14.412  1.00  0.00    -0.329 N 
ATOM     20  H22 UNL     1      14.682  14.779  13.525  1.00  0.00     0.177 HD
ATOM     21  H21 UNL     1      15.535  15.628  14.859  1.00  0.00     0.177 HD
ENDBRANCH  17  19
ENDBRANCH   1  17
TORSDOF 5
ENDMDL
MODEL 4
REMARK VINA RESULT: -4.371897675      1.551      2.751
REMARK  5 active torsions:
REMARK  status: ('A' for Active; 'I' for Inactive)
REMARK    1  A    between atoms: N1_2  and  N2_3 
REMARK    2  A    between atoms: N1_2  and  C2_6 
REMARK    3  A    between atoms: C4_10  and  C5_11 
REMARK    4  A    between atoms: C5_11  and  N4_12 
REMARK    5  A    between atoms: C5_11  and  N5_16 
ROOT
HETATM    1  C2  UNL     1      12.501  18.682  13.732  1.00  0.00     0.698 A 
HETATM    2  N3  UNL     1      13.392  17.787  13.273  1.00  0.00    -0.198 N 
ATOM      3  H3  UNL     1      14.025  17.942  12.489  1.00  0.00     0.183 HD
HETATM    4  C3  UNL     1      13.328  16.658  13.995  1.00  0.00     0.135 A 
HETATM    5  C4  UNL     1      12.352  16.876  14.939  1.00  0.00     0.099 A 
HETATM    6  N6  UNL     1      11.862  18.115  14.759  1.00  0.00    -0.189 N 
ATOM      7  H6  UNL     1      11.126  18.550  15.315  1.00  0.00     0.184 HD
ENDROOT
BRANCH   5   8
HETATM    8  C5  UNL     1      11.899  15.910  15.993  1.00  0.00     0.429 C 
BRANCH   8   9
HETATM    9  N4  UNL     1      12.726  14.723  15.830  1.00  0.00    -0.045 N 
ATOM     10  H43 UNL     1      12.988  14.539  14.861  1.00  0.00     0.277 HD
ATOM     11  H42 UNL     1      13.673  14.833  16.193  1.00  0.00     0.277 HD
ATOM     12  H41 UNL     1      12.209  13.959  16.264  1.00  0.00     0.277 HD
ENDBRANCH   8   9
BRANCH   8  13
HETATM   13  N5  UNL     1      10.518  15.559  15.749  1.00  0.00    -0.045 N 
ATOM     14  H53 UNL     1       9.893  15.922  16.469  1.00  0.00     0.277 HD
ATOM     15  H52 UNL     1      10.125  16.059  14.952  1.00  0.00     0.277 HD
ATOM     16  H51 UNL     1      10.445  14.547  15.645  1.00  0.00     0.277 HD
ENDBRANCH   8  13
ENDBRANCH   5   8
BRANCH   1  17
HETATM   17  N1  UNL     1      12.238  20.006  13.255  1.00  0.00    -0.135 N 
HETATM   18  C1  UNL     1      10.926  20.526  13.069  1.00  0.00     0.197 C 
BRANCH  17  19
HETATM   19  N2  UNL     1      13.349  20.807  12.966  1.00  0.00    -0.329 N 
ATOM     20  H22 UNL     1      13.299  21.785  13.253  1.00  0.00     0.177 HD
ATOM     21  H21 UNL     1      14.154  20.401  12.490  1.00  0.00     0.177 HD
ENDBRANCH  17  19
ENDBRANCH   1  17
TORSDOF 5
ENDMDL
MODEL 5
REMARK VINA RESULT: -4.319884986      1.357      1.907
REMARK  5 active torsions:
REMARK  status: ('A' for Active; 'I' for Inactive)
REMARK    1  A    between atoms: N1_2  and  N2_3 
REMARK    2  A    between atoms: N1_2  and  C2_6 
REMARK    3  A    between atoms: C4_10  and  C5_11 
REMARK    4  A    between atoms: C5_11  and  N4_12 
REMARK    5  A    between atoms: C5_11  and  N5_16 
ROOT
HETATM    1  C2  UNL     1      12.842  17.543  14.147  1.00  0.00     0.698 A 
HETATM    2  N3  UNL     1      13.939  17.023  13.571  1.00  0.00    -0.198 N 
ATOM      3  H3  UNL     1      14.479  17.472  12.831  1.00  0.00     0.183 HD
HETATM    4  C3  UNL     1      14.224  15.829  14.112  1.00  0.00     0.135 A 
HETATM    5  C4  UNL     1      13.254  15.610  15.062  1.00  0.00     0.099 A 
HETATM    6  N6  UNL     1      12.423  16.667  15.064  1.00  0.00    -0.189 N 
ATOM      7  H6  UNL     1      11.608  16.781  15.668  1.00  0.00     0.184 HD
ENDROOT
BRANCH   5   8
HETATM    8  C5  UNL     1      13.129  14.407  15.948  1.00  0.00     0.429 C 
BRANCH   8   9
HETATM    9  N4  UNL     1      13.958  13.376  15.341  1.00  0.00    -0.045 N 
ATOM     10  H43 UNL     1      13.476  12.838  14.621  1.00  0.00     0.277 HD
ATOM     11  H42 UNL     1      14.697  13.746  14.744  1.00  0.00     0.277 HD
ATOM     12  H41 UNL     1      14.305  12.805  16.113  1.00  0.00     0.277 HD
ENDBRANCH   8   9
BRANCH   8  13
HETATM   13  N5  UNL     1      11.753  13.965  15.951  1.00  0.00    -0.045 N 
ATOM     14  H53 UNL     1      11.132  14.630  16.412  1.00  0.00     0.277 HD
ATOM     15  H52 UNL     1      11.332  13.996  15.023  1.00  0.00     0.277 HD
ATOM     16  H51 UNL     1      11.703  13.035  16.368  1.00  0.00     0.277 HD
ENDBRANCH   8  13
ENDBRANCH   5   8
BRANCH   1  17
HETATM   17  N1  UNL     1      12.194  18.790  13.873  1.00  0.00    -0.135 N 
HETATM   18  C1  UNL     1      10.961  19.181  14.468  1.00  0.00     0.197 C 
BRANCH  17  19
HETATM   19  N2  UNL     1      12.831  19.649  12.969  1.00  0.00    -0.329 N 
ATOM     20  H22 UNL     1      13.057  20.586  13.304  1.00  0.00     0.177 HD
ATOM     21  H21 UNL     1      13.044  19.322  12.027  1.00  0.00     0.177 HD
ENDBRANCH  17  19
ENDBRANCH   1  17
TORSDOF 5
ENDMDL
