MODEL 1
REMARK VINA RESULT: -7.293556516      0.000      0.000
REMARK  15 active torsions:
REMARK  status: ('A' for Active; 'I' for Inactive)
REMARK    1  A    between atoms: C2_2  and  O2_4 
REMARK    2  A    between atoms: O2_4  and  C3_5 
REMARK    3  A    between atoms: C3_5  and  C4_6 
REMARK    4  A    between atoms: C4_6  and  C5_7 
REMARK    5  A    between atoms: C4_6  and  O3_13 
REMARK    6  A    between atoms: C5_7  and  C6_8 
REMARK    7  A    between atoms: C6_8  and  N1_9 
REMARK    8  A    between atoms: O3_13  and  C7_14 
REMARK    9  A    between atoms: C11_18  and  C12_19 
REMARK   10  A    between atoms: C13_20  and  C19_30 
REMARK   11  A    between atoms: C15_22  and  O4_23 
REMARK   12  A    between atoms: C15_22  and  C17_28 
REMARK   13  A    between atoms: C16_25  and  O5_26 
REMARK   14  A    between atoms: C20_31  and  O6_32 
REMARK   15  A    between atoms: C21_34  and  N2_35 
ROOT
HETATM    1  C7  UNL     1      15.449  -7.651  21.431  1.00  0.00     0.155 C 
HETATM    2  C8  UNL     1      16.331  -8.847  21.615  1.00  0.00     0.039 C 
HETATM    3  C9  UNL     1      17.189  -8.760  22.884  1.00  0.00    -0.009 C 
HETATM    4  C10 UNL     1      17.802 -10.077  23.141  1.00  0.00     0.010 C 
HETATM    5  C11 UNL     1      16.332  -8.128  23.911  1.00  0.00     0.027 C 
HETATM    6  C20 UNL     1      16.319  -6.640  23.564  1.00  0.00     0.156 C 
HETATM    7  C21 UNL     1      15.943  -6.422  22.143  1.00  0.00     0.241 C 
ENDROOT
BRANCH   1   8
HETATM    8  O3  UNL     1      15.444  -7.356  20.069  1.00  0.00    -0.376 OA
BRANCH   8   9
HETATM    9  C4  UNL     1      14.188  -7.600  19.487  1.00  0.00     0.147 C 
BRANCH   9  10
HETATM   10  C3  UNL     1      14.305  -8.379  18.227  1.00  0.00     0.210 C 
BRANCH  10  11
HETATM   11  O2  UNL     1      13.477  -7.991  17.191  1.00  0.00    -0.319 OA
BRANCH  11  12
HETATM   12  C2  UNL     1      13.141  -8.711  16.066  1.00  0.00     0.254 C 
HETATM   13  C1  UNL     1      13.835  -9.969  15.682  1.00  0.00     0.126 C 
HETATM   14  O1  UNL     1      12.213  -8.274  15.348  1.00  0.00    -0.266 OA
ENDBRANCH  11  12
ENDBRANCH  10  11
ENDBRANCH   9  10
BRANCH   9  15
HETATM   15  C5  UNL     1      13.660  -6.214  19.208  1.00  0.00     0.061 C 
BRANCH  15  16
HETATM   16  C6  UNL     1      12.275  -5.930  19.646  1.00  0.00     0.232 C 
BRANCH  16  17
HETATM   17  N1  UNL     1      11.459  -5.961  18.407  1.00  0.00    -0.079 N 
ATOM     18  H13 UNL     1      10.468  -6.134  18.571  1.00  0.00     0.274 HD
ATOM     19  H12 UNL     1      11.348  -5.049  17.963  1.00  0.00     0.274 HD
ATOM     20  H11 UNL     1      11.905  -6.658  17.810  1.00  0.00     0.274 HD
ENDBRANCH  16  17
ENDBRANCH  15  16
ENDBRANCH   9  15
ENDBRANCH   8   9
ENDBRANCH   1   8
BRANCH   7  21
HETATM   21  N2  UNL     1      17.000  -5.848  21.342  1.00  0.00    -0.070 N 
ATOM     22  H23 UNL     1      16.680  -5.538  20.424  1.00  0.00     0.274 HD
ATOM     23  H22 UNL     1      17.313  -4.941  21.688  1.00  0.00     0.274 HD
ATOM     24  H21 UNL     1      17.754  -6.534  21.288  1.00  0.00     0.274 HD
ENDBRANCH   7  21
BRANCH   6  25
HETATM   25  O6  UNL     1      17.570  -6.063  23.775  1.00  0.00    -0.393 OA
ATOM     26  H6  UNL     1      17.555  -5.479  24.524  1.00  0.00     0.210 HD
ENDBRANCH   6  25
BRANCH   5  27
HETATM   27  C12 UNL     1      16.600  -8.414  25.303  1.00  0.00     0.029 C 
HETATM   28  C13 UNL     1      15.581  -9.109  26.143  1.00  0.00     0.000 C 
HETATM   29  C14 UNL     1      16.278  -8.939  27.524  1.00  0.00     0.046 C 
HETATM   30  C15 UNL     1      16.240  -7.426  27.501  1.00  0.00     0.088 C 
HETATM   31  C16 UNL     1      16.895  -7.177  26.151  1.00  0.00     0.157 C 
BRANCH  28  32
HETATM   32  C19 UNL     1      14.352  -8.250  26.368  1.00  0.00    -0.002 A 
HETATM   33  C17 UNL     1      13.147  -9.206  26.231  1.00  0.00     0.027 A 
HETATM   34  C18 UNL     1      13.320  -8.063  25.321  1.00  0.00     0.013 A 
ENDBRANCH  28  32
BRANCH  30  35
HETATM   35  O4  UNL     1      16.875  -6.832  28.540  1.00  0.00    -0.387 OA
ATOM     36  H4  UNL     1      17.290  -6.004  28.328  1.00  0.00     0.210 HD
ENDBRANCH  30  35
BRANCH  31  37
HETATM   37  O5  UNL     1      18.238  -6.980  26.359  1.00  0.00    -0.392 OA
ATOM     38  H5  UNL     1      18.436  -6.116  26.701  1.00  0.00     0.210 HD
ENDBRANCH  31  37
ENDBRANCH   5  27
TORSDOF 15
ENDMDL
MODEL 2
REMARK VINA RESULT: -7.101731865      2.501      8.342
REMARK  15 active torsions:
REMARK  status: ('A' for Active; 'I' for Inactive)
REMARK    1  A    between atoms: C2_2  and  O2_4 
REMARK    2  A    between atoms: O2_4  and  C3_5 
REMARK    3  A    between atoms: C3_5  and  C4_6 
REMARK    4  A    between atoms: C4_6  and  C5_7 
REMARK    5  A    between atoms: C4_6  and  O3_13 
REMARK    6  A    between atoms: C5_7  and  C6_8 
REMARK    7  A    between atoms: C6_8  and  N1_9 
REMARK    8  A    between atoms: O3_13  and  C7_14 
REMARK    9  A    between atoms: C11_18  and  C12_19 
REMARK   10  A    between atoms: C13_20  and  C19_30 
REMARK   11  A    between atoms: C15_22  and  O4_23 
REMARK   12  A    between atoms: C15_22  and  C17_28 
REMARK   13  A    between atoms: C16_25  and  O5_26 
REMARK   14  A    between atoms: C20_31  and  O6_32 
REMARK   15  A    between atoms: C21_34  and  N2_35 
ROOT
HETATM    1  C7  UNL     1      15.496  -7.845  23.556  1.00  0.00     0.155 C 
HETATM    2  C8  UNL     1      14.007  -7.994  23.585  1.00  0.00     0.039 C 
HETATM    3  C9  UNL     1      13.314  -7.247  22.438  1.00  0.00    -0.009 C 
HETATM    4  C10 UNL     1      11.903  -7.673  22.370  1.00  0.00     0.010 C 
HETATM    5  C11 UNL     1      14.194  -7.405  21.261  1.00  0.00     0.027 C 
HETATM    6  C20 UNL     1      15.346  -6.427  21.484  1.00  0.00     0.156 C 
HETATM    7  C21 UNL     1      15.965  -6.620  22.821  1.00  0.00     0.241 C 
ENDROOT
BRANCH   1   8
HETATM    8  O3  UNL     1      15.918  -7.710  24.877  1.00  0.00    -0.376 OA
BRANCH   8   9
HETATM    9  C4  UNL     1      15.373  -8.708  25.703  1.00  0.00     0.147 C 
BRANCH   9  10
HETATM   10  C3  UNL     1      14.665  -8.130  26.875  1.00  0.00     0.210 C 
BRANCH  10  11
HETATM   11  O2  UNL     1      14.578  -8.938  27.993  1.00  0.00    -0.319 OA
BRANCH  11  12
HETATM   12  C2  UNL     1      14.903  -8.617  29.292  1.00  0.00     0.254 C 
HETATM   13  C1  UNL     1      16.287  -8.262  29.708  1.00  0.00     0.126 C 
HETATM   14  O1  UNL     1      13.987  -8.630  30.146  1.00  0.00    -0.266 OA
ENDBRANCH  11  12
ENDBRANCH  10  11
ENDBRANCH   9  10
BRANCH   9  15
HETATM   15  C5  UNL     1      16.585  -9.491  26.146  1.00  0.00     0.061 C 
BRANCH  15  16
HETATM   16  C6  UNL     1      16.633 -10.918  25.758  1.00  0.00     0.232 C 
BRANCH  16  17
HETATM   17  N1  UNL     1      15.379 -11.510  26.286  1.00  0.00    -0.079 N 
ATOM     18  H13 UNL     1      14.646 -11.615  25.585  1.00  0.00     0.274 HD
ATOM     19  H12 UNL     1      15.458 -12.499  26.524  1.00  0.00     0.274 HD
ATOM     20  H11 UNL     1      15.114 -10.918  27.073  1.00  0.00     0.274 HD
ENDBRANCH  16  17
ENDBRANCH  15  16
ENDBRANCH   9  15
ENDBRANCH   8   9
ENDBRANCH   1   8
BRANCH   7  21
HETATM   21  N2  UNL     1      15.804  -5.489  23.707  1.00  0.00    -0.070 N 
ATOM     22  H23 UNL     1      15.884  -5.742  24.691  1.00  0.00     0.274 HD
ATOM     23  H22 UNL     1      16.590  -4.841  23.670  1.00  0.00     0.274 HD
ATOM     24  H21 UNL     1      14.912  -5.046  23.482  1.00  0.00     0.274 HD
ENDBRANCH   7  21
BRANCH   6  25
HETATM   25  O6  UNL     1      14.908  -5.107  21.395  1.00  0.00    -0.393 OA
ATOM     26  H6  UNL     1      15.445  -4.532  21.928  1.00  0.00     0.210 HD
ENDBRANCH   6  25
BRANCH   5  27
HETATM   27  C12 UNL     1      13.600  -7.339  19.943  1.00  0.00     0.029 C 
HETATM   28  C13 UNL     1      14.021  -8.292  18.874  1.00  0.00     0.000 C 
HETATM   29  C14 UNL     1      13.272  -7.632  17.681  1.00  0.00     0.046 C 
HETATM   30  C15 UNL     1      14.020  -6.320  17.771  1.00  0.00     0.088 C 
HETATM   31  C16 UNL     1      13.789  -5.996  19.239  1.00  0.00     0.157 C 
BRANCH  28  32
HETATM   32  C19 UNL     1      15.454  -8.059  18.439  1.00  0.00    -0.002 A 
HETATM   33  C17 UNL     1      15.966  -9.429  17.945  1.00  0.00     0.027 A 
HETATM   34  C18 UNL     1      16.596  -8.748  19.087  1.00  0.00     0.013 A 
ENDBRANCH  28  32
BRANCH  30  35
HETATM   35  O4  UNL     1      13.581  -5.363  16.919  1.00  0.00    -0.387 OA
ATOM     36  H4  UNL     1      12.636  -5.317  16.830  1.00  0.00     0.210 HD
ENDBRANCH  30  35
BRANCH  31  37
HETATM   37  O5  UNL     1      12.683  -5.187  19.327  1.00  0.00    -0.392 OA
ATOM     38  H5  UNL     1      12.635  -4.717  20.152  1.00  0.00     0.210 HD
ENDBRANCH  31  37
ENDBRANCH   5  27
TORSDOF 15
ENDMDL
MODEL 3
REMARK VINA RESULT: -7.049868816      1.904      2.776
REMARK  15 active torsions:
REMARK  status: ('A' for Active; 'I' for Inactive)
REMARK    1  A    between atoms: C2_2  and  O2_4 
REMARK    2  A    between atoms: O2_4  and  C3_5 
REMARK    3  A    between atoms: C3_5  and  C4_6 
REMARK    4  A    between atoms: C4_6  and  C5_7 
REMARK    5  A    between atoms: C4_6  and  O3_13 
REMARK    6  A    between atoms: C5_7  and  C6_8 
REMARK    7  A    between atoms: C6_8  and  N1_9 
REMARK    8  A    between atoms: O3_13  and  C7_14 
REMARK    9  A    between atoms: C11_18  and  C12_19 
REMARK   10  A    between atoms: C13_20  and  C19_30 
REMARK   11  A    between atoms: C15_22  and  O4_23 
REMARK   12  A    between atoms: C15_22  and  C17_28 
REMARK   13  A    between atoms: C16_25  and  O5_26 
REMARK   14  A    between atoms: C20_31  and  O6_32 
REMARK   15  A    between atoms: C21_34  and  N2_35 
ROOT
HETATM    1  C7  UNL     1      15.101  -7.509  22.256  1.00  0.00     0.155 C 
HETATM    2  C8  UNL     1      15.878  -8.787  22.317  1.00  0.00     0.039 C 
HETATM    3  C9  UNL     1      16.953  -8.775  23.411  1.00  0.00    -0.009 C 
HETATM    4  C10 UNL     1      17.468 -10.146  23.595  1.00  0.00     0.010 C 
HETATM    5  C11 UNL     1      16.361  -8.046  24.554  1.00  0.00     0.027 C 
HETATM    6  C20 UNL     1      16.434  -6.570  24.171  1.00  0.00     0.156 C 
HETATM    7  C21 UNL     1      15.835  -6.329  22.833  1.00  0.00     0.241 C 
ENDROOT
BRANCH   1   8
HETATM    8  O3  UNL     1      14.883  -7.230  20.908  1.00  0.00    -0.376 OA
BRANCH   8   9
HETATM    9  C4  UNL     1      13.563  -6.810  20.670  1.00  0.00     0.147 C 
BRANCH   9  10
HETATM   10  C3  UNL     1      12.599  -7.473  21.586  1.00  0.00     0.210 C 
BRANCH  10  11
HETATM   11  O2  UNL     1      11.280  -7.493  21.173  1.00  0.00    -0.319 OA
BRANCH  11  12
HETATM   12  C2  UNL     1      10.250  -6.685  21.601  1.00  0.00     0.254 C 
HETATM   13  C1  UNL     1       9.847  -6.588  23.029  1.00  0.00     0.126 C 
HETATM   14  O1  UNL     1       9.638  -6.012  20.740  1.00  0.00    -0.266 OA
ENDBRANCH  11  12
ENDBRANCH  10  11
ENDBRANCH   9  10
BRANCH   9  15
HETATM   15  C5  UNL     1      13.317  -7.234  19.243  1.00  0.00     0.061 C 
BRANCH  15  16
HETATM   16  C6  UNL     1      12.992  -6.160  18.277  1.00  0.00     0.232 C 
BRANCH  16  17
HETATM   17  N1  UNL     1      11.514  -6.025  18.325  1.00  0.00    -0.079 N 
ATOM     18  H13 UNL     1      11.016  -6.907  18.201  1.00  0.00     0.274 HD
ATOM     19  H12 UNL     1      11.150  -5.814  19.254  1.00  0.00     0.274 HD
ATOM     20  H11 UNL     1      11.286  -5.322  17.624  1.00  0.00     0.274 HD
ENDBRANCH  16  17
ENDBRANCH  15  16
ENDBRANCH   9  15
ENDBRANCH   8   9
ENDBRANCH   1   8
BRANCH   7  21
HETATM   21  N2  UNL     1      16.784  -5.877  21.841  1.00  0.00    -0.070 N 
ATOM     22  H23 UNL     1      16.725  -4.874  21.664  1.00  0.00     0.274 HD
ATOM     23  H22 UNL     1      17.748  -5.898  22.176  1.00  0.00     0.274 HD
ATOM     24  H21 UNL     1      16.643  -6.437  21.000  1.00  0.00     0.274 HD
ENDBRANCH   7  21
BRANCH   6  25
HETATM   25  O6  UNL     1      17.754  -6.122  24.141  1.00  0.00    -0.393 OA
ATOM     26  H6  UNL     1      17.794  -5.173  24.136  1.00  0.00     0.210 HD
ENDBRANCH   6  25
BRANCH   5  27
HETATM   27  C12 UNL     1      16.843  -8.343  25.885  1.00  0.00     0.029 C 
HETATM   28  C13 UNL     1      16.228  -9.442  26.686  1.00  0.00     0.000 C 
HETATM   29  C14 UNL     1      16.942  -9.157  28.039  1.00  0.00     0.046 C 
HETATM   30  C15 UNL     1      16.357  -7.771  28.202  1.00  0.00     0.088 C 
HETATM   31  C16 UNL     1      16.748  -7.171  26.861  1.00  0.00     0.157 C 
BRANCH  28  32
HETATM   32  C19 UNL     1      14.799  -9.124  27.078  1.00  0.00    -0.002 A 
HETATM   33  C17 UNL     1      14.036 -10.464  26.988  1.00  0.00     0.027 A 
HETATM   34  C18 UNL     1      13.664  -9.319  26.144  1.00  0.00     0.013 A 
ENDBRANCH  28  32
BRANCH  30  35
HETATM   35  O4  UNL     1      16.828  -7.085  29.272  1.00  0.00    -0.387 OA
ATOM     36  H4  UNL     1      16.305  -7.177  30.060  1.00  0.00     0.210 HD
ENDBRANCH  30  35
BRANCH  31  37
HETATM   37  O5  UNL     1      17.942  -6.512  27.021  1.00  0.00    -0.392 OA
ATOM     38  H5  UNL     1      18.248  -6.515  27.921  1.00  0.00     0.210 HD
ENDBRANCH  31  37
ENDBRANCH   5  27
TORSDOF 15
ENDMDL
MODEL 4
REMARK VINA RESULT: -6.880387166      1.451      2.310
REMARK  15 active torsions:
REMARK  status: ('A' for Active; 'I' for Inactive)
REMARK    1  A    between atoms: C2_2  and  O2_4 
REMARK    2  A    between atoms: O2_4  and  C3_5 
REMARK    3  A    between atoms: C3_5  and  C4_6 
REMARK    4  A    between atoms: C4_6  and  C5_7 
REMARK    5  A    between atoms: C4_6  and  O3_13 
REMARK    6  A    between atoms: C5_7  and  C6_8 
REMARK    7  A    between atoms: C6_8  and  N1_9 
REMARK    8  A    between atoms: O3_13  and  C7_14 
REMARK    9  A    between atoms: C11_18  and  C12_19 
REMARK   10  A    between atoms: C13_20  and  C19_30 
REMARK   11  A    between atoms: C15_22  and  O4_23 
REMARK   12  A    between atoms: C15_22  and  C17_28 
REMARK   13  A    between atoms: C16_25  and  O5_26 
REMARK   14  A    between atoms: C20_31  and  O6_32 
REMARK   15  A    between atoms: C21_34  and  N2_35 
ROOT
HETATM    1  C7  UNL     1      15.759  -7.634  20.945  1.00  0.00     0.155 C 
HETATM    2  C8  UNL     1      17.243  -7.752  21.095  1.00  0.00     0.039 C 
HETATM    3  C9  UNL     1      17.728  -7.382  22.502  1.00  0.00    -0.009 C 
HETATM    4  C10 UNL     1      19.138  -7.794  22.649  1.00  0.00     0.010 C 
HETATM    5  C11 UNL     1      16.703  -7.899  23.434  1.00  0.00     0.027 C 
HETATM    6  C20 UNL     1      15.542  -6.911  23.344  1.00  0.00     0.156 C 
HETATM    7  C21 UNL     1      15.126  -6.694  21.934  1.00  0.00     0.241 C 
ENDROOT
BRANCH   1   8
HETATM    8  O3  UNL     1      15.518  -7.109  19.677  1.00  0.00    -0.376 OA
BRANCH   8   9
HETATM    9  C4  UNL     1      14.294  -7.555  19.151  1.00  0.00     0.147 C 
BRANCH   9  10
HETATM   10  C3  UNL     1      14.489  -8.551  18.065  1.00  0.00     0.210 C 
BRANCH  10  11
HETATM   11  O2  UNL     1      13.638  -8.445  16.981  1.00  0.00    -0.319 OA
BRANCH  11  12
HETATM   12  C2  UNL     1      13.504  -9.320  15.926  1.00  0.00     0.254 C 
HETATM   13  C1  UNL     1      14.492 -10.396  15.646  1.00  0.00     0.126 C 
HETATM   14  O1  UNL     1      12.505  -9.191  15.182  1.00  0.00    -0.266 OA
ENDBRANCH  11  12
ENDBRANCH  10  11
ENDBRANCH   9  10
BRANCH   9  15
HETATM   15  C5  UNL     1      13.668  -6.294  18.610  1.00  0.00     0.061 C 
BRANCH  15  16
HETATM   16  C6  UNL     1      12.265  -6.027  18.998  1.00  0.00     0.232 C 
BRANCH  16  17
HETATM   17  N1  UNL     1      11.485  -6.127  17.740  1.00  0.00    -0.079 N 
ATOM     18  H13 UNL     1      11.873  -5.582  16.970  1.00  0.00     0.274 HD
ATOM     19  H12 UNL     1      11.552  -7.038  17.286  1.00  0.00     0.274 HD
ATOM     20  H11 UNL     1      10.533  -5.862  17.992  1.00  0.00     0.274 HD
ENDBRANCH  16  17
ENDBRANCH  15  16
ENDBRANCH   9  15
ENDBRANCH   8   9
ENDBRANCH   1   8
BRANCH   7  21
HETATM   21  N2  UNL     1      15.347  -5.347  21.461  1.00  0.00    -0.070 N 
ATOM     22  H23 UNL     1      16.335  -5.128  21.335  1.00  0.00     0.274 HD
ATOM     23  H22 UNL     1      15.056  -5.213  20.492  1.00  0.00     0.274 HD
ATOM     24  H21 UNL     1      14.879  -4.711  22.108  1.00  0.00     0.274 HD
ENDBRANCH   7  21
BRANCH   6  25
HETATM   25  O6  UNL     1      15.890  -5.675  23.887  1.00  0.00    -0.393 OA
ATOM     26  H6  UNL     1      15.118  -5.160  24.090  1.00  0.00     0.210 HD
ENDBRANCH   6  25
BRANCH   5  27
HETATM   27  C12 UNL     1      17.103  -8.229  24.784  1.00  0.00     0.029 C 
HETATM   28  C13 UNL     1      18.080  -9.330  25.036  1.00  0.00     0.000 C 
HETATM   29  C14 UNL     1      17.952  -9.388  26.586  1.00  0.00     0.046 C 
HETATM   30  C15 UNL     1      16.483  -9.754  26.580  1.00  0.00     0.088 C 
HETATM   31  C16 UNL     1      15.948  -8.638  25.697  1.00  0.00     0.157 C 
BRANCH  28  32
HETATM   32  C19 UNL     1      17.507 -10.687  24.680  1.00  0.00    -0.002 A 
HETATM   33  C17 UNL     1      18.695 -11.509  24.135  1.00  0.00     0.027 A 
HETATM   34  C18 UNL     1      17.526 -11.210  23.293  1.00  0.00     0.013 A 
ENDBRANCH  28  32
BRANCH  30  35
HETATM   35  O4  UNL     1      15.913  -9.810  27.807  1.00  0.00    -0.387 OA
ATOM     36  H4  UNL     1      15.651  -8.967  28.159  1.00  0.00     0.210 HD
ENDBRANCH  30  35
BRANCH  31  37
HETATM   37  O5  UNL     1      15.525  -7.616  26.512  1.00  0.00    -0.392 OA
ATOM     38  H5  UNL     1      16.125  -6.879  26.521  1.00  0.00     0.210 HD
ENDBRANCH  31  37
ENDBRANCH   5  27
TORSDOF 15
ENDMDL
MODEL 5
REMARK VINA RESULT: -6.826767952      1.753      2.400
REMARK  15 active torsions:
REMARK  status: ('A' for Active; 'I' for Inactive)
REMARK    1  A    between atoms: C2_2  and  O2_4 
REMARK    2  A    between atoms: O2_4  and  C3_5 
REMARK    3  A    between atoms: C3_5  and  C4_6 
REMARK    4  A    between atoms: C4_6  and  C5_7 
REMARK    5  A    between atoms: C4_6  and  O3_13 
REMARK    6  A    between atoms: C5_7  and  C6_8 
REMARK    7  A    between atoms: C6_8  and  N1_9 
REMARK    8  A    between atoms: O3_13  and  C7_14 
REMARK    9  A    between atoms: C11_18  and  C12_19 
REMARK   10  A    between atoms: C13_20  and  C19_30 
REMARK   11  A    between atoms: C15_22  and  O4_23 
REMARK   12  A    between atoms: C15_22  and  C17_28 
REMARK   13  A    between atoms: C16_25  and  O5_26 
REMARK   14  A    between atoms: C20_31  and  O6_32 
REMARK   15  A    between atoms: C21_34  and  N2_35 
ROOT
HETATM    1  C7  UNL     1      16.055  -7.906  21.744  1.00  0.00     0.155 C 
HETATM    2  C8  UNL     1      17.451  -8.030  22.270  1.00  0.00     0.039 C 
HETATM    3  C9  UNL     1      17.574  -7.589  23.734  1.00  0.00    -0.009 C 
HETATM    4  C10 UNL     1      18.891  -8.006  24.252  1.00  0.00     0.010 C 
HETATM    5  C11 UNL     1      16.336  -8.046  24.401  1.00  0.00     0.027 C 
HETATM    6  C20 UNL     1      15.257  -7.054  23.973  1.00  0.00     0.156 C 
HETATM    7  C21 UNL     1      15.214  -6.909  22.494  1.00  0.00     0.241 C 
ENDROOT
BRANCH   1   8
HETATM    8  O3  UNL     1      16.153  -7.447  20.433  1.00  0.00    -0.376 OA
BRANCH   8   9
HETATM    9  C4  UNL     1      15.073  -7.883  19.645  1.00  0.00     0.147 C 
BRANCH   9  10
HETATM   10  C3  UNL     1      15.446  -9.040  18.790  1.00  0.00     0.210 C 
BRANCH  10  11
HETATM   11  O2  UNL     1      14.456  -9.526  17.957  1.00  0.00    -0.319 OA
BRANCH  11  12
HETATM   12  C2  UNL     1      14.519  -9.718  16.595  1.00  0.00     0.254 C 
HETATM   13  C1  UNL     1      13.372  -9.437  15.690  1.00  0.00     0.126 C 
HETATM   14  O1  UNL     1      15.593 -10.148  16.114  1.00  0.00    -0.266 OA
ENDBRANCH  11  12
ENDBRANCH  10  11
ENDBRANCH   9  10
BRANCH   9  15
HETATM   15  C5  UNL     1      14.752  -6.677  18.798  1.00  0.00     0.061 C 
BRANCH  15  16
HETATM   16  C6  UNL     1      13.412  -6.075  18.978  1.00  0.00     0.232 C 
BRANCH  16  17
HETATM   17  N1  UNL     1      12.510  -6.862  18.100  1.00  0.00    -0.079 N 
ATOM     18  H13 UNL     1      12.139  -6.333  17.311  1.00  0.00     0.274 HD
ATOM     19  H12 UNL     1      12.989  -7.575  17.550  1.00  0.00     0.274 HD
ATOM     20  H11 UNL     1      11.791  -7.235  18.719  1.00  0.00     0.274 HD
ENDBRANCH  16  17
ENDBRANCH  15  16
ENDBRANCH   9  15
ENDBRANCH   8   9
ENDBRANCH   1   8
BRANCH   7  21
HETATM   21  N2  UNL     1      15.578  -5.591  22.027  1.00  0.00    -0.070 N 
ATOM     22  H23 UNL     1      16.562  -5.372  22.183  1.00  0.00     0.274 HD
ATOM     23  H22 UNL     1      15.584  -5.518  21.009  1.00  0.00     0.274 HD
ATOM     24  H21 UNL     1      14.947  -4.921  22.469  1.00  0.00     0.274 HD
ENDBRANCH   7  21
BRANCH   6  25
HETATM   25  O6  UNL     1      15.485  -5.794  24.525  1.00  0.00    -0.393 OA
ATOM     26  H6  UNL     1      14.848  -5.163  24.212  1.00  0.00     0.210 HD
ENDBRANCH   6  25
BRANCH   5  27
HETATM   27  C12 UNL     1      16.376  -8.308  25.823  1.00  0.00     0.029 C 
HETATM   28  C13 UNL     1      17.226  -9.408  26.367  1.00  0.00     0.000 C 
HETATM   29  C14 UNL     1      16.714  -9.380  27.836  1.00  0.00     0.046 C 
HETATM   30  C15 UNL     1      15.284  -9.723  27.479  1.00  0.00     0.088 C 
HETATM   31  C16 UNL     1      15.018  -8.648  26.436  1.00  0.00     0.157 C 
BRANCH  28  32
HETATM   32  C19 UNL     1      16.723 -10.774  25.945  1.00  0.00    -0.002 A 
HETATM   33  C17 UNL     1      17.979 -11.667  25.845  1.00  0.00     0.027 A 
HETATM   34  C18 UNL     1      17.134 -11.406  24.669  1.00  0.00     0.013 A 
ENDBRANCH  28  32
BRANCH  30  35
HETATM   35  O4  UNL     1      14.423  -9.702  28.525  1.00  0.00    -0.387 OA
ATOM     36  H4  UNL     1      14.122 -10.559  28.804  1.00  0.00     0.210 HD
ENDBRANCH  30  35
BRANCH  31  37
HETATM   37  O5  UNL     1      14.434  -7.578  27.067  1.00  0.00    -0.392 OA
ATOM     38  H5  UNL     1      14.967  -7.229  27.772  1.00  0.00     0.210 HD
ENDBRANCH  31  37
ENDBRANCH   5  27
TORSDOF 15
ENDMDL
