MODEL 1
REMARK VINA RESULT: -7.024943088      0.000      0.000
REMARK  11 active torsions:
REMARK  status: ('A' for Active; 'I' for Inactive)
REMARK    1  A    between atoms: C2_2  and  C3_3 
REMARK    2  A    between atoms: C3_3  and  O1_4 
REMARK    3  A    between atoms: C4_6  and  N1_7 
REMARK    4  A    between atoms: C7_13  and  C8_14 
REMARK    5  A    between atoms: C8_14  and  N2_15 
REMARK    6  A    between atoms: C10_17  and  N3_18 
REMARK    7  A    between atoms: C12_23  and  N4_24 
REMARK    8  A    between atoms: C13_28  and  O2_29 
REMARK    9  A    between atoms: O2_29  and  C14_30 
REMARK   10  A    between atoms: C14_30  and  N6_34 
REMARK   11  A    between atoms: C16_39  and  O3_40 
ROOT
HETATM    1  N2  UNL     1      15.716  -7.612  24.172  1.00  0.00    -0.359 N 
HETATM    2  C9  UNL     1      16.824  -7.167  24.918  1.00  0.00     0.093 C 
HETATM    3  C10 UNL     1      16.815  -7.324  26.384  1.00  0.00     0.223 C 
HETATM    4  C11 UNL     1      15.634  -7.948  27.019  1.00  0.00     0.075 C 
HETATM    5  C12 UNL     1      14.762  -8.771  26.093  1.00  0.00     0.234 C 
HETATM    6  C13 UNL     1      14.505  -7.860  24.894  1.00  0.00     0.263 C 
ENDROOT
BRANCH   1   7
HETATM    7  C8  UNL     1      15.957  -8.457  23.060  1.00  0.00     0.161 C 
BRANCH   7   8
HETATM    8  C7  UNL     1      16.272  -7.697  21.805  1.00  0.00    -0.034 C 
HETATM    9  C6  UNL     1      15.699  -6.506  21.677  1.00  0.00    -0.018 C 
HETATM   10  C5  UNL     1      15.898  -5.614  20.501  1.00  0.00     0.063 C 
HETATM   11  C4  UNL     1      17.106  -6.076  19.715  1.00  0.00     0.223 C 
HETATM   12  C3  UNL     1      17.060  -7.550  19.470  1.00  0.00     0.116 C 
HETATM   13  C16 UNL     1      17.189  -8.272  20.771  1.00  0.00     0.187 C 
BRANCH  11  14
HETATM   14  N1  UNL     1      17.285  -5.330  18.508  1.00  0.00    -0.072 N 
ATOM     15  H13 UNL     1      16.561  -5.553  17.826  1.00  0.00     0.274 HD
ATOM     16  H12 UNL     1      17.075  -4.341  18.652  1.00  0.00     0.274 HD
ATOM     17  H11 UNL     1      18.217  -5.453  18.110  1.00  0.00     0.274 HD
ENDBRANCH  11  14
BRANCH  12  18
HETATM   18  C2  UNL     1      15.816  -8.012  18.765  1.00  0.00     0.038 C 
HETATM   19  C1  UNL     1      15.770  -9.510  18.598  1.00  0.00     0.008 C 
ENDBRANCH  12  18
BRANCH  12  20
HETATM   20  O1  UNL     1      18.147  -7.870  18.650  1.00  0.00    -0.385 OA
ATOM     21  H1  UNL     1      18.565  -7.053  18.404  1.00  0.00     0.210 HD
ENDBRANCH  12  20
BRANCH  13  22
HETATM   22  O3  UNL     1      18.502  -8.150  21.216  1.00  0.00    -0.383 OA
HETATM   23  C17 UNL     1      19.074  -9.378  21.541  1.00  0.00     0.202 C 
ENDBRANCH  13  22
ENDBRANCH   7   8
ENDBRANCH   1   7
BRANCH   6  24
HETATM   24  O2  UNL     1      13.539  -8.351  24.014  1.00  0.00    -0.294 OA
BRANCH  24  25
HETATM   25  C14 UNL     1      12.163  -8.357  24.246  1.00  0.00     0.221 C 
HETATM   26  N5  UNL     1      11.684  -9.524  24.541  1.00  0.00    -0.365 N 
ATOM     27  H52 UNL     1      12.249 -10.372  24.602  1.00  0.00     0.159 HD
ATOM     28  H51 UNL     1      10.678  -9.529  24.710  1.00  0.00     0.159 HD
BRANCH  25  29
HETATM   29  N6  UNL     1      11.387  -7.192  24.163  1.00  0.00    -0.299 N 
HETATM   30  C15 UNL     1      10.376  -6.960  23.445  1.00  0.00     0.204 C 
HETATM   31  N7  UNL     1       9.880  -7.946  22.566  1.00  0.00    -0.066 NA
HETATM   32  N8  UNL     1       9.758  -5.678  23.552  1.00  0.00    -0.066 NA
ATOM     33  H6  UNL     1      11.680  -6.426  24.769  1.00  0.00     0.171 HD
ENDBRANCH  25  29
ENDBRANCH  24  25
ENDBRANCH   6  24
BRANCH   3  34
HETATM   34  N3  UNL     1      16.930  -5.969  26.963  1.00  0.00    -0.070 N 
ATOM     35  H33 UNL     1      17.512  -5.939  27.801  1.00  0.00     0.275 HD
ATOM     36  H32 UNL     1      17.489  -5.335  26.394  1.00  0.00     0.275 HD
ATOM     37  H31 UNL     1      15.980  -5.632  27.123  1.00  0.00     0.275 HD
ENDBRANCH   3  34
BRANCH   5  38
HETATM   38  N4  UNL     1      15.387 -10.008  25.732  1.00  0.00    -0.071 N 
ATOM     39  H43 UNL     1      15.092 -10.316  24.805  1.00  0.00     0.274 HD
ATOM     40  H42 UNL     1      16.382  -9.881  25.548  1.00  0.00     0.274 HD
ATOM     41  H41 UNL     1      15.227 -10.733  26.432  1.00  0.00     0.274 HD
ENDBRANCH   5  38
TORSDOF 11
ENDMDL
MODEL 2
REMARK VINA RESULT: -6.928027871      1.572      1.798
REMARK  11 active torsions:
REMARK  status: ('A' for Active; 'I' for Inactive)
REMARK    1  A    between atoms: C2_2  and  C3_3 
REMARK    2  A    between atoms: C3_3  and  O1_4 
REMARK    3  A    between atoms: C4_6  and  N1_7 
REMARK    4  A    between atoms: C7_13  and  C8_14 
REMARK    5  A    between atoms: C8_14  and  N2_15 
REMARK    6  A    between atoms: C10_17  and  N3_18 
REMARK    7  A    between atoms: C12_23  and  N4_24 
REMARK    8  A    between atoms: C13_28  and  O2_29 
REMARK    9  A    between atoms: O2_29  and  C14_30 
REMARK   10  A    between atoms: C14_30  and  N6_34 
REMARK   11  A    between atoms: C16_39  and  O3_40 
ROOT
HETATM    1  N2  UNL     1      15.370  -7.602  24.021  1.00  0.00    -0.359 N 
HETATM    2  C9  UNL     1      16.534  -6.995  24.530  1.00  0.00     0.093 C 
HETATM    3  C10 UNL     1      16.899  -7.209  25.943  1.00  0.00     0.223 C 
HETATM    4  C11 UNL     1      16.023  -8.061  26.776  1.00  0.00     0.075 C 
HETATM    5  C12 UNL     1      15.105  -8.990  26.008  1.00  0.00     0.234 C 
HETATM    6  C13 UNL     1      14.423  -8.094  24.976  1.00  0.00     0.263 C 
ENDROOT
BRANCH   1   7
HETATM    7  C8  UNL     1      15.477  -8.345  22.819  1.00  0.00     0.161 C 
BRANCH   7   8
HETATM    8  C7  UNL     1      14.897  -7.628  21.635  1.00  0.00    -0.034 C 
HETATM    9  C6  UNL     1      13.576  -7.488  21.620  1.00  0.00    -0.018 C 
HETATM   10  C5  UNL     1      12.828  -6.804  20.528  1.00  0.00     0.063 C 
HETATM   11  C4  UNL     1      13.790  -5.987  19.693  1.00  0.00     0.223 C 
HETATM   12  C3  UNL     1      14.995  -6.786  19.317  1.00  0.00     0.116 C 
HETATM   13  C16 UNL     1      15.780  -7.107  20.546  1.00  0.00     0.187 C 
BRANCH  11  14
HETATM   14  N1  UNL     1      13.154  -5.395  18.557  1.00  0.00    -0.072 N 
ATOM     15  H13 UNL     1      13.472  -5.826  17.690  1.00  0.00     0.274 HD
ATOM     16  H12 UNL     1      12.167  -5.650  18.513  1.00  0.00     0.274 HD
ATOM     17  H11 UNL     1      13.273  -4.382  18.529  1.00  0.00     0.274 HD
ENDBRANCH  11  14
BRANCH  12  18
HETATM   18  C2  UNL     1      14.676  -8.059  18.583  1.00  0.00     0.038 C 
HETATM   19  C1  UNL     1      15.909  -8.868  18.268  1.00  0.00     0.008 C 
ENDBRANCH  12  18
BRANCH  12  20
HETATM   20  O1  UNL     1      15.769  -5.996  18.461  1.00  0.00    -0.385 OA
ATOM     21  H1  UNL     1      16.532  -5.712  18.952  1.00  0.00     0.210 HD
ENDBRANCH  12  20
BRANCH  13  22
HETATM   22  O3  UNL     1      16.402  -5.944  20.989  1.00  0.00    -0.383 OA
HETATM   23  C17 UNL     1      17.782  -6.090  21.120  1.00  0.00     0.202 C 
ENDBRANCH  13  22
ENDBRANCH   7   8
ENDBRANCH   1   7
BRANCH   6  24
HETATM   24  O2  UNL     1      13.372  -8.715  24.301  1.00  0.00    -0.294 OA
BRANCH  24  25
HETATM   25  C14 UNL     1      12.020  -8.596  24.626  1.00  0.00     0.221 C 
HETATM   26  N5  UNL     1      11.495  -9.680  25.101  1.00  0.00    -0.365 N 
ATOM     27  H52 UNL     1      12.010 -10.551  25.232  1.00  0.00     0.159 HD
ATOM     28  H51 UNL     1      10.507  -9.593  25.338  1.00  0.00     0.159 HD
BRANCH  25  29
HETATM   29  N6  UNL     1      11.312  -7.398  24.447  1.00  0.00    -0.299 N 
HETATM   30  C15 UNL     1      10.422  -7.121  23.598  1.00  0.00     0.204 C 
HETATM   31  N7  UNL     1      10.012  -8.081  22.649  1.00  0.00    -0.066 NA
HETATM   32  N8  UNL     1       9.849  -5.813  23.630  1.00  0.00    -0.066 NA
ATOM     33  H6  UNL     1      11.550  -6.647  25.095  1.00  0.00     0.171 HD
ENDBRANCH  25  29
ENDBRANCH  24  25
ENDBRANCH   6  24
BRANCH   3  34
HETATM   34  N3  UNL     1      16.921  -5.880  26.589  1.00  0.00    -0.070 N 
ATOM     35  H33 UNL     1      16.137  -5.730  27.224  1.00  0.00     0.275 HD
ATOM     36  H32 UNL     1      17.666  -5.782  27.278  1.00  0.00     0.275 HD
ATOM     37  H31 UNL     1      16.971  -5.186  25.843  1.00  0.00     0.275 HD
ENDBRANCH   3  34
BRANCH   5  38
HETATM   38  N4  UNL     1      15.823 -10.079  25.415  1.00  0.00    -0.071 N 
ATOM     39  H43 UNL     1      16.766  -9.798  25.145  1.00  0.00     0.274 HD
ATOM     40  H42 UNL     1      16.060 -10.788  26.110  1.00  0.00     0.274 HD
ATOM     41  H41 UNL     1      15.316 -10.484  24.628  1.00  0.00     0.274 HD
ENDBRANCH   5  38
TORSDOF 11
ENDMDL
MODEL 3
REMARK VINA RESULT: -6.817496561      5.441      8.029
REMARK  11 active torsions:
REMARK  status: ('A' for Active; 'I' for Inactive)
REMARK    1  A    between atoms: C2_2  and  C3_3 
REMARK    2  A    between atoms: C3_3  and  O1_4 
REMARK    3  A    between atoms: C4_6  and  N1_7 
REMARK    4  A    between atoms: C7_13  and  C8_14 
REMARK    5  A    between atoms: C8_14  and  N2_15 
REMARK    6  A    between atoms: C10_17  and  N3_18 
REMARK    7  A    between atoms: C12_23  and  N4_24 
REMARK    8  A    between atoms: C13_28  and  O2_29 
REMARK    9  A    between atoms: O2_29  and  C14_30 
REMARK   10  A    between atoms: C14_30  and  N6_34 
REMARK   11  A    between atoms: C16_39  and  O3_40 
ROOT
HETATM    1  N2  UNL     1      18.639 -10.535  26.790  1.00  0.00    -0.359 N 
HETATM    2  C9  UNL     1      18.854 -11.920  26.662  1.00  0.00     0.093 C 
HETATM    3  C10 UNL     1      17.717 -12.797  26.325  1.00  0.00     0.223 C 
HETATM    4  C11 UNL     1      16.386 -12.182  26.130  1.00  0.00     0.075 C 
HETATM    5  C12 UNL     1      16.397 -10.694  25.845  1.00  0.00     0.234 C 
HETATM    6  C13 UNL     1      17.283 -10.098  26.937  1.00  0.00     0.263 C 
ENDROOT
BRANCH   1   7
HETATM    7  C8  UNL     1      19.496  -9.659  26.076  1.00  0.00     0.161 C 
BRANCH   7   8
HETATM    8  C7  UNL     1      20.765  -9.353  26.815  1.00  0.00    -0.034 C 
HETATM    9  C6  UNL     1      21.846  -9.147  26.072  1.00  0.00    -0.018 C 
HETATM   10  C5  UNL     1      23.190  -8.831  26.633  1.00  0.00     0.063 C 
HETATM   11  C4  UNL     1      23.046  -8.404  28.078  1.00  0.00     0.223 C 
HETATM   12  C3  UNL     1      22.179  -9.355  28.839  1.00  0.00     0.116 C 
HETATM   13  C16 UNL     1      20.785  -9.286  28.310  1.00  0.00     0.187 C 
BRANCH  11  14
HETATM   14  N1  UNL     1      24.311  -8.196  28.710  1.00  0.00    -0.072 N 
ATOM     15  H13 UNL     1      24.514  -7.201  28.809  1.00  0.00     0.274 HD
ATOM     16  H12 UNL     1      24.276  -8.453  29.697  1.00  0.00     0.274 HD
ATOM     17  H11 UNL     1      25.070  -8.680  28.230  1.00  0.00     0.274 HD
ENDBRANCH  11  14
BRANCH  12  18
HETATM   18  C2  UNL     1      22.658 -10.780  28.798  1.00  0.00     0.038 C 
HETATM   19  C1  UNL     1      22.391 -11.514  30.088  1.00  0.00     0.008 C 
ENDBRANCH  12  18
BRANCH  12  20
HETATM   20  O1  UNL     1      22.192  -8.951  30.177  1.00  0.00    -0.385 OA
ATOM     21  H1  UNL     1      21.293  -8.769  30.426  1.00  0.00     0.210 HD
ENDBRANCH  12  20
BRANCH  13  22
HETATM   22  O3  UNL     1      20.218  -8.081  28.714  1.00  0.00    -0.383 OA
HETATM   23  C17 UNL     1      19.186  -8.256  29.634  1.00  0.00     0.202 C 
ENDBRANCH  13  22
ENDBRANCH   7   8
ENDBRANCH   1   7
BRANCH   6  24
HETATM   24  O2  UNL     1      17.253  -8.704  26.984  1.00  0.00    -0.294 OA
BRANCH  24  25
HETATM   25  C14 UNL     1      16.128  -7.929  27.267  1.00  0.00     0.221 C 
HETATM   26  N5  UNL     1      15.545  -7.445  26.217  1.00  0.00    -0.365 N 
ATOM     27  H52 UNL     1      15.868  -7.605  25.262  1.00  0.00     0.159 HD
ATOM     28  H51 UNL     1      14.722  -6.878  26.423  1.00  0.00     0.159 HD
BRANCH  25  29
HETATM   29  N6  UNL     1      15.683  -7.708  28.579  1.00  0.00    -0.299 N 
HETATM   30  C15 UNL     1      14.912  -8.413  29.286  1.00  0.00     0.204 C 
HETATM   31  N7  UNL     1      14.367  -9.610  28.776  1.00  0.00    -0.066 NA
HETATM   32  N8  UNL     1      14.615  -7.962  30.607  1.00  0.00    -0.066 NA
ATOM     33  H6  UNL     1      16.032  -6.859  29.023  1.00  0.00     0.171 HD
ENDBRANCH  25  29
ENDBRANCH  24  25
ENDBRANCH   6  24
BRANCH   3  34
HETATM   34  N3  UNL     1      17.569 -13.760  27.436  1.00  0.00    -0.070 N 
ATOM     35  H33 UNL     1      18.401 -13.825  28.023  1.00  0.00     0.275 HD
ATOM     36  H32 UNL     1      16.924 -13.442  28.159  1.00  0.00     0.275 HD
ATOM     37  H31 UNL     1      17.299 -14.653  27.023  1.00  0.00     0.275 HD
ENDBRANCH   3  34
BRANCH   5  38
HETATM   38  N4  UNL     1      16.870 -10.408  24.523  1.00  0.00    -0.071 N 
ATOM     39  H43 UNL     1      17.609  -9.705  24.537  1.00  0.00     0.274 HD
ATOM     40  H42 UNL     1      17.402 -11.191  24.142  1.00  0.00     0.274 HD
ATOM     41  H41 UNL     1      16.110 -10.135  23.899  1.00  0.00     0.274 HD
ENDBRANCH   5  38
TORSDOF 11
ENDMDL
MODEL 4
REMARK VINA RESULT: -6.808104885      2.222      2.702
REMARK  11 active torsions:
REMARK  status: ('A' for Active; 'I' for Inactive)
REMARK    1  A    between atoms: C2_2  and  C3_3 
REMARK    2  A    between atoms: C3_3  and  O1_4 
REMARK    3  A    between atoms: C4_6  and  N1_7 
REMARK    4  A    between atoms: C7_13  and  C8_14 
REMARK    5  A    between atoms: C8_14  and  N2_15 
REMARK    6  A    between atoms: C10_17  and  N3_18 
REMARK    7  A    between atoms: C12_23  and  N4_24 
REMARK    8  A    between atoms: C13_28  and  O2_29 
REMARK    9  A    between atoms: O2_29  and  C14_30 
REMARK   10  A    between atoms: C14_30  and  N6_34 
REMARK   11  A    between atoms: C16_39  and  O3_40 
ROOT
HETATM    1  N2  UNL     1      16.213  -7.527  22.967  1.00  0.00    -0.359 N 
HETATM    2  C9  UNL     1      17.460  -6.879  22.894  1.00  0.00     0.093 C 
HETATM    3  C10 UNL     1      18.403  -7.003  24.021  1.00  0.00     0.223 C 
HETATM    4  C11 UNL     1      17.999  -7.811  25.192  1.00  0.00     0.075 C 
HETATM    5  C12 UNL     1      16.874  -8.794  24.942  1.00  0.00     0.234 C 
HETATM    6  C13 UNL     1      15.785  -7.969  24.260  1.00  0.00     0.263 C 
ENDROOT
BRANCH   1   7
HETATM    7  C8  UNL     1      15.820  -8.342  21.874  1.00  0.00     0.161 C 
BRANCH   7   8
HETATM    8  C7  UNL     1      14.857  -7.656  20.951  1.00  0.00    -0.034 C 
HETATM    9  C6  UNL     1      13.592  -7.603  21.352  1.00  0.00    -0.018 C 
HETATM   10  C5  UNL     1      12.500  -6.962  20.566  1.00  0.00     0.063 C 
HETATM   11  C4  UNL     1      13.101  -6.076  19.497  1.00  0.00     0.223 C 
HETATM   12  C3  UNL     1      14.175  -6.792  18.742  1.00  0.00     0.116 C 
HETATM   13  C16 UNL     1      15.322  -7.069  19.656  1.00  0.00     0.187 C 
BRANCH  11  14
HETATM   14  N1  UNL     1      12.108  -5.519  18.632  1.00  0.00    -0.072 N 
ATOM     15  H13 UNL     1      12.381  -5.604  17.654  1.00  0.00     0.274 HD
ATOM     16  H12 UNL     1      11.267  -6.096  18.618  1.00  0.00     0.274 HD
ATOM     17  H11 UNL     1      11.886  -4.551  18.869  1.00  0.00     0.274 HD
ENDBRANCH  11  14
BRANCH  12  18
HETATM   18  C2  UNL     1      13.720  -8.077  18.109  1.00  0.00     0.038 C 
HETATM   19  C1  UNL     1      14.869  -8.899  17.582  1.00  0.00     0.008 C 
ENDBRANCH  12  18
BRANCH  12  20
HETATM   20  O1  UNL     1      14.594  -5.946  17.710  1.00  0.00    -0.385 OA
ATOM     21  H1  UNL     1      14.846  -5.120  18.106  1.00  0.00     0.210 HD
ENDBRANCH  12  20
BRANCH  13  22
HETATM   22  O3  UNL     1      15.980  -5.871  19.916  1.00  0.00    -0.383 OA
HETATM   23  C17 UNL     1      17.300  -5.875  19.467  1.00  0.00     0.202 C 
ENDBRANCH  13  22
ENDBRANCH   7   8
ENDBRANCH   1   7
BRANCH   6  24
HETATM   24  O2  UNL     1      14.568  -8.641  24.135  1.00  0.00    -0.294 OA
BRANCH  24  25
HETATM   25  C14 UNL     1      13.476  -8.500  24.991  1.00  0.00     0.221 C 
HETATM   26  N5  UNL     1      13.524  -9.263  26.037  1.00  0.00    -0.365 N 
ATOM     27  H52 UNL     1      14.285  -9.915  26.230  1.00  0.00     0.159 HD
ATOM     28  H51 UNL     1      12.725  -9.160  26.663  1.00  0.00     0.159 HD
BRANCH  25  29
HETATM   29  N6  UNL     1      12.430  -7.604  24.726  1.00  0.00    -0.299 N 
HETATM   30  C15 UNL     1      11.299  -7.832  24.216  1.00  0.00     0.204 C 
HETATM   31  N7  UNL     1      10.940  -9.138  23.822  1.00  0.00    -0.066 NA
HETATM   32  N8  UNL     1      10.403  -6.732  24.054  1.00  0.00    -0.066 NA
ATOM     33  H6  UNL     1      12.608  -6.633  24.982  1.00  0.00     0.171 HD
ENDBRANCH  25  29
ENDBRANCH  24  25
ENDBRANCH   6  24
BRANCH   3  34
HETATM   34  N3  UNL     1      18.653  -5.637  24.526  1.00  0.00    -0.070 N 
ATOM     35  H33 UNL     1      18.056  -5.385  25.313  1.00  0.00     0.275 HD
ATOM     36  H32 UNL     1      19.547  -5.546  25.008  1.00  0.00     0.275 HD
ATOM     37  H31 UNL     1      18.559  -5.003  23.733  1.00  0.00     0.275 HD
ENDBRANCH   3  34
BRANCH   5  38
HETATM   38  N4  UNL     1      17.306  -9.910  24.155  1.00  0.00    -0.071 N 
ATOM     39  H43 UNL     1      17.371 -10.758  24.718  1.00  0.00     0.274 HD
ATOM     40  H42 UNL     1      16.581 -10.207  23.502  1.00  0.00     0.274 HD
ATOM     41  H41 UNL     1      18.184  -9.717  23.673  1.00  0.00     0.274 HD
ENDBRANCH   5  38
TORSDOF 11
ENDMDL
MODEL 5
REMARK VINA RESULT: -6.741667623      2.779      5.371
REMARK  11 active torsions:
REMARK  status: ('A' for Active; 'I' for Inactive)
REMARK    1  A    between atoms: C2_2  and  C3_3 
REMARK    2  A    between atoms: C3_3  and  O1_4 
REMARK    3  A    between atoms: C4_6  and  N1_7 
REMARK    4  A    between atoms: C7_13  and  C8_14 
REMARK    5  A    between atoms: C8_14  and  N2_15 
REMARK    6  A    between atoms: C10_17  and  N3_18 
REMARK    7  A    between atoms: C12_23  and  N4_24 
REMARK    8  A    between atoms: C13_28  and  O2_29 
REMARK    9  A    between atoms: O2_29  and  C14_30 
REMARK   10  A    between atoms: C14_30  and  N6_34 
REMARK   11  A    between atoms: C16_39  and  O3_40 
ROOT
HETATM    1  N2  UNL     1      14.016  -6.872  19.546  1.00  0.00    -0.359 N 
HETATM    2  C9  UNL     1      14.205  -6.581  18.182  1.00  0.00     0.093 C 
HETATM    3  C10 UNL     1      13.054  -6.139  17.373  1.00  0.00     0.223 C 
HETATM    4  C11 UNL     1      11.736  -6.016  18.032  1.00  0.00     0.075 C 
HETATM    5  C12 UNL     1      11.775  -5.910  19.543  1.00  0.00     0.234 C 
HETATM    6  C13 UNL     1      12.667  -7.067  19.988  1.00  0.00     0.263 C 
ENDROOT
BRANCH   1   7
HETATM    7  C8  UNL     1      14.891  -6.269  20.484  1.00  0.00     0.161 C 
BRANCH   7   8
HETATM    8  C7  UNL     1      16.158  -7.049  20.686  1.00  0.00    -0.034 C 
HETATM    9  C6  UNL     1      16.020  -8.290  21.139  1.00  0.00    -0.018 C 
HETATM   10  C5  UNL     1      17.165  -9.208  21.397  1.00  0.00     0.063 C 
HETATM   11  C4  UNL     1      18.405  -8.674  20.714  1.00  0.00     0.223 C 
HETATM   12  C3  UNL     1      18.599  -7.221  21.004  1.00  0.00     0.116 C 
HETATM   13  C16 UNL     1      17.490  -6.439  20.382  1.00  0.00     0.187 C 
BRANCH  11  14
HETATM   14  N1  UNL     1      19.567  -9.450  21.016  1.00  0.00    -0.072 N 
ATOM     15  H13 UNL     1      19.944  -9.206  21.932  1.00  0.00     0.274 HD
ATOM     16  H12 UNL     1      19.323 -10.425  21.195  1.00  0.00     0.274 HD
ATOM     17  H11 UNL     1      20.283  -9.376  20.293  1.00  0.00     0.274 HD
ENDBRANCH  11  14
BRANCH  12  18
HETATM   18  C2  UNL     1      18.676  -6.899  22.470  1.00  0.00     0.038 C 
HETATM   19  C1  UNL     1      20.043  -6.414  22.883  1.00  0.00     0.008 C 
ENDBRANCH  12  18
BRANCH  12  20
HETATM   20  O1  UNL     1      19.817  -6.841  20.431  1.00  0.00    -0.385 OA
ATOM     21  H1  UNL     1      19.877  -7.270  19.585  1.00  0.00     0.210 HD
ENDBRANCH  12  20
BRANCH  13  22
HETATM   22  O3  UNL     1      17.675  -6.427  19.003  1.00  0.00    -0.383 OA
HETATM   23  C17 UNL     1      17.794  -5.138  18.489  1.00  0.00     0.202 C 
ENDBRANCH  13  22
ENDBRANCH   7   8
ENDBRANCH   1   7
BRANCH   6  24
HETATM   24  O2  UNL     1      12.663  -7.280  21.367  1.00  0.00    -0.294 OA
BRANCH  24  25
HETATM   25  C14 UNL     1      11.538  -7.590  22.133  1.00  0.00     0.221 C 
HETATM   26  N5  UNL     1      10.601  -8.193  21.472  1.00  0.00    -0.365 N 
ATOM     27  H52 UNL     1      10.665  -8.425  20.480  1.00  0.00     0.159 HD
ATOM     28  H51 UNL     1       9.779  -8.419  22.031  1.00  0.00     0.159 HD
BRANCH  25  29
HETATM   29  N6  UNL     1      11.452  -7.271  23.496  1.00  0.00    -0.299 N 
HETATM   30  C15 UNL     1      11.403  -8.044  24.491  1.00  0.00     0.204 C 
HETATM   31  N7  UNL     1      11.433  -9.443  24.314  1.00  0.00    -0.066 NA
HETATM   32  N8  UNL     1      11.318  -7.458  25.791  1.00  0.00    -0.066 NA
ATOM     33  H6  UNL     1      11.424  -6.274  23.712  1.00  0.00     0.171 HD
ENDBRANCH  25  29
ENDBRANCH  24  25
ENDBRANCH   6  24
BRANCH   3  34
HETATM   34  N3  UNL     1      12.884  -7.128  16.288  1.00  0.00    -0.070 N 
ATOM     35  H33 UNL     1      13.387  -7.999  16.456  1.00  0.00     0.275 HD
ATOM     36  H32 UNL     1      11.945  -7.524  16.251  1.00  0.00     0.275 HD
ATOM     37  H31 UNL     1      13.159  -6.668  15.419  1.00  0.00     0.275 HD
ENDBRANCH   3  34
BRANCH   5  38
HETATM   38  N4  UNL     1      12.259  -4.633  19.975  1.00  0.00    -0.071 N 
ATOM     39  H43 UNL     1      13.193  -4.446  19.610  1.00  0.00     0.274 HD
ATOM     40  H42 UNL     1      11.754  -3.872  19.520  1.00  0.00     0.274 HD
ATOM     41  H41 UNL     1      12.233  -4.541  20.991  1.00  0.00     0.274 HD
ENDBRANCH   5  38
TORSDOF 11
ENDMDL
