MODEL 1
REMARK VINA RESULT: -7.263502936      0.000      0.000
REMARK  4 active torsions:
REMARK  status: ('A' for Active; 'I' for Inactive)
REMARK    1  A    between atoms: C1_2  and  C2_4 
REMARK    2  A    between atoms: C3_5  and  N2_6 
REMARK    3  A    between atoms: C4_7  and  C5_8 
REMARK    4  A    between atoms: N3_9  and  N4_11 
ROOT
HETATM    1  N2  UNL     1      34.623  32.722  -2.648  1.00  0.00    -0.272 N 
HETATM    2  C4  UNL     1      34.714  32.099  -1.395  1.00  0.00     0.075 A 
HETATM    3  C7  UNL     1      34.434  33.010  -0.419  1.00  0.00     0.124 A 
HETATM    4  N7  UNL     1      34.179  34.158  -1.036  1.00  0.00    -0.316 N 
ATOM      5  H7  UNL     1      33.935  35.034  -0.573  1.00  0.00     0.170 HD
HETATM    6  C8  UNL     1      34.291  33.985  -2.375  1.00  0.00     0.331 A 
HETATM    7  O2  UNL     1      34.077  34.971  -3.164  1.00  0.00    -0.246 OA
ENDROOT
BRANCH   2   8
HETATM    8  C5  UNL     1      35.080  30.703  -1.209  1.00  0.00     0.138 C 
HETATM    9  N3  UNL     1      35.598  30.199  -0.185  1.00  0.00    -0.308 N 
ATOM     10  H3  UNL     1      35.790  29.198  -0.227  1.00  0.00     0.186 HD
BRANCH   9  11
HETATM   11  N4  UNL     1      35.933  30.818   0.967  1.00  0.00    -0.276 N 
HETATM   12  C6  UNL     1      37.135  30.901   1.459  1.00  0.00     0.215 C 
HETATM   13  N5  UNL     1      38.184  30.302   0.750  1.00  0.00    -0.065 NA
HETATM   14  N6  UNL     1      37.351  31.580   2.677  1.00  0.00    -0.065 NA
ATOM     15  H4  UNL     1      35.181  31.259   1.496  1.00  0.00     0.189 HD
ENDBRANCH   9  11
ENDBRANCH   2   8
BRANCH   1  16
HETATM   16  C3  UNL     1      34.761  32.024  -3.857  1.00  0.00     0.107 C 
HETATM   17  C2  UNL     1      34.109  31.708  -4.877  1.00  0.00     0.088 C 
BRANCH  17  18
HETATM   18  C1  UNL     1      32.800  31.921  -5.377  1.00  0.00     0.255 C 
HETATM   19  N1  UNL     1      32.243  30.983  -6.370  1.00  0.00    -0.058 NA
HETATM   20  O1  UNL     1      31.980  32.808  -5.115  1.00  0.00    -0.272 OA
ENDBRANCH  17  18
ENDBRANCH   1  16
TORSDOF 4
ENDMDL
MODEL 2
REMARK VINA RESULT: -7.236657266      2.472      4.739
REMARK  4 active torsions:
REMARK  status: ('A' for Active; 'I' for Inactive)
REMARK    1  A    between atoms: C1_2  and  C2_4 
REMARK    2  A    between atoms: C3_5  and  N2_6 
REMARK    3  A    between atoms: C4_7  and  C5_8 
REMARK    4  A    between atoms: N3_9  and  N4_11 
ROOT
HETATM    1  N2  UNL     1      35.590  31.249   0.111  1.00  0.00    -0.272 N 
HETATM    2  C4  UNL     1      34.935  32.367   0.647  1.00  0.00     0.075 A 
HETATM    3  C7  UNL     1      35.691  32.887   1.657  1.00  0.00     0.124 A 
HETATM    4  N7  UNL     1      36.774  32.126   1.749  1.00  0.00    -0.316 N 
ATOM      5  H7  UNL     1      37.535  32.262   2.416  1.00  0.00     0.170 HD
HETATM    6  C8  UNL     1      36.715  31.142   0.820  1.00  0.00     0.331 A 
HETATM    7  O2  UNL     1      37.670  30.293   0.730  1.00  0.00    -0.246 OA
ENDROOT
BRANCH   2   8
HETATM    8  C5  UNL     1      33.640  32.846   0.187  1.00  0.00     0.138 C 
HETATM    9  N3  UNL     1      33.435  33.664  -0.740  1.00  0.00    -0.308 N 
ATOM     10  H3  UNL     1      32.459  33.889  -0.930  1.00  0.00     0.186 HD
BRANCH   9  11
HETATM   11  N4  UNL     1      34.348  34.283  -1.519  1.00  0.00    -0.276 N 
HETATM   12  C6  UNL     1      34.376  34.254  -2.819  1.00  0.00     0.215 C 
HETATM   13  N5  UNL     1      33.385  33.522  -3.488  1.00  0.00    -0.065 NA
HETATM   14  N6  UNL     1      35.389  34.946  -3.516  1.00  0.00    -0.065 NA
ATOM     15  H4  UNL     1      35.077  34.818  -1.047  1.00  0.00     0.189 HD
ENDBRANCH   9  11
ENDBRANCH   2   8
BRANCH   1  16
HETATM   16  C3  UNL     1      35.111  30.551  -1.008  1.00  0.00     0.107 C 
HETATM   17  C2  UNL     1      35.242  30.501  -2.252  1.00  0.00     0.088 C 
BRANCH  17  18
HETATM   18  C1  UNL     1      36.007  31.167  -3.240  1.00  0.00     0.255 C 
HETATM   19  N1  UNL     1      35.643  31.016  -4.662  1.00  0.00    -0.058 NA
HETATM   20  O1  UNL     1      36.993  31.905  -3.124  1.00  0.00    -0.272 OA
ENDBRANCH  17  18
ENDBRANCH   1  16
TORSDOF 4
ENDMDL
MODEL 3
REMARK VINA RESULT: -7.088089669      3.014      5.043
REMARK  4 active torsions:
REMARK  status: ('A' for Active; 'I' for Inactive)
REMARK    1  A    between atoms: C1_2  and  C2_4 
REMARK    2  A    between atoms: C3_5  and  N2_6 
REMARK    3  A    between atoms: C4_7  and  C5_8 
REMARK    4  A    between atoms: N3_9  and  N4_11 
ROOT
HETATM    1  N2  UNL     1      34.729  32.825  -2.561  1.00  0.00    -0.272 N 
HETATM    2  C4  UNL     1      34.269  31.694  -3.250  1.00  0.00     0.075 A 
HETATM    3  C7  UNL     1      33.386  32.085  -4.214  1.00  0.00     0.124 A 
HETATM    4  N7  UNL     1      33.297  33.407  -4.131  1.00  0.00    -0.316 N 
ATOM      5  H7  UNL     1      32.712  33.996  -4.723  1.00  0.00     0.170 HD
HETATM    6  C8  UNL     1      34.105  33.852  -3.139  1.00  0.00     0.331 A 
HETATM    7  O2  UNL     1      34.177  35.107  -2.892  1.00  0.00    -0.246 OA
ENDROOT
BRANCH   2   8
HETATM    8  C5  UNL     1      34.674  30.332  -2.936  1.00  0.00     0.138 C 
HETATM    9  N3  UNL     1      35.652  29.715  -3.419  1.00  0.00    -0.308 N 
ATOM     10  H3  UNL     1      35.789  28.762  -3.084  1.00  0.00     0.186 HD
BRANCH   9  11
HETATM   11  N4  UNL     1      36.546  30.158  -4.328  1.00  0.00    -0.276 N 
HETATM   12  C6  UNL     1      37.181  29.416  -5.188  1.00  0.00     0.215 C 
HETATM   13  N5  UNL     1      36.932  28.037  -5.185  1.00  0.00    -0.065 NA
HETATM   14  N6  UNL     1      38.094  30.006  -6.088  1.00  0.00    -0.065 NA
ATOM     15  H4  UNL     1      36.740  31.160  -4.343  1.00  0.00     0.189 HD
ENDBRANCH   9  11
ENDBRANCH   2   8
BRANCH   1  16
HETATM   16  C3  UNL     1      35.723  32.760  -1.573  1.00  0.00     0.107 C 
HETATM   17  C2  UNL     1      35.857  32.746  -0.328  1.00  0.00     0.088 C 
BRANCH  17  18
HETATM   18  C1  UNL     1      35.007  32.777   0.805  1.00  0.00     0.255 C 
HETATM   19  N1  UNL     1      33.595  32.377   0.662  1.00  0.00    -0.058 NA
HETATM   20  O1  UNL     1      35.247  33.099   1.975  1.00  0.00    -0.272 OA
ENDBRANCH  17  18
ENDBRANCH   1  16
TORSDOF 4
ENDMDL
MODEL 4
REMARK VINA RESULT: -7.052736512      1.756      2.545
REMARK  4 active torsions:
REMARK  status: ('A' for Active; 'I' for Inactive)
REMARK    1  A    between atoms: C1_2  and  C2_4 
REMARK    2  A    between atoms: C3_5  and  N2_6 
REMARK    3  A    between atoms: C4_7  and  C5_8 
REMARK    4  A    between atoms: N3_9  and  N4_11 
ROOT
HETATM    1  N2  UNL     1      34.921  32.758  -2.665  1.00  0.00    -0.272 N 
HETATM    2  C4  UNL     1      34.722  32.081  -1.453  1.00  0.00     0.075 A 
HETATM    3  C7  UNL     1      34.168  32.937  -0.547  1.00  0.00     0.124 A 
HETATM    4  N7  UNL     1      34.026  34.102  -1.167  1.00  0.00    -0.316 N 
ATOM      5  H7  UNL     1      33.636  34.948  -0.749  1.00  0.00     0.170 HD
HETATM    6  C8  UNL     1      34.477  33.995  -2.440  1.00  0.00     0.331 A 
HETATM    7  O2  UNL     1      34.425  35.009  -3.221  1.00  0.00    -0.246 OA
ENDROOT
BRANCH   2   8
HETATM    8  C5  UNL     1      35.090  30.690  -1.231  1.00  0.00     0.138 C 
HETATM    9  N3  UNL     1      35.607  30.213  -0.193  1.00  0.00    -0.308 N 
ATOM     10  H3  UNL     1      35.800  29.212  -0.210  1.00  0.00     0.186 HD
BRANCH   9  11
HETATM   11  N4  UNL     1      35.939  30.862   0.943  1.00  0.00    -0.276 N 
HETATM   12  C6  UNL     1      37.131  30.919   1.460  1.00  0.00     0.215 C 
HETATM   13  N5  UNL     1      38.173  30.255   0.799  1.00  0.00    -0.065 NA
HETATM   14  N6  UNL     1      37.345  31.634   2.658  1.00  0.00    -0.065 NA
ATOM     15  H4  UNL     1      35.191  31.349   1.438  1.00  0.00     0.189 HD
ENDBRANCH   9  11
ENDBRANCH   2   8
BRANCH   1  16
HETATM   16  C3  UNL     1      35.388  32.120  -3.824  1.00  0.00     0.107 C 
HETATM   17  C2  UNL     1      36.258  32.240  -4.717  1.00  0.00     0.088 C 
BRANCH  17  18
HETATM   18  C1  UNL     1      37.302  33.145  -5.030  1.00  0.00     0.255 C 
HETATM   19  N1  UNL     1      37.863  33.999  -3.966  1.00  0.00    -0.058 NA
HETATM   20  O1  UNL     1      37.872  33.366  -6.104  1.00  0.00    -0.272 OA
ENDBRANCH  17  18
ENDBRANCH   1  16
TORSDOF 4
ENDMDL
MODEL 5
REMARK VINA RESULT: -7.051511255      2.587      3.766
REMARK  4 active torsions:
REMARK  status: ('A' for Active; 'I' for Inactive)
REMARK    1  A    between atoms: C1_2  and  C2_4 
REMARK    2  A    between atoms: C3_5  and  N2_6 
REMARK    3  A    between atoms: C4_7  and  C5_8 
REMARK    4  A    between atoms: N3_9  and  N4_11 
ROOT
HETATM    1  N2  UNL     1      36.093  31.836  -3.152  1.00  0.00    -0.272 N 
HETATM    2  C4  UNL     1      35.130  31.030  -2.527  1.00  0.00     0.075 A 
HETATM    3  C7  UNL     1      35.038  29.843  -3.194  1.00  0.00     0.124 A 
HETATM    4  N7  UNL     1      35.906  29.904  -4.195  1.00  0.00    -0.316 N 
ATOM      5  H7  UNL     1      36.071  29.164  -4.878  1.00  0.00     0.170 HD
HETATM    6  C8  UNL     1      36.542  31.100  -4.171  1.00  0.00     0.331 A 
HETATM    7  O2  UNL     1      37.433  31.366  -5.051  1.00  0.00    -0.246 OA
ENDROOT
BRANCH   2   8
HETATM    8  C5  UNL     1      34.355  31.445  -1.367  1.00  0.00     0.138 C 
HETATM    9  N3  UNL     1      34.675  31.294  -0.165  1.00  0.00    -0.308 N 
ATOM     10  H3  UNL     1      34.009  31.647   0.522  1.00  0.00     0.186 HD
BRANCH   9  11
HETATM   11  N4  UNL     1      35.792  30.723   0.332  1.00  0.00    -0.276 N 
HETATM   12  C6  UNL     1      36.485  31.168   1.339  1.00  0.00     0.215 C 
HETATM   13  N5  UNL     1      36.051  32.339   1.976  1.00  0.00    -0.065 NA
HETATM   14  N6  UNL     1      37.639  30.474   1.761  1.00  0.00    -0.065 NA
ATOM     15  H4  UNL     1      36.122  29.871  -0.121  1.00  0.00     0.189 HD
ENDBRANCH   9  11
ENDBRANCH   2   8
BRANCH   1  16
HETATM   16  C3  UNL     1      36.487  33.082  -2.644  1.00  0.00     0.107 C 
HETATM   17  C2  UNL     1      36.680  34.265  -3.008  1.00  0.00     0.088 C 
BRANCH  17  18
HETATM   18  C1  UNL     1      36.579  35.007  -4.211  1.00  0.00     0.255 C 
HETATM   19  N1  UNL     1      36.927  36.440  -4.208  1.00  0.00    -0.058 NA
HETATM   20  O1  UNL     1      36.229  34.651  -5.342  1.00  0.00    -0.272 OA
ENDBRANCH  17  18
ENDBRANCH   1  16
TORSDOF 4
ENDMDL
