MODEL 1
REMARK VINA RESULT: -4.984683604      0.000      0.000
REMARK  1 active torsions:
REMARK  status: ('A' for Active; 'I' for Inactive)
REMARK    1  A    between atoms: N1_1  and  C1_4 
ROOT
HETATM    1  C1  UNL     1      28.497  26.796   0.601  1.00  0.00     0.167 A 
HETATM    2  N2  UNL     1      27.915  27.371   1.668  1.00  0.00    -0.281 N 
ATOM      3  H2  UNL     1      26.907  27.273   1.789  1.00  0.00     0.188 HD
HETATM    4  N3  UNL     1      28.601  28.060   2.572  1.00  0.00    -0.281 N 
ATOM      5  H3  UNL     1      28.100  28.472   3.359  1.00  0.00     0.188 HD
HETATM    6  C2  UNL     1      29.939  28.238   2.491  1.00  0.00     0.168 A 
HETATM    7  N4  UNL     1      30.858  28.871   3.242  1.00  0.00    -0.268 N 
ATOM      8  H4  UNL     1      30.684  29.387   4.105  1.00  0.00     0.190 HD
HETATM    9  N5  UNL     1      32.021  28.700   2.656  1.00  0.00    -0.240 N 
ATOM     10  H5  UNL     1      32.905  29.071   3.003  1.00  0.00     0.208 HD
HETATM   11  N6  UNL     1      31.886  27.977   1.550  1.00  0.00    -0.279 N 
ATOM     12  H6  UNL     1      32.637  27.705   0.917  1.00  0.00     0.189 HD
HETATM   13  C3  UNL     1      30.581  27.666   1.411  1.00  0.00     0.150 A 
HETATM   14  C4  UNL     1      29.858  26.944   0.467  1.00  0.00     0.248 A 
HETATM   15  O1  UNL     1      30.429  26.423  -0.512  1.00  0.00    -0.282 OA
ENDROOT
BRANCH   1  16
HETATM   16  N1  UNL     1      27.799  26.119  -0.279  1.00  0.00    -0.381 N 
ATOM     17  H12 UNL     1      27.371  26.581  -1.081  1.00  0.00     0.157 HD
ATOM     18  H11 UNL     1      27.662  25.112  -0.191  1.00  0.00     0.157 HD
ENDBRANCH   1  16
TORSDOF 1
ENDMDL
MODEL 2
REMARK VINA RESULT: -4.968597972      1.931      4.016
REMARK  1 active torsions:
REMARK  status: ('A' for Active; 'I' for Inactive)
REMARK    1  A    between atoms: N1_1  and  C1_4 
ROOT
HETATM    1  C1  UNL     1      31.003  28.916   1.340  1.00  0.00     0.167 A 
HETATM    2  N2  UNL     1      30.860  28.627   0.034  1.00  0.00    -0.281 N 
ATOM      3  H2  UNL     1      31.600  28.899  -0.613  1.00  0.00     0.188 HD
HETATM    4  N3  UNL     1      29.792  28.000  -0.446  1.00  0.00    -0.281 N 
ATOM      5  H3  UNL     1      29.745  27.810  -1.447  1.00  0.00     0.188 HD
HETATM    6  C2  UNL     1      28.766  27.603   0.338  1.00  0.00     0.168 A 
HETATM    7  N4  UNL     1      27.599  26.970   0.124  1.00  0.00    -0.268 N 
ATOM      8  H4  UNL     1      27.245  26.639  -0.774  1.00  0.00     0.190 HD
HETATM    9  N5  UNL     1      27.001  26.855   1.288  1.00  0.00    -0.240 N 
ATOM     10  H5  UNL     1      26.093  26.414   1.433  1.00  0.00     0.208 HD
HETATM   11  N6  UNL     1      27.742  27.394   2.249  1.00  0.00    -0.279 N 
ATOM     12  H6  UNL     1      27.502  27.434   3.240  1.00  0.00     0.189 HD
HETATM   13  C3  UNL     1      28.868  27.879   1.688  1.00  0.00     0.150 A 
HETATM   14  C4  UNL     1      29.988  28.535   2.187  1.00  0.00     0.248 A 
HETATM   15  O1  UNL     1      30.090  28.789   3.404  1.00  0.00    -0.282 OA
ENDROOT
BRANCH   1  16
HETATM   16  N1  UNL     1      32.067  29.536   1.791  1.00  0.00    -0.381 N 
ATOM     17  H12 UNL     1      32.824  29.808   1.165  1.00  0.00     0.157 HD
ATOM     18  H11 UNL     1      32.170  29.766   2.780  1.00  0.00     0.157 HD
ENDBRANCH   1  16
TORSDOF 1
ENDMDL
MODEL 3
REMARK VINA RESULT: -4.820331269      0.850      1.003
REMARK  1 active torsions:
REMARK  status: ('A' for Active; 'I' for Inactive)
REMARK    1  A    between atoms: N1_1  and  C1_4 
ROOT
HETATM    1  C1  UNL     1      28.020  27.001   1.088  1.00  0.00     0.167 A 
HETATM    2  N2  UNL     1      28.056  27.711   2.230  1.00  0.00    -0.281 N 
ATOM      3  H2  UNL     1      27.183  27.876   2.732  1.00  0.00     0.188 HD
HETATM    4  N3  UNL     1      29.181  28.207   2.729  1.00  0.00    -0.281 N 
ATOM      5  H3  UNL     1      29.140  28.737   3.599  1.00  0.00     0.188 HD
HETATM    6  C2  UNL     1      30.381  28.037   2.130  1.00  0.00     0.168 A 
HETATM    7  N4  UNL     1      31.641  28.417   2.406  1.00  0.00    -0.268 N 
ATOM      8  H4  UNL     1      31.945  28.965   3.212  1.00  0.00     0.190 HD
HETATM    9  N5  UNL     1      32.406  27.952   1.446  1.00  0.00    -0.240 N 
ATOM     10  H5  UNL     1      33.415  28.086   1.391  1.00  0.00     0.208 HD
HETATM   11  N6  UNL     1      31.683  27.282   0.556  1.00  0.00    -0.279 N 
ATOM     12  H6  UNL     1      32.039  26.824  -0.283  1.00  0.00     0.189 HD
HETATM   13  C3  UNL     1      30.395  27.313   0.954  1.00  0.00     0.150 A 
HETATM   14  C4  UNL     1      29.213  26.796   0.434  1.00  0.00     0.248 A 
HETATM   15  O1  UNL     1      29.215  26.141  -0.628  1.00  0.00    -0.282 OA
ENDROOT
BRANCH   1  16
HETATM   16  N1  UNL     1      26.896  26.521   0.614  1.00  0.00    -0.381 N 
ATOM     17  H12 UNL     1      26.858  25.601   0.175  1.00  0.00     0.157 HD
ATOM     18  H11 UNL     1      26.024  27.049   0.670  1.00  0.00     0.157 HD
ENDBRANCH   1  16
TORSDOF 1
ENDMDL
MODEL 4
REMARK VINA RESULT: -4.767423466      1.424      3.431
REMARK  1 active torsions:
REMARK  status: ('A' for Active; 'I' for Inactive)
REMARK    1  A    between atoms: N1_1  and  C1_4 
ROOT
HETATM    1  C1  UNL     1      30.590  28.566   2.721  1.00  0.00     0.167 A 
HETATM    2  N2  UNL     1      29.260  28.533   2.916  1.00  0.00    -0.281 N 
ATOM      3  H2  UNL     1      28.868  29.040   3.710  1.00  0.00     0.188 HD
HETATM    4  N3  UNL     1      28.436  27.867   2.116  1.00  0.00    -0.281 N 
ATOM      5  H3  UNL     1      27.437  27.882   2.320  1.00  0.00     0.188 HD
HETATM    6  C2  UNL     1      28.868  27.169   1.043  1.00  0.00     0.168 A 
HETATM    7  N4  UNL     1      28.273  26.427   0.092  1.00  0.00    -0.268 N 
ATOM      8  H4  UNL     1      27.274  26.240   0.007  1.00  0.00     0.190 HD
HETATM    9  N5  UNL     1      29.219  25.988  -0.706  1.00  0.00    -0.240 N 
ATOM     10  H5  UNL     1      29.062  25.396  -1.521  1.00  0.00     0.208 HD
HETATM   11  N6  UNL     1      30.408  26.422  -0.304  1.00  0.00    -0.279 N 
ATOM     12  H6  UNL     1      31.302  26.222  -0.753  1.00  0.00     0.189 HD
HETATM   13  C3  UNL     1      30.228  27.174   0.800  1.00  0.00     0.150 A 
HETATM   14  C4  UNL     1      31.087  27.873   1.641  1.00  0.00     0.248 A 
HETATM   15  O1  UNL     1      32.317  27.883   1.431  1.00  0.00    -0.282 OA
ENDROOT
BRANCH   1  16
HETATM   16  N1  UNL     1      31.385  29.231   3.524  1.00  0.00    -0.381 N 
ATOM     17  H12 UNL     1      31.585  30.219   3.368  1.00  0.00     0.157 HD
ATOM     18  H11 UNL     1      31.826  28.785   4.329  1.00  0.00     0.157 HD
ENDBRANCH   1  16
TORSDOF 1
ENDMDL
MODEL 5
REMARK VINA RESULT: -4.722212010      2.172      4.142
REMARK  1 active torsions:
REMARK  status: ('A' for Active; 'I' for Inactive)
REMARK    1  A    between atoms: N1_1  and  C1_4 
ROOT
HETATM    1  C1  UNL     1      31.362  29.017   2.893  1.00  0.00     0.167 A 
HETATM    2  N2  UNL     1      32.237  28.205   2.274  1.00  0.00    -0.281 N 
ATOM      3  H2  UNL     1      33.141  28.031   2.715  1.00  0.00     0.188 HD
HETATM    4  N3  UNL     1      31.972  27.620   1.112  1.00  0.00    -0.281 N 
ATOM      5  H3  UNL     1      32.679  27.016   0.695  1.00  0.00     0.188 HD
HETATM    6  C2  UNL     1      30.801  27.795   0.459  1.00  0.00     0.168 A 
HETATM    7  N4  UNL     1      30.283  27.340  -0.695  1.00  0.00    -0.268 N 
ATOM      8  H4  UNL     1      30.737  26.710  -1.356  1.00  0.00     0.190 HD
HETATM    9  N5  UNL     1      29.082  27.860  -0.812  1.00  0.00    -0.240 N 
ATOM     10  H5  UNL     1      28.449  27.690  -1.594  1.00  0.00     0.208 HD
HETATM   11  N6  UNL     1      28.805  28.636   0.230  1.00  0.00    -0.279 N 
ATOM     12  H6  UNL     1      27.939  29.154   0.378  1.00  0.00     0.189 HD
HETATM   13  C3  UNL     1      29.870  28.621   1.057  1.00  0.00     0.150 A 
HETATM   14  C4  UNL     1      30.152  29.232   2.274  1.00  0.00     0.248 A 
HETATM   15  O1  UNL     1      29.318  29.980   2.822  1.00  0.00    -0.282 OA
ENDROOT
BRANCH   1  16
HETATM   16  N1  UNL     1      31.647  29.583   4.041  1.00  0.00    -0.381 N 
ATOM     17  H12 UNL     1      30.940  29.683   4.770  1.00  0.00     0.157 HD
ATOM     18  H11 UNL     1      32.581  29.939   4.244  1.00  0.00     0.157 HD
ENDBRANCH   1  16
TORSDOF 1
ENDMDL
