MODEL 1
REMARK VINA RESULT: -5.979177081      0.000      0.000
REMARK  4 active torsions:
REMARK  status: ('A' for Active; 'I' for Inactive)
REMARK    1  A    between atoms: S1_2  and  C2_3 
REMARK    2  A    between atoms: C2_3  and  N1_4 
REMARK    3  A    between atoms: N1_4  and  C3_5 
REMARK    4  A    between atoms: N3_13  and  O1_15 
ROOT
HETATM    1  C3  UNL     1      10.604  -8.781  10.529  1.00  0.00     0.154 C 
HETATM    2  C4  UNL     1       9.659  -7.779   9.881  1.00  0.00     0.092 C 
HETATM    3  C5  UNL     1      10.498  -6.598   9.457  1.00  0.00     0.008 C 
HETATM    4  C6  UNL     1      11.339  -7.057   8.285  1.00  0.00     0.002 C 
HETATM    5  C7  UNL     1      12.786  -7.112   8.721  1.00  0.00     0.020 C 
HETATM    6  C8  UNL     1      12.927  -7.723  10.072  1.00  0.00     0.122 C 
HETATM    7  N2  UNL     1      12.047  -8.821  10.348  1.00  0.00    -0.368 N 
ATOM      8  H2  UNL     1      12.485  -9.739  10.427  1.00  0.00     0.161 HD
ENDROOT
BRANCH   1   9
HETATM    9  N1  UNL     1      10.109  -9.577  11.220  1.00  0.00    -0.366 NA
BRANCH   9  10
HETATM   10  C2  UNL     1       9.555 -10.472  11.992  1.00  0.00     0.238 C 
HETATM   11  N3  UNL     1      10.119 -11.594  12.406  1.00  0.00    -0.236 N 
ATOM     12  H3  UNL     1      11.071 -11.825  12.125  1.00  0.00     0.197 HD
BRANCH  10  13
HETATM   13  S1  UNL     1       7.852 -10.256  12.610  1.00  0.00    -0.082 SA
HETATM   14  C1  UNL     1       6.741 -11.028  11.409  1.00  0.00     0.100 C 
ENDBRANCH  10  13
BRANCH  11  15
HETATM   15  O1  UNL     1       9.421 -12.435  13.209  1.00  0.00    -0.287 OA
ATOM     16  H1  UNL     1       9.839 -13.222  13.538  1.00  0.00     0.244 HD
ENDBRANCH  11  15
ENDBRANCH   9  10
ENDBRANCH   1   9
TORSDOF 4
ENDMDL
MODEL 2
REMARK VINA RESULT: -5.976766684      3.328      3.611
REMARK  4 active torsions:
REMARK  status: ('A' for Active; 'I' for Inactive)
REMARK    1  A    between atoms: S1_2  and  C2_3 
REMARK    2  A    between atoms: C2_3  and  N1_4 
REMARK    3  A    between atoms: N1_4  and  C3_5 
REMARK    4  A    between atoms: N3_13  and  O1_15 
ROOT
HETATM    1  C3  UNL     1      11.934  -7.313  12.292  1.00  0.00     0.154 C 
HETATM    2  C4  UNL     1      10.971  -7.477  11.124  1.00  0.00     0.092 C 
HETATM    3  C5  UNL     1      11.655  -6.896   9.910  1.00  0.00     0.008 C 
HETATM    4  C6  UNL     1      12.777  -7.844   9.544  1.00  0.00     0.002 C 
HETATM    5  C7  UNL     1      14.097  -7.159   9.819  1.00  0.00     0.020 C 
HETATM    6  C8  UNL     1      14.077  -6.438  11.123  1.00  0.00     0.122 C 
HETATM    7  N2  UNL     1      13.368  -7.096  12.182  1.00  0.00    -0.368 N 
ATOM      8  H2  UNL     1      13.937  -7.454  12.949  1.00  0.00     0.161 HD
ENDROOT
BRANCH   1   9
HETATM    9  N1  UNL     1      11.461  -7.375  13.355  1.00  0.00    -0.366 NA
BRANCH   9  10
HETATM   10  C2  UNL     1      10.933  -7.439  14.546  1.00  0.00     0.238 C 
HETATM   11  N3  UNL     1      10.885  -6.453  15.427  1.00  0.00    -0.236 N 
ATOM     12  H3  UNL     1      11.284  -5.542  15.201  1.00  0.00     0.197 HD
BRANCH  10  13
HETATM   13  S1  UNL     1      10.165  -8.978  15.153  1.00  0.00    -0.082 SA
HETATM   14  C1  UNL     1       9.337  -9.757  13.747  1.00  0.00     0.100 C 
ENDBRANCH  10  13
BRANCH  11  15
HETATM   15  O1  UNL     1      10.302  -6.663  16.633  1.00  0.00    -0.287 OA
ATOM     16  H1  UNL     1       9.742  -5.992  17.005  1.00  0.00     0.244 HD
ENDBRANCH  11  15
ENDBRANCH   9  10
ENDBRANCH   1   9
TORSDOF 4
ENDMDL
MODEL 3
REMARK VINA RESULT: -5.909901034      4.262      4.907
REMARK  4 active torsions:
REMARK  status: ('A' for Active; 'I' for Inactive)
REMARK    1  A    between atoms: S1_2  and  C2_3 
REMARK    2  A    between atoms: C2_3  and  N1_4 
REMARK    3  A    between atoms: N1_4  and  C3_5 
REMARK    4  A    between atoms: N3_13  and  O1_15 
ROOT
HETATM    1  C3  UNL     1      10.519  -6.792   9.018  1.00  0.00     0.154 C 
HETATM    2  C4  UNL     1      10.427  -7.225  10.475  1.00  0.00     0.092 C 
HETATM    3  C5  UNL     1      11.643  -8.073  10.756  1.00  0.00     0.008 C 
HETATM    4  C6  UNL     1      12.835  -7.140  10.768  1.00  0.00     0.002 C 
HETATM    5  C7  UNL     1      13.696  -7.443   9.563  1.00  0.00     0.020 C 
HETATM    6  C8  UNL     1      12.872  -7.644   8.338  1.00  0.00     0.122 C 
HETATM    7  N2  UNL     1      11.732  -6.784   8.213  1.00  0.00    -0.368 N 
ATOM      8  H2  UNL     1      11.775  -6.084   7.473  1.00  0.00     0.161 HD
ENDROOT
BRANCH   1   9
HETATM    9  N1  UNL     1       9.524  -6.438   8.526  1.00  0.00    -0.366 NA
BRANCH   9  10
HETATM   10  C2  UNL     1       8.411  -6.038   7.976  1.00  0.00     0.238 C 
HETATM   11  N3  UNL     1       8.307  -5.327   6.865  1.00  0.00    -0.236 N 
ATOM     12  H3  UNL     1       9.144  -5.043   6.357  1.00  0.00     0.197 HD
BRANCH  10  13
HETATM   13  S1  UNL     1       6.795  -6.436   8.724  1.00  0.00    -0.082 SA
HETATM   14  C1  UNL     1       6.976  -8.015   9.586  1.00  0.00     0.100 C 
ENDBRANCH  10  13
BRANCH  11  15
HETATM   15  O1  UNL     1       7.079  -4.980   6.407  1.00  0.00    -0.287 OA
ATOM     16  H1  UNL     1       6.575  -4.323   6.872  1.00  0.00     0.244 HD
ENDBRANCH  11  15
ENDBRANCH   9  10
ENDBRANCH   1   9
TORSDOF 4
ENDMDL
MODEL 4
REMARK VINA RESULT: -5.849153655      1.177      1.639
REMARK  4 active torsions:
REMARK  status: ('A' for Active; 'I' for Inactive)
REMARK    1  A    between atoms: S1_2  and  C2_3 
REMARK    2  A    between atoms: C2_3  and  N1_4 
REMARK    3  A    between atoms: N1_4  and  C3_5 
REMARK    4  A    between atoms: N3_13  and  O1_15 
ROOT
HETATM    1  C3  UNL     1      10.883  -8.717  10.652  1.00  0.00     0.154 C 
HETATM    2  C4  UNL     1       9.864  -7.760  10.049  1.00  0.00     0.092 C 
HETATM    3  C5  UNL     1      10.642  -6.602   9.471  1.00  0.00     0.008 C 
HETATM    4  C6  UNL     1      11.362  -7.126   8.247  1.00  0.00     0.002 C 
HETATM    5  C7  UNL     1      12.847  -7.147   8.533  1.00  0.00     0.020 C 
HETATM    6  C8  UNL     1      13.134  -7.676   9.895  1.00  0.00     0.122 C 
HETATM    7  N2  UNL     1      12.300  -8.760  10.325  1.00  0.00    -0.368 N 
ATOM      8  H2  UNL     1      12.754  -9.669  10.412  1.00  0.00     0.161 HD
ENDROOT
BRANCH   1   9
HETATM    9  N1  UNL     1      10.470  -9.473  11.437  1.00  0.00    -0.366 NA
BRANCH   9  10
HETATM   10  C2  UNL     1      10.007 -10.322  12.313  1.00  0.00     0.238 C 
HETATM   11  N3  UNL     1       9.827 -11.618  12.116  1.00  0.00    -0.236 N 
ATOM     12  H3  UNL     1      10.057 -12.037  11.215  1.00  0.00     0.197 HD
BRANCH  10  13
HETATM   13  S1  UNL     1       9.532  -9.780  13.989  1.00  0.00    -0.082 SA
HETATM   14  C1  UNL     1      10.277  -8.154  14.260  1.00  0.00     0.100 C 
ENDBRANCH  10  13
BRANCH  11  15
HETATM   15  O1  UNL     1       9.335 -12.383  13.121  1.00  0.00    -0.287 OA
ATOM     16  H1  UNL     1       9.846 -13.115  13.444  1.00  0.00     0.244 HD
ENDBRANCH  11  15
ENDBRANCH   9  10
ENDBRANCH   1   9
TORSDOF 4
ENDMDL
MODEL 5
REMARK VINA RESULT: -5.838836322      5.481      6.999
REMARK  4 active torsions:
REMARK  status: ('A' for Active; 'I' for Inactive)
REMARK    1  A    between atoms: S1_2  and  C2_3 
REMARK    2  A    between atoms: C2_3  and  N1_4 
REMARK    3  A    between atoms: N1_4  and  C3_5 
REMARK    4  A    between atoms: N3_13  and  O1_15 
ROOT
HETATM    1  C3  UNL     1      11.479  -6.129   8.324  1.00  0.00     0.154 C 
HETATM    2  C4  UNL     1      10.247  -6.742   8.976  1.00  0.00     0.092 C 
HETATM    3  C5  UNL     1      10.715  -7.960   9.736  1.00  0.00     0.008 C 
HETATM    4  C6  UNL     1      11.500  -7.457  10.928  1.00  0.00     0.002 C 
HETATM    5  C7  UNL     1      12.957  -7.812  10.732  1.00  0.00     0.020 C 
HETATM    6  C8  UNL     1      13.401  -7.546   9.335  1.00  0.00     0.122 C 
HETATM    7  N2  UNL     1      12.856  -6.367   8.728  1.00  0.00    -0.368 N 
ATOM      8  H2  UNL     1      13.512  -5.605   8.559  1.00  0.00     0.161 HD
ENDROOT
BRANCH   1   9
HETATM    9  N1  UNL     1      11.279  -5.410   7.430  1.00  0.00    -0.366 NA
BRANCH   9  10
HETATM   10  C2  UNL     1      11.058  -4.602   6.429  1.00  0.00     0.238 C 
HETATM   11  N3  UNL     1       9.877  -4.325   5.902  1.00  0.00    -0.236 N 
ATOM     12  H3  UNL     1       9.033  -4.758   6.277  1.00  0.00     0.197 HD
BRANCH  10  13
HETATM   13  S1  UNL     1      12.431  -3.724   5.609  1.00  0.00    -0.082 SA
HETATM   14  C1  UNL     1      12.557  -2.089   6.372  1.00  0.00     0.100 C 
ENDBRANCH  10  13
BRANCH  11  15
HETATM   15  O1  UNL     1       9.797  -3.462   4.859  1.00  0.00    -0.287 OA
ATOM     16  H1  UNL     1      10.288  -2.649   4.887  1.00  0.00     0.244 HD
ENDBRANCH  11  15
ENDBRANCH   9  10
ENDBRANCH   1   9
TORSDOF 4
ENDMDL
