MODEL 1
REMARK VINA RESULT: -4.270601654      0.000      0.000
REMARK  2 active torsions:
REMARK  status: ('A' for Active; 'I' for Inactive)
REMARK    1  A    between atoms: N2_5  and  N3_6 
REMARK    2  A    between atoms: C3_11  and  C4_12 
ROOT
HETATM    1  C1  UNL     1       9.580   9.204  23.421  1.00  0.00     0.162 C 
HETATM    2  N1  UNL     1      10.244   9.212  24.718  1.00  0.00    -0.287 N 
HETATM    3  C2  UNL     1       9.894  10.124  25.739  1.00  0.00     0.363 A 
HETATM    4  O1  UNL     1       8.978  10.977  25.558  1.00  0.00    -0.243 OA
HETATM    5  N2  UNL     1      10.562  10.105  26.990  1.00  0.00    -0.148 N 
HETATM    6  N4  UNL     1      11.562   9.155  27.153  1.00  0.00    -0.269 N 
ATOM      7  H4  UNL     1      12.054   9.125  28.045  1.00  0.00     0.189 HD
HETATM    8  C3  UNL     1      11.945   8.209  26.134  1.00  0.00     0.132 A 
HETATM    9  C5  UNL     1      11.292   8.272  24.992  1.00  0.00     0.153 A 
HETATM   10  N7  UNL     1      11.621   7.373  23.955  1.00  0.00    -0.080 NA
ENDROOT
BRANCH   8  11
HETATM   11  C4  UNL     1      12.996   7.266  26.407  1.00  0.00     0.141 C 
HETATM   12  N5  UNL     1      14.192   7.262  26.051  1.00  0.00    -0.386 N 
ATOM     13  H52 UNL     1      14.452   8.063  25.475  1.00  0.00     0.157 HD
ATOM     14  H51 UNL     1      14.937   6.593  26.245  1.00  0.00     0.157 HD
HETATM   15  N6  UNL     1      12.623   6.117  27.233  1.00  0.00    -0.081 NA
ENDBRANCH   8  11
BRANCH   5  16
HETATM   16  N3  UNL     1      10.197  11.017  27.982  1.00  0.00    -0.320 N 
ATOM     17  H32 UNL     1       9.565  11.801  27.821  1.00  0.00     0.179 HD
ATOM     18  H31 UNL     1      10.571  10.914  28.926  1.00  0.00     0.179 HD
ENDBRANCH   5  16
TORSDOF 2
ENDMDL
MODEL 2
REMARK VINA RESULT: -4.214263421      3.406      4.915
REMARK  2 active torsions:
REMARK  status: ('A' for Active; 'I' for Inactive)
REMARK    1  A    between atoms: N2_5  and  N3_6 
REMARK    2  A    between atoms: C3_11  and  C4_12 
ROOT
HETATM    1  C1  UNL     1      16.734   6.880  24.650  1.00  0.00     0.162 C 
HETATM    2  N1  UNL     1      15.573   7.123  25.497  1.00  0.00    -0.287 N 
HETATM    3  C2  UNL     1      15.687   7.334  26.890  1.00  0.00     0.363 A 
HETATM    4  O1  UNL     1      16.818   7.319  27.456  1.00  0.00    -0.243 OA
HETATM    5  N2  UNL     1      14.536   7.568  27.685  1.00  0.00    -0.148 N 
HETATM    6  N4  UNL     1      13.312   7.578  27.028  1.00  0.00    -0.269 N 
ATOM      7  H4  UNL     1      12.472   7.745  27.582  1.00  0.00     0.189 HD
HETATM    8  C3  UNL     1      13.158   7.367  25.611  1.00  0.00     0.132 A 
HETATM    9  C5  UNL     1      14.261   7.155  24.921  1.00  0.00     0.153 A 
HETATM   10  N7  UNL     1      14.177   6.941  23.529  1.00  0.00    -0.080 NA
ENDROOT
BRANCH   8  11
HETATM   11  C4  UNL     1      11.842   7.398  25.031  1.00  0.00     0.141 C 
HETATM   12  N5  UNL     1      11.282   8.275  24.342  1.00  0.00    -0.386 N 
ATOM     13  H52 UNL     1      11.863   9.096  24.172  1.00  0.00     0.157 HD
ATOM     14  H51 UNL     1      10.349   8.297  23.931  1.00  0.00     0.157 HD
HETATM   15  N6  UNL     1      11.010   6.220  25.276  1.00  0.00    -0.081 NA
ENDBRANCH   8  11
BRANCH   5  16
HETATM   16  N3  UNL     1      14.675   7.774  29.059  1.00  0.00    -0.320 N 
ATOM     17  H32 UNL     1      14.226   7.190  29.764  1.00  0.00     0.179 HD
ATOM     18  H31 UNL     1      15.252   8.544  29.398  1.00  0.00     0.179 HD
ENDBRANCH   5  16
TORSDOF 2
ENDMDL
MODEL 3
REMARK VINA RESULT: -4.196018446      2.419      4.796
REMARK  2 active torsions:
REMARK  status: ('A' for Active; 'I' for Inactive)
REMARK    1  A    between atoms: N2_5  and  N3_6 
REMARK    2  A    between atoms: C3_11  and  C4_12 
ROOT
HETATM    1  C1  UNL     1      12.246   7.126  28.249  1.00  0.00     0.162 C 
HETATM    2  N1  UNL     1      12.257   7.437  26.826  1.00  0.00    -0.287 N 
HETATM    3  C2  UNL     1      13.355   7.121  25.993  1.00  0.00     0.363 A 
HETATM    4  O1  UNL     1      14.380   6.551  26.465  1.00  0.00    -0.243 OA
HETATM    5  N2  UNL     1      13.332   7.438  24.611  1.00  0.00    -0.148 N 
HETATM    6  N4  UNL     1      12.189   8.064  24.130  1.00  0.00    -0.269 N 
ATOM      7  H4  UNL     1      12.153   8.300  23.138  1.00  0.00     0.189 HD
HETATM    8  C3  UNL     1      11.051   8.399  24.949  1.00  0.00     0.132 A 
HETATM    9  C5  UNL     1      11.126   8.082  26.225  1.00  0.00     0.153 A 
HETATM   10  N7  UNL     1      10.044   8.385  27.079  1.00  0.00    -0.080 NA
ENDROOT
BRANCH   8  11
HETATM   11  C4  UNL     1       9.916   9.048  24.348  1.00  0.00     0.141 C 
HETATM   12  N5  UNL     1       9.298  10.076  24.690  1.00  0.00    -0.386 N 
ATOM     13  H52 UNL     1       9.667  10.516  25.533  1.00  0.00     0.157 HD
ATOM     14  H51 UNL     1       8.493  10.536  24.264  1.00  0.00     0.157 HD
HETATM   15  N6  UNL     1       9.387   8.416  23.140  1.00  0.00    -0.081 NA
ENDBRANCH   8  11
BRANCH   5  16
HETATM   16  N3  UNL     1      14.430   7.116  23.811  1.00  0.00    -0.320 N 
ATOM     17  H32 UNL     1      14.477   7.319  22.813  1.00  0.00     0.179 HD
ATOM     18  H31 UNL     1      15.239   6.653  24.226  1.00  0.00     0.179 HD
ENDBRANCH   5  16
TORSDOF 2
ENDMDL
MODEL 4
REMARK VINA RESULT: -4.182017457      3.179      5.462
REMARK  2 active torsions:
REMARK  status: ('A' for Active; 'I' for Inactive)
REMARK    1  A    between atoms: N2_5  and  N3_6 
REMARK    2  A    between atoms: C3_11  and  C4_12 
ROOT
HETATM    1  C1  UNL     1      14.731   6.946  28.545  1.00  0.00     0.162 C 
HETATM    2  N1  UNL     1      14.538   7.097  27.109  1.00  0.00    -0.287 N 
HETATM    3  C2  UNL     1      15.606   6.997  26.189  1.00  0.00     0.363 A 
HETATM    4  O1  UNL     1      16.784   6.770  26.589  1.00  0.00    -0.243 OA
HETATM    5  N2  UNL     1      15.382   7.150  24.797  1.00  0.00    -0.148 N 
HETATM    6  N4  UNL     1      14.075   7.398  24.396  1.00  0.00    -0.269 N 
ATOM      7  H4  UNL     1      13.893   7.510  23.399  1.00  0.00     0.189 HD
HETATM    8  C3  UNL     1      12.962   7.505  25.305  1.00  0.00     0.132 A 
HETATM    9  C5  UNL     1      13.227   7.355  26.587  1.00  0.00     0.153 A 
HETATM   10  N7  UNL     1      12.180   7.450  27.528  1.00  0.00    -0.080 NA
ENDROOT
BRANCH   8  11
HETATM   11  C4  UNL     1      11.646   7.765  24.783  1.00  0.00     0.141 C 
HETATM   12  N5  UNL     1      10.987   8.823  24.744  1.00  0.00    -0.386 N 
ATOM     13  H52 UNL     1      11.470   9.624  25.151  1.00  0.00     0.157 HD
ATOM     14  H51 UNL     1      10.054   9.007  24.374  1.00  0.00     0.157 HD
HETATM   15  N6  UNL     1      10.954   6.616  24.200  1.00  0.00    -0.081 NA
ENDBRANCH   8  11
BRANCH   5  16
HETATM   16  N3  UNL     1      16.454   7.047  23.909  1.00  0.00    -0.320 N 
ATOM     17  H32 UNL     1      17.293   6.500  24.101  1.00  0.00     0.179 HD
ATOM     18  H31 UNL     1      16.418   7.537  23.015  1.00  0.00     0.179 HD
ENDBRANCH   5  16
TORSDOF 2
ENDMDL
MODEL 5
REMARK VINA RESULT: -4.142018598      1.583      2.890
REMARK  2 active torsions:
REMARK  status: ('A' for Active; 'I' for Inactive)
REMARK    1  A    between atoms: N2_5  and  N3_6 
REMARK    2  A    between atoms: C3_11  and  C4_12 
ROOT
HETATM    1  C1  UNL     1      10.946  10.765  28.604  1.00  0.00     0.162 C 
HETATM    2  N1  UNL     1      10.564  10.277  27.286  1.00  0.00    -0.287 N 
HETATM    3  C2  UNL     1       9.507  10.852  26.545  1.00  0.00     0.363 A 
HETATM    4  O1  UNL     1       8.847  11.825  27.011  1.00  0.00    -0.243 OA
HETATM    5  N2  UNL     1       9.161  10.352  25.264  1.00  0.00    -0.148 N 
HETATM    6  N4  UNL     1       9.909   9.283  24.786  1.00  0.00    -0.269 N 
ATOM      7  H4  UNL     1       9.676   8.909  23.866  1.00  0.00     0.189 HD
HETATM    8  C3  UNL     1      10.993   8.672  25.513  1.00  0.00     0.132 A 
HETATM    9  C5  UNL     1      11.271   9.177  26.697  1.00  0.00     0.153 A 
HETATM   10  N7  UNL     1      12.322   8.621  27.458  1.00  0.00    -0.080 NA
ENDROOT
BRANCH   8  11
HETATM   11  C4  UNL     1      11.703   7.567  24.924  1.00  0.00     0.141 C 
HETATM   12  N5  UNL     1      12.815   7.530  24.360  1.00  0.00    -0.386 N 
ATOM     13  H52 UNL     1      13.285   8.435  24.316  1.00  0.00     0.157 HD
ATOM     14  H51 UNL     1      13.319   6.747  23.943  1.00  0.00     0.157 HD
HETATM   15  N6  UNL     1      11.030   6.270  24.987  1.00  0.00    -0.081 NA
ENDBRANCH   8  11
BRANCH   5  16
HETATM   16  N3  UNL     1       8.112  10.938  24.553  1.00  0.00    -0.320 N 
ATOM     17  H32 UNL     1       8.249  11.525  23.731  1.00  0.00     0.179 HD
ATOM     18  H31 UNL     1       7.150  10.785  24.856  1.00  0.00     0.179 HD
ENDBRANCH   5  16
TORSDOF 2
ENDMDL
