MODEL 1
REMARK VINA RESULT: -5.894698802      0.000      0.000
REMARK  2 active torsions:
REMARK  status: ('A' for Active; 'I' for Inactive)
REMARK    1  A    between atoms: C1_4  and  C2_6 
REMARK    2  A    between atoms: C2_6  and  N3_7 
ROOT
HETATM    1  C2  UNL     1      17.893  -3.702   9.064  1.00  0.00     0.174 C 
HETATM    2  C4  UNL     1      17.385  -4.291   7.784  1.00  0.00     0.176 C 
HETATM    3  S1  UNL     1      16.407  -5.645   8.465  1.00  0.00     0.059 S 
HETATM    4  O1  UNL     1      14.987  -4.945   9.031  1.00  0.00    -0.252 OA
HETATM    5  C5  UNL     1      17.495  -5.896   9.847  1.00  0.00     0.165 C 
HETATM    6  N6  UNL     1      18.123  -4.660  10.034  1.00  0.00    -0.359 N 
ATOM      7  H6  UNL     1      18.717  -4.476  10.841  1.00  0.00     0.162 HD
ENDROOT
BRANCH   1   8
HETATM    8  C1  UNL     1      16.872  -2.678   9.493  1.00  0.00     0.137 C 
HETATM    9  N1  UNL     1      16.348  -2.827  10.670  1.00  0.00    -0.387 N 
ATOM     10  H12 UNL     1      15.658  -2.134  10.960  1.00  0.00     0.157 HD
ATOM     11  H11 UNL     1      16.615  -3.602  11.277  1.00  0.00     0.157 HD
HETATM   12  N2  UNL     1      16.499  -1.595   8.647  1.00  0.00    -0.083 NA
ENDBRANCH   1   8
BRANCH   1  13
HETATM   13  N3  UNL     1      19.099  -2.950   8.781  1.00  0.00    -0.334 N 
HETATM   14  C3  UNL     1      20.281  -3.459   8.814  1.00  0.00     0.199 C 
HETATM   15  N4  UNL     1      20.569  -4.800   9.125  1.00  0.00    -0.067 NA
HETATM   16  N5  UNL     1      21.391  -2.596   8.511  1.00  0.00    -0.067 NA
ATOM     17  H3  UNL     1      19.006  -1.962   8.542  1.00  0.00     0.164 HD
ENDBRANCH   1  13
TORSDOF 2
ENDMDL
MODEL 2
REMARK VINA RESULT: -5.507273358      1.855      2.864
REMARK  2 active torsions:
REMARK  status: ('A' for Active; 'I' for Inactive)
REMARK    1  A    between atoms: C1_4  and  C2_6 
REMARK    2  A    between atoms: C2_6  and  N3_7 
ROOT
HETATM    1  C2  UNL     1      17.632  -4.570   8.800  1.00  0.00     0.174 C 
HETATM    2  C4  UNL     1      17.214  -4.730  10.229  1.00  0.00     0.176 C 
HETATM    3  S1  UNL     1      15.872  -3.525  10.265  1.00  0.00     0.059 S 
HETATM    4  O1  UNL     1      14.567  -4.270   9.509  1.00  0.00    -0.252 OA
HETATM    5  C5  UNL     1      16.651  -2.441   9.093  1.00  0.00     0.165 C 
HETATM    6  N6  UNL     1      17.495  -3.271   8.349  1.00  0.00    -0.359 N 
ATOM      7  H6  UNL     1      17.983  -2.936   7.519  1.00  0.00     0.162 HD
ENDROOT
BRANCH   1   8
HETATM    8  C1  UNL     1      16.805  -5.549   8.004  1.00  0.00     0.137 C 
HETATM    9  N1  UNL     1      16.778  -5.387   6.718  1.00  0.00    -0.387 N 
ATOM     10  H12 UNL     1      16.218  -6.049   6.180  1.00  0.00     0.157 HD
ATOM     11  H11 UNL     1      17.293  -4.631   6.266  1.00  0.00     0.157 HD
HETATM   12  N2  UNL     1      16.086  -6.604   8.634  1.00  0.00    -0.083 NA
ENDBRANCH   1   8
BRANCH   1  13
HETATM   13  N3  UNL     1      19.002  -5.025   8.665  1.00  0.00    -0.334 N 
HETATM   14  C3  UNL     1      20.025  -4.250   8.777  1.00  0.00     0.199 C 
HETATM   15  N4  UNL     1      19.961  -2.871   9.042  1.00  0.00    -0.067 NA
HETATM   16  N5  UNL     1      21.329  -4.836   8.620  1.00  0.00    -0.067 NA
ATOM     17  H3  UNL     1      19.165  -6.014   8.471  1.00  0.00     0.164 HD
ENDBRANCH   1  13
TORSDOF 2
ENDMDL
MODEL 3
REMARK VINA RESULT: -5.415001828      1.111      1.112
REMARK  2 active torsions:
REMARK  status: ('A' for Active; 'I' for Inactive)
REMARK    1  A    between atoms: C1_4  and  C2_6 
REMARK    2  A    between atoms: C2_6  and  N3_7 
ROOT
HETATM    1  C2  UNL     1      18.332  -4.135   8.524  1.00  0.00     0.174 C 
HETATM    2  C4  UNL     1      17.323  -4.817   7.651  1.00  0.00     0.176 C 
HETATM    3  S1  UNL     1      16.237  -5.469   8.935  1.00  0.00     0.059 S 
HETATM    4  O1  UNL     1      15.313  -4.165   9.458  1.00  0.00    -0.252 OA
HETATM    5  C5  UNL     1      17.557  -5.720  10.096  1.00  0.00     0.165 C 
HETATM    6  N6  UNL     1      18.544  -4.807   9.713  1.00  0.00    -0.359 N 
ATOM      7  H6  UNL     1      19.376  -4.644  10.281  1.00  0.00     0.162 HD
ENDROOT
BRANCH   1   8
HETATM    8  C1  UNL     1      17.828  -2.729   8.734  1.00  0.00     0.137 C 
HETATM    9  N1  UNL     1      17.449  -2.414   9.934  1.00  0.00    -0.387 N 
ATOM     10  H12 UNL     1      17.108  -1.464  10.076  1.00  0.00     0.157 HD
ATOM     11  H11 UNL     1      17.490  -3.088  10.699  1.00  0.00     0.157 HD
HETATM   12  N2  UNL     1      17.770  -1.789   7.667  1.00  0.00    -0.083 NA
ENDBRANCH   1   8
BRANCH   1  13
HETATM   13  N3  UNL     1      19.568  -3.994   7.779  1.00  0.00    -0.334 N 
HETATM   14  C3  UNL     1      20.683  -3.630   8.311  1.00  0.00     0.199 C 
HETATM   15  N4  UNL     1      20.860  -3.323   9.672  1.00  0.00    -0.067 NA
HETATM   16  N5  UNL     1      21.834  -3.531   7.454  1.00  0.00    -0.067 NA
ATOM     17  H3  UNL     1      19.553  -4.193   6.779  1.00  0.00     0.164 HD
ENDBRANCH   1  13
TORSDOF 2
ENDMDL
MODEL 4
REMARK VINA RESULT: -5.171731697      1.885      2.762
REMARK  2 active torsions:
REMARK  status: ('A' for Active; 'I' for Inactive)
REMARK    1  A    between atoms: C1_4  and  C2_6 
REMARK    2  A    between atoms: C2_6  and  N3_7 
ROOT
HETATM    1  C2  UNL     1      17.321  -4.608   9.171  1.00  0.00     0.174 C 
HETATM    2  C4  UNL     1      16.775  -4.764  10.558  1.00  0.00     0.176 C 
HETATM    3  S1  UNL     1      15.450  -3.543  10.475  1.00  0.00     0.059 S 
HETATM    4  O1  UNL     1      14.209  -4.272   9.606  1.00  0.00    -0.252 OA
HETATM    5  C5  UNL     1      16.343  -2.468   9.380  1.00  0.00     0.165 C 
HETATM    6  N6  UNL     1      17.240  -3.307   8.712  1.00  0.00    -0.359 N 
ATOM      7  H6  UNL     1      17.804  -2.977   7.929  1.00  0.00     0.162 HD
ENDROOT
BRANCH   1   8
HETATM    8  C1  UNL     1      16.557  -5.577   8.304  1.00  0.00     0.137 C 
HETATM    9  N1  UNL     1      15.816  -6.452   8.911  1.00  0.00    -0.387 N 
ATOM     10  H12 UNL     1      15.300  -7.106   8.324  1.00  0.00     0.157 HD
ATOM     11  H11 UNL     1      15.755  -6.482   9.929  1.00  0.00     0.157 HD
HETATM   12  N2  UNL     1      16.642  -5.534   6.883  1.00  0.00    -0.083 NA
ENDBRANCH   1   8
BRANCH   1  13
HETATM   13  N3  UNL     1      18.692  -5.079   9.159  1.00  0.00    -0.334 N 
HETATM   14  C3  UNL     1      19.707  -4.314   8.950  1.00  0.00     0.199 C 
HETATM   15  N4  UNL     1      19.632  -2.931   8.707  1.00  0.00    -0.067 NA
HETATM   16  N5  UNL     1      21.014  -4.915   8.965  1.00  0.00    -0.067 NA
ATOM     17  H3  UNL     1      18.863  -6.071   9.325  1.00  0.00     0.164 HD
ENDBRANCH   1  13
TORSDOF 2
ENDMDL
MODEL 5
REMARK VINA RESULT: -5.082785405      2.131      3.969
REMARK  2 active torsions:
REMARK  status: ('A' for Active; 'I' for Inactive)
REMARK    1  A    between atoms: C1_4  and  C2_6 
REMARK    2  A    between atoms: C2_6  and  N3_7 
ROOT
HETATM    1  C2  UNL     1      16.189  -3.593  10.113  1.00  0.00     0.174 C 
HETATM    2  C4  UNL     1      17.139  -4.750  10.131  1.00  0.00     0.176 C 
HETATM    3  S1  UNL     1      16.532  -5.634   8.680  1.00  0.00     0.059 S 
HETATM    4  O1  UNL     1      17.135  -4.802   7.350  1.00  0.00    -0.252 OA
HETATM    5  C5  UNL     1      14.845  -5.137   8.933  1.00  0.00     0.165 C 
HETATM    6  N6  UNL     1      14.932  -3.945   9.659  1.00  0.00    -0.359 N 
ATOM      7  H6  UNL     1      14.112  -3.367   9.844  1.00  0.00     0.162 HD
ENDROOT
BRANCH   1   8
HETATM    8  C1  UNL     1      16.834  -2.528   9.260  1.00  0.00     0.137 C 
HETATM    9  N1  UNL     1      18.091  -2.680   8.982  1.00  0.00    -0.387 N 
ATOM     10  H12 UNL     1      18.527  -1.961   8.406  1.00  0.00     0.157 HD
ATOM     11  H11 UNL     1      18.618  -3.484   9.323  1.00  0.00     0.157 HD
HETATM   12  N2  UNL     1      16.099  -1.407   8.783  1.00  0.00    -0.083 NA
ENDBRANCH   1   8
BRANCH   1  13
HETATM   13  N3  UNL     1      16.120  -3.029  11.447  1.00  0.00    -0.334 N 
HETATM   14  C3  UNL     1      15.360  -3.492  12.378  1.00  0.00     0.199 C 
HETATM   15  N4  UNL     1      14.499  -4.595  12.236  1.00  0.00    -0.067 NA
HETATM   16  N5  UNL     1      15.392  -2.835  13.657  1.00  0.00    -0.067 NA
ATOM     17  H3  UNL     1      16.707  -2.222  11.660  1.00  0.00     0.164 HD
ENDBRANCH   1  13
TORSDOF 2
ENDMDL
