MODEL 1
REMARK VINA RESULT: -8.411544558      0.000      0.000
REMARK  10 active torsions:
REMARK  status: ('A' for Active; 'I' for Inactive)
REMARK    1  A    between atoms: C2_2  and  O1_3 
REMARK    2  A    between atoms: C2_2  and  C3_5 
REMARK    3  A    between atoms: C4_7  and  C5_8 
REMARK    4  A    between atoms: C5_8  and  O3_9 
REMARK    5  A    between atoms: N1_11  and  N2_13 
REMARK    6  A    between atoms: N2_13  and  C6_15 
REMARK    7  A    between atoms: C6_15  and  O4_16 
REMARK    8  A    between atoms: C6_15  and  C7_18 
REMARK    9  A    between atoms: C8_23  and  N5_24 
REMARK   10  A    between atoms: N5_24  and  N6_26 
ROOT
HETATM    1  C3  UNL     1     -15.164  -8.517  -0.921  1.00  0.00     0.121 A 
HETATM    2  O2  UNL     1     -15.390  -7.271  -1.280  1.00  0.00    -0.288 OA
HETATM    3  C4  UNL     1     -14.287  -6.593  -1.190  1.00  0.00     0.202 A 
HETATM    4  N8  UNL     1     -13.315  -7.384  -0.769  1.00  0.00    -0.322 N 
ATOM      5  H8  UNL     1     -12.344  -7.116  -0.609  1.00  0.00     0.169 HD
HETATM    6  C10 UNL     1     -13.849  -8.620  -0.589  1.00  0.00     0.148 A 
HETATM    7  C11 UNL     1     -13.206  -9.819  -0.143  1.00  0.00     0.120 C 
HETATM    8  N9  UNL     1     -12.677 -10.792   0.213  1.00  0.00    -0.190 NA
ENDROOT
BRANCH   1   9
HETATM    9  C2  UNL     1     -16.181  -9.580  -0.897  1.00  0.00     0.174 C 
HETATM   10  C1  UNL     1     -17.572  -9.099  -1.149  1.00  0.00     0.046 C 
BRANCH   9  11
HETATM   11  O1  UNL     1     -15.865 -10.605  -1.791  1.00  0.00    -0.389 OA
ATOM     12  H1  UNL     1     -14.923 -10.664  -1.893  1.00  0.00     0.210 HD
ENDBRANCH   9  11
ENDBRANCH   1   9
BRANCH   3  13
HETATM   13  C5  UNL     1     -14.189  -5.148  -1.521  1.00  0.00     0.207 C 
HETATM   14  N1  UNL     1     -13.726  -4.829  -2.660  1.00  0.00    -0.278 N 
ATOM     15  H1  UNL     1     -13.454  -5.601  -3.269  1.00  0.00     0.189 HD
BRANCH  13  16
HETATM   16  O3  UNL     1     -14.589  -4.187  -0.614  1.00  0.00    -0.342 OA
ATOM     17  H3  UNL     1     -15.312  -3.604  -0.812  1.00  0.00     0.219 HD
ENDBRANCH  13  16
BRANCH  14  18
HETATM   18  N2  UNL     1     -13.551  -3.569  -3.164  1.00  0.00    -0.300 N 
ATOM     19  H2  UNL     1     -12.669  -3.091  -2.983  1.00  0.00     0.183 HD
BRANCH  18  20
HETATM   20  C6  UNL     1     -14.545  -2.897  -3.927  1.00  0.00     0.290 C 
BRANCH  20  21
HETATM   21  O4  UNL     1     -14.725  -3.590  -5.135  1.00  0.00    -0.370 OA
ATOM     22  H4  UNL     1     -13.894  -3.616  -5.596  1.00  0.00     0.212 HD
ENDBRANCH  20  21
BRANCH  20  23
HETATM   23  C7  UNL     1     -14.112  -1.520  -4.325  1.00  0.00     0.144 A 
HETATM   24  N3  UNL     1     -12.899  -1.061  -3.986  1.00  0.00    -0.281 N 
HETATM   25  N4  UNL     1     -12.469   0.144  -4.318  1.00  0.00    -0.130 N 
ATOM     26  H3  UNL     1     -12.281  -1.669  -3.448  1.00  0.00     0.187 HD
HETATM   27  C8  UNL     1     -13.257   0.983  -5.033  1.00  0.00     0.713 A 
ATOM     28  H4  UNL     1     -11.537   0.444  -4.033  1.00  0.00     0.205 HD
HETATM   29  N7  UNL     1     -14.479   0.580  -5.401  1.00  0.00    -0.152 N 
HETATM   30  C9  UNL     1     -14.907  -0.662  -5.053  1.00  0.00     0.288 A 
ATOM     31  H7  UNL     1     -15.083   1.200  -5.940  1.00  0.00     0.188 HD
HETATM   32  O5  UNL     1     -16.050  -1.049  -5.391  1.00  0.00    -0.265 OA
BRANCH  27  33
HETATM   33  N5  UNL     1     -12.840   2.171  -5.366  1.00  0.00    -0.137 N 
ATOM     34  H5  UNL     1     -11.912   2.490  -5.091  1.00  0.00     0.205 HD
BRANCH  33  35
HETATM   35  N6  UNL     1     -13.679   2.996  -6.102  1.00  0.00    -0.331 N 
ATOM     36  H62 UNL     1     -14.274   3.669  -5.618  1.00  0.00     0.177 HD
ATOM     37  H61 UNL     1     -13.685   2.914  -7.119  1.00  0.00     0.177 HD
ENDBRANCH  33  35
ENDBRANCH  27  33
ENDBRANCH  20  23
ENDBRANCH  18  20
ENDBRANCH  14  18
ENDBRANCH   3  13
TORSDOF 10
ENDMDL
MODEL 2
REMARK VINA RESULT: -8.088106324      1.704      1.996
REMARK  10 active torsions:
REMARK  status: ('A' for Active; 'I' for Inactive)
REMARK    1  A    between atoms: C2_2  and  O1_3 
REMARK    2  A    between atoms: C2_2  and  C3_5 
REMARK    3  A    between atoms: C4_7  and  C5_8 
REMARK    4  A    between atoms: C5_8  and  O3_9 
REMARK    5  A    between atoms: N1_11  and  N2_13 
REMARK    6  A    between atoms: N2_13  and  C6_15 
REMARK    7  A    between atoms: C6_15  and  O4_16 
REMARK    8  A    between atoms: C6_15  and  C7_18 
REMARK    9  A    between atoms: C8_23  and  N5_24 
REMARK   10  A    between atoms: N5_24  and  N6_26 
ROOT
HETATM    1  C3  UNL     1     -13.891  -8.734  -1.156  1.00  0.00     0.121 A 
HETATM    2  O2  UNL     1     -13.352  -7.920  -2.038  1.00  0.00    -0.288 OA
HETATM    3  C4  UNL     1     -13.865  -6.736  -1.896  1.00  0.00     0.202 A 
HETATM    4  N8  UNL     1     -14.752  -6.753  -0.916  1.00  0.00    -0.322 N 
ATOM      5  H8  UNL     1     -15.306  -5.962  -0.589  1.00  0.00     0.169 HD
HETATM    6  C10 UNL     1     -14.789  -8.019  -0.425  1.00  0.00     0.148 A 
HETATM    7  C11 UNL     1     -15.588  -8.546   0.638  1.00  0.00     0.120 C 
HETATM    8  N9  UNL     1     -16.236  -8.968   1.509  1.00  0.00    -0.190 NA
ENDROOT
BRANCH   1   9
HETATM    9  C2  UNL     1     -13.556 -10.160  -1.016  1.00  0.00     0.174 C 
HETATM   10  C1  UNL     1     -13.516 -10.906  -2.310  1.00  0.00     0.046 C 
BRANCH   9  11
HETATM   11  O1  UNL     1     -12.351 -10.334  -0.332  1.00  0.00    -0.389 OA
ATOM     12  H1  UNL     1     -12.192  -9.588   0.233  1.00  0.00     0.210 HD
ENDBRANCH   9  11
ENDBRANCH   1   9
BRANCH   3  13
HETATM   13  C5  UNL     1     -13.478  -5.574  -2.737  1.00  0.00     0.207 C 
HETATM   14  N1  UNL     1     -13.909  -4.427  -2.402  1.00  0.00    -0.278 N 
ATOM     15  H1  UNL     1     -14.496  -4.392  -1.569  1.00  0.00     0.189 HD
BRANCH  13  16
HETATM   16  O3  UNL     1     -12.674  -5.743  -3.847  1.00  0.00    -0.342 OA
ATOM     17  H3  UNL     1     -11.796  -5.381  -3.871  1.00  0.00     0.219 HD
ENDBRANCH  13  16
BRANCH  14  18
HETATM   18  N2  UNL     1     -13.675  -3.235  -3.030  1.00  0.00    -0.300 N 
ATOM     19  H2  UNL     1     -12.823  -2.724  -2.804  1.00  0.00     0.183 HD
BRANCH  18  20
HETATM   20  C6  UNL     1     -14.569  -2.676  -3.985  1.00  0.00     0.290 C 
BRANCH  20  21
HETATM   21  O4  UNL     1     -14.537  -3.470  -5.144  1.00  0.00    -0.370 OA
ATOM     22  H4  UNL     1     -14.094  -2.984  -5.831  1.00  0.00     0.212 HD
ENDBRANCH  20  21
BRANCH  20  23
HETATM   23  C7  UNL     1     -14.137  -1.313  -4.430  1.00  0.00     0.144 A 
HETATM   24  N3  UNL     1     -12.950  -0.817  -4.052  1.00  0.00    -0.281 N 
HETATM   25  N4  UNL     1     -12.522   0.377  -4.422  1.00  0.00    -0.130 N 
ATOM     26  H3  UNL     1     -12.352  -1.385  -3.453  1.00  0.00     0.187 HD
HETATM   27  C8  UNL     1     -13.284   1.166  -5.219  1.00  0.00     0.713 A 
ATOM     28  H4  UNL     1     -11.611   0.709  -4.105  1.00  0.00     0.205 HD
HETATM   29  N7  UNL     1     -14.478   0.723  -5.629  1.00  0.00    -0.152 N 
HETATM   30  C9  UNL     1     -14.906  -0.507  -5.240  1.00  0.00     0.288 A 
ATOM     31  H7  UNL     1     -15.063   1.304  -6.229  1.00  0.00     0.188 HD
HETATM   32  O5  UNL     1     -16.023  -0.931  -5.618  1.00  0.00    -0.265 OA
BRANCH  27  33
HETATM   33  N5  UNL     1     -12.869   2.343  -5.590  1.00  0.00    -0.137 N 
ATOM     34  H5  UNL     1     -11.877   2.579  -5.549  1.00  0.00     0.205 HD
BRANCH  33  35
HETATM   35  N6  UNL     1     -13.795   3.271  -6.043  1.00  0.00    -0.331 N 
ATOM     36  H62 UNL     1     -14.542   3.581  -5.422  1.00  0.00     0.177 HD
ATOM     37  H61 UNL     1     -13.712   3.628  -6.995  1.00  0.00     0.177 HD
ENDBRANCH  33  35
ENDBRANCH  27  33
ENDBRANCH  20  23
ENDBRANCH  18  20
ENDBRANCH  14  18
ENDBRANCH   3  13
TORSDOF 10
ENDMDL
MODEL 3
REMARK VINA RESULT: -8.058459948      1.644      2.010
REMARK  10 active torsions:
REMARK  status: ('A' for Active; 'I' for Inactive)
REMARK    1  A    between atoms: C2_2  and  O1_3 
REMARK    2  A    between atoms: C2_2  and  C3_5 
REMARK    3  A    between atoms: C4_7  and  C5_8 
REMARK    4  A    between atoms: C5_8  and  O3_9 
REMARK    5  A    between atoms: N1_11  and  N2_13 
REMARK    6  A    between atoms: N2_13  and  C6_15 
REMARK    7  A    between atoms: C6_15  and  O4_16 
REMARK    8  A    between atoms: C6_15  and  C7_18 
REMARK    9  A    between atoms: C8_23  and  N5_24 
REMARK   10  A    between atoms: N5_24  and  N6_26 
ROOT
HETATM    1  C3  UNL     1     -12.886  -8.283  -0.156  1.00  0.00     0.121 A 
HETATM    2  O2  UNL     1     -12.834  -6.968  -0.182  1.00  0.00    -0.288 OA
HETATM    3  C4  UNL     1     -13.490  -6.536  -1.215  1.00  0.00     0.202 A 
HETATM    4  N8  UNL     1     -13.985  -7.562  -1.886  1.00  0.00    -0.322 N 
ATOM      5  H8  UNL     1     -14.543  -7.514  -2.738  1.00  0.00     0.169 HD
HETATM    6  C10 UNL     1     -13.613  -8.691  -1.230  1.00  0.00     0.148 A 
HETATM    7  C11 UNL     1     -13.898 -10.055  -1.558  1.00  0.00     0.120 C 
HETATM    8  N9  UNL     1     -14.139 -11.161  -1.826  1.00  0.00    -0.190 NA
ENDROOT
BRANCH   1   9
HETATM    9  C2  UNL     1     -12.254  -9.126   0.872  1.00  0.00     0.174 C 
HETATM   10  C1  UNL     1     -13.184  -9.567   1.955  1.00  0.00     0.046 C 
BRANCH   9  11
HETATM   11  O1  UNL     1     -11.629 -10.238   0.302  1.00  0.00    -0.389 OA
ATOM     12  H1  UNL     1     -10.753 -10.005   0.019  1.00  0.00     0.210 HD
ENDBRANCH   9  11
ENDBRANCH   1   9
BRANCH   3  13
HETATM   13  C5  UNL     1     -13.631  -5.094  -1.546  1.00  0.00     0.207 C 
HETATM   14  N1  UNL     1     -13.152  -4.688  -2.650  1.00  0.00    -0.278 N 
ATOM     15  H1  UNL     1     -12.701  -5.393  -3.233  1.00  0.00     0.189 HD
BRANCH  13  16
HETATM   16  O3  UNL     1     -14.264  -4.229  -0.676  1.00  0.00    -0.342 OA
ATOM     17  H3  UNL     1     -15.052  -3.768  -0.938  1.00  0.00     0.219 HD
ENDBRANCH  13  16
BRANCH  14  18
HETATM   18  N2  UNL     1     -13.172  -3.413  -3.146  1.00  0.00    -0.300 N 
ATOM     19  H2  UNL     1     -12.356  -2.820  -2.997  1.00  0.00     0.183 HD
BRANCH  18  20
HETATM   20  C6  UNL     1     -14.279  -2.878  -3.860  1.00  0.00     0.290 C 
BRANCH  20  21
HETATM   21  O4  UNL     1     -14.473  -3.643  -5.022  1.00  0.00    -0.370 OA
ATOM     22  H4  UNL     1     -14.312  -3.090  -5.778  1.00  0.00     0.212 HD
ENDBRANCH  20  21
BRANCH  20  23
HETATM   23  C7  UNL     1     -14.016  -1.486  -4.345  1.00  0.00     0.144 A 
HETATM   24  N3  UNL     1     -12.851  -0.880  -4.079  1.00  0.00    -0.281 N 
HETATM   25  N4  UNL     1     -12.569   0.345  -4.490  1.00  0.00    -0.130 N 
ATOM     26  H3  UNL     1     -12.150  -1.386  -3.538  1.00  0.00     0.187 HD
HETATM   27  C8  UNL     1     -13.471   1.053  -5.214  1.00  0.00     0.713 A 
ATOM     28  H4  UNL     1     -11.667   0.761  -4.259  1.00  0.00     0.205 HD
HETATM   29  N7  UNL     1     -14.652   0.498  -5.510  1.00  0.00    -0.152 N 
HETATM   30  C9  UNL     1     -14.928  -0.761  -5.082  1.00  0.00     0.288 A 
ATOM     31  H7  UNL     1     -15.341   1.018  -6.054  1.00  0.00     0.188 HD
HETATM   32  O5  UNL     1     -16.031  -1.289  -5.353  1.00  0.00    -0.265 OA
BRANCH  27  33
HETATM   33  N5  UNL     1     -13.201   2.258  -5.624  1.00  0.00    -0.137 N 
ATOM     34  H5  UNL     1     -13.946   2.871  -5.956  1.00  0.00     0.205 HD
BRANCH  33  35
HETATM   35  N6  UNL     1     -11.885   2.698  -5.602  1.00  0.00    -0.331 N 
ATOM     36  H62 UNL     1     -11.134   2.048  -5.833  1.00  0.00     0.177 HD
ATOM     37  H61 UNL     1     -11.692   3.669  -5.354  1.00  0.00     0.177 HD
ENDBRANCH  33  35
ENDBRANCH  27  33
ENDBRANCH  20  23
ENDBRANCH  18  20
ENDBRANCH  14  18
ENDBRANCH   3  13
TORSDOF 10
ENDMDL
MODEL 4
REMARK VINA RESULT: -8.039339954      2.286      3.150
REMARK  10 active torsions:
REMARK  status: ('A' for Active; 'I' for Inactive)
REMARK    1  A    between atoms: C2_2  and  O1_3 
REMARK    2  A    between atoms: C2_2  and  C3_5 
REMARK    3  A    between atoms: C4_7  and  C5_8 
REMARK    4  A    between atoms: C5_8  and  O3_9 
REMARK    5  A    between atoms: N1_11  and  N2_13 
REMARK    6  A    between atoms: N2_13  and  C6_15 
REMARK    7  A    between atoms: C6_15  and  O4_16 
REMARK    8  A    between atoms: C6_15  and  C7_18 
REMARK    9  A    between atoms: C8_23  and  N5_24 
REMARK   10  A    between atoms: N5_24  and  N6_26 
ROOT
HETATM    1  C3  UNL     1     -12.652  -6.965  -0.186  1.00  0.00     0.121 A 
HETATM    2  O2  UNL     1     -12.362  -5.706  -0.433  1.00  0.00    -0.288 OA
HETATM    3  C4  UNL     1     -12.797  -5.392  -1.615  1.00  0.00     0.202 A 
HETATM    4  N8  UNL     1     -13.381  -6.443  -2.165  1.00  0.00    -0.322 N 
ATOM      5  H8  UNL     1     -13.811  -6.480  -3.089  1.00  0.00     0.169 HD
HETATM    6  C10 UNL     1     -13.302  -7.463  -1.272  1.00  0.00     0.148 A 
HETATM    7  C11 UNL     1     -13.785  -8.804  -1.397  1.00  0.00     0.120 C 
HETATM    8  N9  UNL     1     -14.186  -9.892  -1.502  1.00  0.00    -0.190 NA
ENDROOT
BRANCH   1   9
HETATM    9  C2  UNL     1     -12.315  -7.675   1.059  1.00  0.00     0.174 C 
HETATM   10  C1  UNL     1     -10.856  -7.946   1.230  1.00  0.00     0.046 C 
BRANCH   9  11
HETATM   11  O1  UNL     1     -12.804  -6.997   2.178  1.00  0.00    -0.389 OA
ATOM     12  H1  UNL     1     -13.744  -6.882   2.099  1.00  0.00     0.210 HD
ENDBRANCH   9  11
ENDBRANCH   1   9
BRANCH   3  13
HETATM   13  C5  UNL     1     -12.634  -4.040  -2.211  1.00  0.00     0.207 C 
HETATM   14  N1  UNL     1     -13.495  -3.658  -3.062  1.00  0.00    -0.278 N 
ATOM     15  H1  UNL     1     -14.244  -4.318  -3.274  1.00  0.00     0.189 HD
BRANCH  13  16
HETATM   16  O3  UNL     1     -11.576  -3.231  -1.846  1.00  0.00    -0.342 OA
ATOM     17  H3  UNL     1     -10.732  -3.315  -2.274  1.00  0.00     0.219 HD
ENDBRANCH  13  16
BRANCH  14  18
HETATM   18  N2  UNL     1     -13.533  -2.463  -3.727  1.00  0.00    -0.300 N 
ATOM     19  H2  UNL     1     -12.670  -1.930  -3.820  1.00  0.00     0.183 HD
BRANCH  18  20
HETATM   20  C6  UNL     1     -14.724  -1.932  -4.295  1.00  0.00     0.290 C 
BRANCH  20  21
HETATM   21  O4  UNL     1     -15.466  -2.989  -4.847  1.00  0.00    -0.370 OA
ATOM     22  H4  UNL     1     -14.860  -3.641  -5.182  1.00  0.00     0.212 HD
ENDBRANCH  20  21
BRANCH  20  23
HETATM   23  C7  UNL     1     -14.439  -1.011  -5.441  1.00  0.00     0.144 A 
HETATM   24  N3  UNL     1     -15.070  -1.165  -6.613  1.00  0.00    -0.281 N 
HETATM   25  N4  UNL     1     -14.857  -0.376  -7.651  1.00  0.00    -0.130 N 
ATOM     26  H3  UNL     1     -15.745  -1.924  -6.708  1.00  0.00     0.187 HD
HETATM   27  C8  UNL     1     -13.971   0.646  -7.569  1.00  0.00     0.713 A 
ATOM     28  H4  UNL     1     -15.364  -0.537  -8.522  1.00  0.00     0.205 HD
HETATM   29  N7  UNL     1     -13.310   0.849  -6.423  1.00  0.00    -0.152 N 
HETATM   30  C9  UNL     1     -13.540   0.030  -5.364  1.00  0.00     0.288 A 
ATOM     31  H7  UNL     1     -12.640   1.614  -6.345  1.00  0.00     0.188 HD
HETATM   32  O5  UNL     1     -12.926   0.210  -4.286  1.00  0.00    -0.265 OA
BRANCH  27  33
HETATM   33  N5  UNL     1     -13.756   1.430  -8.587  1.00  0.00    -0.137 N 
ATOM     34  H5  UNL     1     -14.460   1.533  -9.318  1.00  0.00     0.205 HD
BRANCH  33  35
HETATM   35  N6  UNL     1     -12.556   2.123  -8.661  1.00  0.00    -0.331 N 
ATOM     36  H62 UNL     1     -12.566   3.130  -8.820  1.00  0.00     0.177 HD
ATOM     37  H61 UNL     1     -11.682   1.609  -8.555  1.00  0.00     0.177 HD
ENDBRANCH  33  35
ENDBRANCH  27  33
ENDBRANCH  20  23
ENDBRANCH  18  20
ENDBRANCH  14  18
ENDBRANCH   3  13
TORSDOF 10
ENDMDL
MODEL 5
REMARK VINA RESULT: -8.031566926      1.297      1.400
REMARK  10 active torsions:
REMARK  status: ('A' for Active; 'I' for Inactive)
REMARK    1  A    between atoms: C2_2  and  O1_3 
REMARK    2  A    between atoms: C2_2  and  C3_5 
REMARK    3  A    between atoms: C4_7  and  C5_8 
REMARK    4  A    between atoms: C5_8  and  O3_9 
REMARK    5  A    between atoms: N1_11  and  N2_13 
REMARK    6  A    between atoms: N2_13  and  C6_15 
REMARK    7  A    between atoms: C6_15  and  O4_16 
REMARK    8  A    between atoms: C6_15  and  C7_18 
REMARK    9  A    between atoms: C8_23  and  N5_24 
REMARK   10  A    between atoms: N5_24  and  N6_26 
ROOT
HETATM    1  C3  UNL     1     -15.545  -9.151  -0.925  1.00  0.00     0.121 A 
HETATM    2  O2  UNL     1     -15.471  -7.866  -1.194  1.00  0.00    -0.288 OA
HETATM    3  C4  UNL     1     -14.244  -7.467  -1.040  1.00  0.00     0.202 A 
HETATM    4  N8  UNL     1     -13.491  -8.488  -0.666  1.00  0.00    -0.322 N 
ATOM      5  H8  UNL     1     -12.490  -8.461  -0.474  1.00  0.00     0.169 HD
HETATM    6  C10 UNL     1     -14.299  -9.577  -0.584  1.00  0.00     0.148 A 
HETATM    7  C11 UNL     1     -13.960 -10.919  -0.219  1.00  0.00     0.120 C 
HETATM    8  N9  UNL     1     -13.678 -12.010   0.072  1.00  0.00    -0.190 NA
ENDROOT
BRANCH   1   9
HETATM    9  C2  UNL     1     -16.778  -9.952  -0.991  1.00  0.00     0.174 C 
HETATM   10  C1  UNL     1     -17.905  -9.402  -0.179  1.00  0.00     0.046 C 
BRANCH   9  11
HETATM   11  O1  UNL     1     -17.193 -10.137  -2.312  1.00  0.00    -0.389 OA
ATOM     12  H1  UNL     1     -16.797  -9.477  -2.868  1.00  0.00     0.210 HD
ENDBRANCH   9  11
ENDBRANCH   1   9
BRANCH   3  13
HETATM   13  C5  UNL     1     -13.809  -6.064  -1.264  1.00  0.00     0.207 C 
HETATM   14  N1  UNL     1     -14.404  -5.393  -2.162  1.00  0.00    -0.278 N 
ATOM     15  H1  UNL     1     -15.147  -5.875  -2.668  1.00  0.00     0.189 HD
BRANCH  13  16
HETATM   16  O3  UNL     1     -12.787  -5.515  -0.514  1.00  0.00    -0.342 OA
ATOM     17  H3  UNL     1     -12.637  -4.577  -0.513  1.00  0.00     0.219 HD
ENDBRANCH  13  16
BRANCH  14  18
HETATM   18  N2  UNL     1     -14.164  -4.097  -2.528  1.00  0.00    -0.300 N 
ATOM     19  H2  UNL     1     -14.705  -3.357  -2.082  1.00  0.00     0.183 HD
BRANCH  18  20
HETATM   20  C6  UNL     1     -13.192  -3.736  -3.502  1.00  0.00     0.290 C 
BRANCH  20  21
HETATM   21  O4  UNL     1     -11.924  -3.760  -2.897  1.00  0.00    -0.370 OA
ATOM     22  H4  UNL     1     -11.281  -3.466  -3.532  1.00  0.00     0.212 HD
ENDBRANCH  20  21
BRANCH  20  23
HETATM   23  C7  UNL     1     -13.372  -2.329  -3.982  1.00  0.00     0.144 A 
HETATM   24  N3  UNL     1     -12.400  -1.422  -3.816  1.00  0.00    -0.281 N 
HETATM   25  N4  UNL     1     -12.509  -0.170  -4.226  1.00  0.00    -0.130 N 
ATOM     26  H3  UNL     1     -11.538  -1.710  -3.352  1.00  0.00     0.187 HD
HETATM   27  C8  UNL     1     -13.636   0.255  -4.848  1.00  0.00     0.713 A 
ATOM     28  H4  UNL     1     -11.739   0.481  -4.074  1.00  0.00     0.205 HD
HETATM   29  N7  UNL     1     -14.641  -0.607  -5.043  1.00  0.00    -0.152 N 
HETATM   30  C9  UNL     1     -14.515  -1.891  -4.615  1.00  0.00     0.288 A 
ATOM     31  H7  UNL     1     -15.495  -0.303  -5.509  1.00  0.00     0.188 HD
HETATM   32  O5  UNL     1     -15.450  -2.705  -4.791  1.00  0.00    -0.265 OA
BRANCH  27  33
HETATM   33  N5  UNL     1     -13.751   1.485  -5.258  1.00  0.00    -0.137 N 
ATOM     34  H5  UNL     1     -14.660   1.857  -5.533  1.00  0.00     0.205 HD
BRANCH  33  35
HETATM   35  N6  UNL     1     -12.618   2.284  -5.315  1.00  0.00    -0.331 N 
ATOM     36  H62 UNL     1     -12.088   2.468  -4.463  1.00  0.00     0.177 HD
ATOM     37  H61 UNL     1     -12.334   2.676  -6.213  1.00  0.00     0.177 HD
ENDBRANCH  33  35
ENDBRANCH  27  33
ENDBRANCH  20  23
ENDBRANCH  18  20
ENDBRANCH  14  18
ENDBRANCH   3  13
TORSDOF 10
ENDMDL
