MODEL 1
REMARK VINA RESULT: -8.873771960      0.000      0.000
REMARK  6 active torsions:
REMARK  status: ('A' for Active; 'I' for Inactive)
REMARK    1  A    between atoms: N2_4  and  N3_6 
REMARK    2  A    between atoms: N3_6  and  S1_8 
REMARK    3  A    between atoms: S1_8  and  C3_9 
REMARK    4  A    between atoms: N6_15  and  N7_16 
REMARK    5  A    between atoms: C6_24  and  N11_25 
REMARK    6  A    between atoms: C7_30  and  N13_31 
ROOT
HETATM    1  N7  UNL     1     -13.180  -1.848  -4.019  1.00  0.00    -0.117 N 
HETATM    2  N8  UNL     1     -12.393  -0.940  -3.442  1.00  0.00    -0.215 N 
ATOM      3  H8  UNL     1     -11.838  -1.208  -2.628  1.00  0.00     0.210 HD
HETATM    4  N9  UNL     1     -12.312   0.302  -3.895  1.00  0.00    -0.268 N 
ATOM      5  H9  UNL     1     -11.700   0.971  -3.428  1.00  0.00     0.190 HD
HETATM    6  C5  UNL     1     -13.031   0.691  -4.969  1.00  0.00     0.156 A 
HETATM    7  N10 UNL     1     -12.997   1.919  -5.475  1.00  0.00    -0.174 N 
ATOM      8  H10 UNL     1     -12.390   2.602  -5.021  1.00  0.00     0.186 HD
HETATM    9  C6  UNL     1     -13.706   2.324  -6.543  1.00  0.00     0.679 A 
HETATM   10  N12 UNL     1     -14.506   1.422  -7.138  1.00  0.00    -0.176 N 
ATOM     11  H12 UNL     1     -15.061   1.691  -7.951  1.00  0.00     0.186 HD
HETATM   12  C7  UNL     1     -14.576   0.164  -6.664  1.00  0.00     0.134 A 
HETATM   13  C8  UNL     1     -13.848  -0.253  -5.567  1.00  0.00     0.125 A 
HETATM   14  C9  UNL     1     -13.929  -1.556  -5.085  1.00  0.00     0.302 A 
HETATM   15  O1  UNL     1     -14.682  -2.368  -5.665  1.00  0.00    -0.263 OA
ENDROOT
BRANCH   1  16
HETATM   16  N6  UNL     1     -13.234  -3.158  -3.501  1.00  0.00    -0.147 N 
HETATM   17  C3  UNL     1     -12.166  -3.854  -3.057  1.00  0.00     0.153 A 
HETATM   18  C4  UNL     1     -12.601  -5.094  -2.626  1.00  0.00     0.151 A 
HETATM   19  N4  UNL     1     -13.932  -5.095  -2.828  1.00  0.00    -0.293 N 
HETATM   20  N5  UNL     1     -14.281  -3.934  -3.349  1.00  0.00    -0.219 N 
ATOM     21  H4  UNL     1     -14.565  -5.866  -2.615  1.00  0.00     0.187 HD
ATOM     22  H5  UNL     1     -15.235  -3.675  -3.599  1.00  0.00     0.210 HD
BRANCH  17  23
HETATM   23  S1  UNL     1     -10.479  -3.296  -3.025  1.00  0.00     0.025 SA
BRANCH  23  24
HETATM   24  N3  UNL     1      -9.443  -4.498  -2.307  1.00  0.00    -0.267 N 
ATOM     25  H3  UNL     1      -8.783  -5.026  -2.879  1.00  0.00     0.195 HD
BRANCH  24  26
HETATM   26  N2  UNL     1      -9.533  -4.724  -0.932  1.00  0.00    -0.285 N 
HETATM   27  C2  UNL     1      -8.716  -4.131  -0.139  1.00  0.00     0.103 C 
HETATM   28  C1  UNL     1      -7.668  -3.199  -0.664  1.00  0.00     0.086 C 
HETATM   29  N1  UNL     1      -8.765  -4.326   1.264  1.00  0.00    -0.087 NA
ATOM     30  H2  UNL     1     -10.243  -5.355  -0.561  1.00  0.00     0.188 HD
ENDBRANCH  24  26
ENDBRANCH  23  24
ENDBRANCH  17  23
ENDBRANCH   1  16
BRANCH  12  31
HETATM   31  N13 UNL     1     -15.349  -0.727  -7.231  1.00  0.00    -0.384 N 
ATOM     32 2H13 UNL     1     -15.098  -1.707  -7.092  1.00  0.00     0.157 HD
ATOM     33 1H13 UNL     1     -16.161  -0.446  -7.780  1.00  0.00     0.157 HD
ENDBRANCH  12  31
BRANCH   9  34
HETATM   34  N11 UNL     1     -13.645   3.541  -7.009  1.00  0.00    -0.234 N 
ATOM     35 2H11 UNL     1     -14.499   4.008  -7.313  1.00  0.00     0.174 HD
ATOM     36 1H11 UNL     1     -12.769   4.058  -7.086  1.00  0.00     0.174 HD
ENDBRANCH   9  34
TORSDOF 6
ENDMDL
MODEL 2
REMARK VINA RESULT: -8.838490757      0.950      1.055
REMARK  6 active torsions:
REMARK  status: ('A' for Active; 'I' for Inactive)
REMARK    1  A    between atoms: N2_4  and  N3_6 
REMARK    2  A    between atoms: N3_6  and  S1_8 
REMARK    3  A    between atoms: S1_8  and  C3_9 
REMARK    4  A    between atoms: N6_15  and  N7_16 
REMARK    5  A    between atoms: C6_24  and  N11_25 
REMARK    6  A    between atoms: C7_30  and  N13_31 
ROOT
HETATM    1  N7  UNL     1     -13.266  -1.808  -4.009  1.00  0.00    -0.117 N 
HETATM    2  N8  UNL     1     -12.432  -0.932  -3.446  1.00  0.00    -0.215 N 
ATOM      3  H8  UNL     1     -11.913  -1.206  -2.612  1.00  0.00     0.210 HD
HETATM    4  N9  UNL     1     -12.259   0.284  -3.942  1.00  0.00    -0.268 N 
ATOM      5  H9  UNL     1     -11.613   0.927  -3.485  1.00  0.00     0.190 HD
HETATM    6  C5  UNL     1     -12.928   0.679  -5.046  1.00  0.00     0.156 A 
HETATM    7  N10 UNL     1     -12.801   1.882  -5.595  1.00  0.00    -0.174 N 
ATOM      8  H10 UNL     1     -12.160   2.540  -5.152  1.00  0.00     0.186 HD
HETATM    9  C6  UNL     1     -13.460   2.293  -6.692  1.00  0.00     0.679 A 
HETATM   10  N12 UNL     1     -14.306   1.424  -7.273  1.00  0.00    -0.176 N 
ATOM     11  H12 UNL     1     -14.824   1.699  -8.107  1.00  0.00     0.186 HD
HETATM   12  C7  UNL     1     -14.470   0.192  -6.756  1.00  0.00     0.134 A 
HETATM   13  C8  UNL     1     -13.794  -0.231  -5.628  1.00  0.00     0.125 A 
HETATM   14  C9  UNL     1     -13.971  -1.507  -5.101  1.00  0.00     0.302 A 
HETATM   15  O1  UNL     1     -14.765  -2.288  -5.669  1.00  0.00    -0.263 OA
ENDROOT
BRANCH   1  16
HETATM   16  N6  UNL     1     -13.418  -3.091  -3.445  1.00  0.00    -0.147 N 
HETATM   17  C3  UNL     1     -12.398  -3.916  -3.126  1.00  0.00     0.153 A 
HETATM   18  C4  UNL     1     -12.928  -5.080  -2.599  1.00  0.00     0.151 A 
HETATM   19  N4  UNL     1     -14.262  -4.908  -2.622  1.00  0.00    -0.293 N 
HETATM   20  N5  UNL     1     -14.526  -3.718  -3.129  1.00  0.00    -0.219 N 
ATOM     21  H4  UNL     1     -14.955  -5.584  -2.301  1.00  0.00     0.187 HD
ATOM     22  H5  UNL     1     -15.464  -3.338  -3.258  1.00  0.00     0.210 HD
BRANCH  17  23
HETATM   23  S1  UNL     1     -10.665  -3.586  -3.337  1.00  0.00     0.025 SA
BRANCH  23  24
HETATM   24  N3  UNL     1      -9.892  -3.326  -1.797  1.00  0.00    -0.267 N 
ATOM     25  H3  UNL     1     -10.308  -3.687  -0.938  1.00  0.00     0.195 HD
BRANCH  24  26
HETATM   26  N2  UNL     1      -8.693  -2.612  -1.763  1.00  0.00    -0.285 N 
HETATM   27  C2  UNL     1      -7.876  -2.794  -0.789  1.00  0.00     0.103 C 
HETATM   28  C1  UNL     1      -8.188  -3.761   0.310  1.00  0.00     0.086 C 
HETATM   29  N1  UNL     1      -6.646  -2.095  -0.707  1.00  0.00    -0.087 NA
ATOM     30  H2  UNL     1      -8.468  -1.951  -2.507  1.00  0.00     0.188 HD
ENDBRANCH  24  26
ENDBRANCH  23  24
ENDBRANCH  17  23
ENDBRANCH   1  16
BRANCH  12  31
HETATM   31  N13 UNL     1     -15.289  -0.667  -7.308  1.00  0.00    -0.384 N 
ATOM     32 2H13 UNL     1     -16.280  -0.423  -7.304  1.00  0.00     0.157 HD
ATOM     33 1H13 UNL     1     -14.943  -1.534  -7.718  1.00  0.00     0.157 HD
ENDBRANCH  12  31
BRANCH   9  34
HETATM   34  N11 UNL     1     -13.308   3.485  -7.201  1.00  0.00    -0.234 N 
ATOM     35 2H11 UNL     1     -12.411   3.961  -7.112  1.00  0.00     0.174 HD
ATOM     36 1H11 UNL     1     -14.057   3.973  -7.693  1.00  0.00     0.174 HD
ENDBRANCH   9  34
TORSDOF 6
ENDMDL
MODEL 3
REMARK VINA RESULT: -7.955651563      2.253      3.947
REMARK  6 active torsions:
REMARK  status: ('A' for Active; 'I' for Inactive)
REMARK    1  A    between atoms: N2_4  and  N3_6 
REMARK    2  A    between atoms: N3_6  and  S1_8 
REMARK    3  A    between atoms: S1_8  and  C3_9 
REMARK    4  A    between atoms: N6_15  and  N7_16 
REMARK    5  A    between atoms: C6_24  and  N11_25 
REMARK    6  A    between atoms: C7_30  and  N13_31 
ROOT
HETATM    1  N7  UNL     1     -13.036  -2.819  -4.010  1.00  0.00    -0.117 N 
HETATM    2  N8  UNL     1     -13.990  -3.418  -4.723  1.00  0.00    -0.215 N 
ATOM      3  H8  UNL     1     -14.139  -4.421  -4.610  1.00  0.00     0.210 HD
HETATM    4  N9  UNL     1     -14.750  -2.747  -5.575  1.00  0.00    -0.268 N 
ATOM      5  H9  UNL     1     -15.470  -3.238  -6.104  1.00  0.00     0.190 HD
HETATM    6  C5  UNL     1     -14.582  -1.419  -5.748  1.00  0.00     0.156 A 
HETATM    7  N10 UNL     1     -15.308  -0.685  -6.585  1.00  0.00    -0.174 N 
ATOM      8  H10 UNL     1     -16.034  -1.159  -7.123  1.00  0.00     0.186 HD
HETATM    9  C6  UNL     1     -15.154   0.637  -6.771  1.00  0.00     0.679 A 
HETATM   10  N12 UNL     1     -14.196   1.259  -6.061  1.00  0.00    -0.176 N 
ATOM     11  H12 UNL     1     -14.048   2.261  -6.175  1.00  0.00     0.186 HD
HETATM   12  C7  UNL     1     -13.433   0.561  -5.200  1.00  0.00     0.134 A 
HETATM   13  C8  UNL     1     -13.590  -0.799  -5.008  1.00  0.00     0.125 A 
HETATM   14  C9  UNL     1     -12.794  -1.510  -4.115  1.00  0.00     0.302 A 
HETATM   15  O1  UNL     1     -11.915  -0.899  -3.472  1.00  0.00    -0.263 OA
ENDROOT
BRANCH   1  16
HETATM   16  N6  UNL     1     -12.251  -3.575  -3.116  1.00  0.00    -0.147 N 
HETATM   17  C3  UNL     1     -12.745  -4.385  -2.155  1.00  0.00     0.153 A 
HETATM   18  C4  UNL     1     -11.683  -4.958  -1.480  1.00  0.00     0.151 A 
HETATM   19  N4  UNL     1     -10.577  -4.465  -2.068  1.00  0.00    -0.293 N 
HETATM   20  N5  UNL     1     -10.943  -3.647  -3.037  1.00  0.00    -0.219 N 
ATOM     21  H4  UNL     1      -9.616  -4.688  -1.809  1.00  0.00     0.187 HD
ATOM     22  H5  UNL     1     -10.298  -3.139  -3.642  1.00  0.00     0.210 HD
BRANCH  17  23
HETATM   23  S1  UNL     1     -14.460  -4.678  -1.798  1.00  0.00     0.025 SA
BRANCH  23  24
HETATM   24  N3  UNL     1     -14.676  -6.223  -1.022  1.00  0.00    -0.267 N 
ATOM     25  H3  UNL     1     -14.953  -6.279  -0.041  1.00  0.00     0.195 HD
BRANCH  24  26
HETATM   26  N2  UNL     1     -14.461  -7.382  -1.769  1.00  0.00    -0.285 N 
HETATM   27  C2  UNL     1     -13.667  -8.286  -1.319  1.00  0.00     0.103 C 
HETATM   28  C1  UNL     1     -12.969  -8.118  -0.006  1.00  0.00     0.086 C 
HETATM   29  N1  UNL     1     -13.415  -9.481  -2.039  1.00  0.00    -0.087 NA
ATOM     30  H2  UNL     1     -14.932  -7.510  -2.665  1.00  0.00     0.188 HD
ENDBRANCH  24  26
ENDBRANCH  23  24
ENDBRANCH  17  23
ENDBRANCH   1  16
BRANCH  12  31
HETATM   31  N13 UNL     1     -12.495   1.149  -4.501  1.00  0.00    -0.384 N 
ATOM     32 2H13 UNL     1     -11.702   1.524  -5.022  1.00  0.00     0.157 HD
ATOM     33 1H13 UNL     1     -12.565   1.222  -3.486  1.00  0.00     0.157 HD
ENDBRANCH  12  31
BRANCH   9  34
HETATM   34  N11 UNL     1     -15.888   1.322  -7.603  1.00  0.00    -0.234 N 
ATOM     35 2H11 UNL     1     -16.881   1.107  -7.695  1.00  0.00     0.174 HD
ATOM     36 1H11 UNL     1     -15.512   2.077  -8.177  1.00  0.00     0.174 HD
ENDBRANCH   9  34
TORSDOF 6
ENDMDL
MODEL 4
REMARK VINA RESULT: -7.705535644      2.553      4.574
REMARK  6 active torsions:
REMARK  status: ('A' for Active; 'I' for Inactive)
REMARK    1  A    between atoms: N2_4  and  N3_6 
REMARK    2  A    between atoms: N3_6  and  S1_8 
REMARK    3  A    between atoms: S1_8  and  C3_9 
REMARK    4  A    between atoms: N6_15  and  N7_16 
REMARK    5  A    between atoms: C6_24  and  N11_25 
REMARK    6  A    between atoms: C7_30  and  N13_31 
ROOT
HETATM    1  N7  UNL     1     -13.039  -2.877  -3.994  1.00  0.00    -0.117 N 
HETATM    2  N8  UNL     1     -13.995  -3.472  -4.709  1.00  0.00    -0.215 N 
ATOM      3  H8  UNL     1     -14.146  -4.475  -4.600  1.00  0.00     0.210 HD
HETATM    4  N9  UNL     1     -14.754  -2.796  -5.559  1.00  0.00    -0.268 N 
ATOM      5  H9  UNL     1     -15.474  -3.284  -6.090  1.00  0.00     0.190 HD
HETATM    6  C5  UNL     1     -14.582  -1.467  -5.728  1.00  0.00     0.156 A 
HETATM    7  N10 UNL     1     -15.306  -0.730  -6.562  1.00  0.00    -0.174 N 
ATOM      8  H10 UNL     1     -16.033  -1.200  -7.102  1.00  0.00     0.186 HD
HETATM    9  C6  UNL     1     -15.149   0.593  -6.744  1.00  0.00     0.679 A 
HETATM   10  N12 UNL     1     -14.190   1.210  -6.032  1.00  0.00    -0.176 N 
ATOM     11  H12 UNL     1     -14.039   2.213  -6.143  1.00  0.00     0.186 HD
HETATM   12  C7  UNL     1     -13.428   0.508  -5.173  1.00  0.00     0.134 A 
HETATM   13  C8  UNL     1     -13.589  -0.852  -4.986  1.00  0.00     0.125 A 
HETATM   14  C9  UNL     1     -12.795  -1.569  -4.095  1.00  0.00     0.302 A 
HETATM   15  O1  UNL     1     -11.914  -0.961  -3.449  1.00  0.00    -0.263 OA
ENDROOT
BRANCH   1  16
HETATM   16  N6  UNL     1     -12.257  -3.638  -3.103  1.00  0.00    -0.147 N 
HETATM   17  C3  UNL     1     -12.752  -4.431  -2.128  1.00  0.00     0.153 A 
HETATM   18  C4  UNL     1     -11.692  -5.015  -1.460  1.00  0.00     0.151 A 
HETATM   19  N4  UNL     1     -10.585  -4.546  -2.066  1.00  0.00    -0.293 N 
HETATM   20  N5  UNL     1     -10.950  -3.730  -3.037  1.00  0.00    -0.219 N 
ATOM     21  H4  UNL     1      -9.625  -4.781  -1.816  1.00  0.00     0.187 HD
ATOM     22  H5  UNL     1     -10.303  -3.238  -3.654  1.00  0.00     0.210 HD
BRANCH  17  23
HETATM   23  S1  UNL     1     -14.468  -4.694  -1.750  1.00  0.00     0.025 SA
BRANCH  23  24
HETATM   24  N3  UNL     1     -14.691  -6.198  -0.900  1.00  0.00    -0.267 N 
ATOM     25  H3  UNL     1     -14.333  -6.319   0.048  1.00  0.00     0.195 HD
BRANCH  24  26
HETATM   26  N2  UNL     1     -15.369  -7.235  -1.543  1.00  0.00    -0.285 N 
HETATM   27  C2  UNL     1     -16.373  -7.789  -0.963  1.00  0.00     0.103 C 
HETATM   28  C1  UNL     1     -16.828  -7.340   0.390  1.00  0.00     0.086 C 
HETATM   29  N1  UNL     1     -17.095  -8.845  -1.573  1.00  0.00    -0.087 NA
ATOM     30  H2  UNL     1     -15.070  -7.549  -2.466  1.00  0.00     0.188 HD
ENDBRANCH  24  26
ENDBRANCH  23  24
ENDBRANCH  17  23
ENDBRANCH   1  16
BRANCH  12  31
HETATM   31  N13 UNL     1     -12.490   1.091  -4.472  1.00  0.00    -0.384 N 
ATOM     32 2H13 UNL     1     -12.670   1.211  -3.475  1.00  0.00     0.157 HD
ATOM     33 1H13 UNL     1     -11.624   1.405  -4.911  1.00  0.00     0.157 HD
ENDBRANCH  12  31
BRANCH   9  34
HETATM   34  N11 UNL     1     -15.882   1.283  -7.575  1.00  0.00    -0.234 N 
ATOM     35 2H11 UNL     1     -15.460   2.041  -8.110  1.00  0.00     0.174 HD
ATOM     36 1H11 UNL     1     -16.875   1.097  -7.717  1.00  0.00     0.174 HD
ENDBRANCH   9  34
TORSDOF 6
ENDMDL
MODEL 5
REMARK VINA RESULT: -7.575753653      3.854      8.447
REMARK  6 active torsions:
REMARK  status: ('A' for Active; 'I' for Inactive)
REMARK    1  A    between atoms: N2_4  and  N3_6 
REMARK    2  A    between atoms: N3_6  and  S1_8 
REMARK    3  A    between atoms: S1_8  and  C3_9 
REMARK    4  A    between atoms: N6_15  and  N7_16 
REMARK    5  A    between atoms: C6_24  and  N11_25 
REMARK    6  A    between atoms: C7_30  and  N13_31 
ROOT
HETATM    1  N7  UNL     1     -13.108  -6.394  -0.765  1.00  0.00    -0.117 N 
HETATM    2  N8  UNL     1     -14.139  -5.591  -1.034  1.00  0.00    -0.215 N 
ATOM      3  H8  UNL     1     -13.984  -4.584  -1.084  1.00  0.00     0.210 HD
HETATM    4  N9  UNL     1     -15.358  -6.067  -1.236  1.00  0.00    -0.268 N 
ATOM      5  H9  UNL     1     -16.123  -5.423  -1.438  1.00  0.00     0.190 HD
HETATM    6  C5  UNL     1     -15.598  -7.394  -1.178  1.00  0.00     0.156 A 
HETATM    7  N10 UNL     1     -16.796  -7.937  -1.371  1.00  0.00    -0.174 N 
ATOM      8  H10 UNL     1     -17.573  -7.309  -1.574  1.00  0.00     0.186 HD
HETATM    9  C6  UNL     1     -17.053  -9.255  -1.316  1.00  0.00     0.679 A 
HETATM   10  N12 UNL     1     -16.026 -10.080  -1.046  1.00  0.00    -0.176 N 
ATOM     11  H12 UNL     1     -16.182 -11.086  -0.995  1.00  0.00     0.186 HD
HETATM   12  C7  UNL     1     -14.794  -9.580  -0.843  1.00  0.00     0.134 A 
HETATM   13  C8  UNL     1     -14.528  -8.225  -0.898  1.00  0.00     0.125 A 
HETATM   14  C9  UNL     1     -13.249  -7.719  -0.686  1.00  0.00     0.302 A 
HETATM   15  O1  UNL     1     -12.319  -8.516  -0.438  1.00  0.00    -0.263 OA
ENDROOT
BRANCH   1  16
HETATM   16  N6  UNL     1     -11.828  -5.843  -0.556  1.00  0.00    -0.147 N 
HETATM   17  C3  UNL     1     -11.160  -5.085  -1.453  1.00  0.00     0.153 A 
HETATM   18  C4  UNL     1      -9.944  -4.726  -0.902  1.00  0.00     0.151 A 
HETATM   19  N4  UNL     1      -9.927  -5.287   0.321  1.00  0.00    -0.293 N 
HETATM   20  N5  UNL     1     -11.057  -5.944   0.501  1.00  0.00    -0.219 N 
ATOM     21  H4  UNL     1      -9.166  -5.217   0.997  1.00  0.00     0.187 HD
ATOM     22  H5  UNL     1     -11.299  -6.461   1.346  1.00  0.00     0.210 HD
BRANCH  17  23
HETATM   23  S1  UNL     1     -11.727  -4.619  -3.071  1.00  0.00     0.025 SA
BRANCH  23  24
HETATM   24  N3  UNL     1     -12.577  -3.099  -3.015  1.00  0.00    -0.267 N 
ATOM     25  H3  UNL     1     -12.117  -2.257  -2.666  1.00  0.00     0.195 HD
BRANCH  24  26
HETATM   26  N2  UNL     1     -13.900  -3.057  -3.456  1.00  0.00    -0.285 N 
HETATM   27  C2  UNL     1     -14.303  -2.056  -4.153  1.00  0.00     0.103 C 
HETATM   28  C1  UNL     1     -13.375  -0.934  -4.501  1.00  0.00     0.086 C 
HETATM   29  N1  UNL     1     -15.636  -1.965  -4.626  1.00  0.00    -0.087 NA
ATOM     30  H2  UNL     1     -14.542  -3.816  -3.227  1.00  0.00     0.188 HD
ENDBRANCH  24  26
ENDBRANCH  23  24
ENDBRANCH  17  23
ENDBRANCH   1  16
BRANCH  12  31
HETATM   31  N13 UNL     1     -13.782 -10.367  -0.578  1.00  0.00    -0.384 N 
ATOM     32 2H13 UNL     1     -13.365 -10.282   0.349  1.00  0.00     0.157 HD
ATOM     33 1H13 UNL     1     -13.437 -11.031  -1.272  1.00  0.00     0.157 HD
ENDBRANCH  12  31
BRANCH   9  34
HETATM   34  N11 UNL     1     -18.245  -9.749  -1.511  1.00  0.00    -0.234 N 
ATOM     35 2H11 UNL     1     -18.507 -10.083  -2.438  1.00  0.00     0.174 HD
ATOM     36 1H11 UNL     1     -18.940  -9.820  -0.768  1.00  0.00     0.174 HD
ENDBRANCH   9  34
TORSDOF 6
ENDMDL
