MODEL 1
REMARK VINA RESULT: -9.412328385      0.000      0.000
REMARK  8 active torsions:
REMARK  status: ('A' for Active; 'I' for Inactive)
REMARK    1  A    between atoms: C3_3  and  O1_6 
REMARK    2  A    between atoms: O1_6  and  C6_7 
REMARK       I    between atoms: C6_7  and  N1_9 
REMARK    3  A    between atoms: C9_12  and  C10_13 
REMARK       I    between atoms: C10_13  and  N2_15 
REMARK    4  A    between atoms: N2_15  and  C11_17 
REMARK    5  A    between atoms: C14_20  and  C15_21 
REMARK    6  A    between atoms: C15_21  and  C16_22 
REMARK    7  A    between atoms: C16_22  and  N3_23 
REMARK    8  A    between atoms: N4_26  and  C19_27 
ROOT
HETATM    1  C1  UNL     1       9.300  -5.094  15.680  1.00  0.00     0.015 C 
HETATM    2  C2  UNL     1       9.948  -4.194  15.253  1.00  0.00    -0.079 C 
HETATM    3  C3  UNL     1      10.733  -3.061  14.719  1.00  0.00     0.127 C 
HETATM    4  C4  UNL     1      10.354  -2.942  13.241  1.00  0.00     0.061 C 
HETATM    5  C5  UNL     1      12.204  -3.295  14.813  1.00  0.00     0.061 C 
ENDROOT
BRANCH   3   6
HETATM    6  O1  UNL     1      10.307  -1.861  15.336  1.00  0.00    -0.280 OA
BRANCH   6   7
HETATM    7  C6  UNL     1       9.086  -1.243  15.018  1.00  0.00     0.364 C 
HETATM    8  O2  UNL     1       8.278  -1.931  14.347  1.00  0.00    -0.238 OA
HETATM    9  N1  UNL     1       8.809   0.086  15.441  1.00  0.00    -0.328 N 
HETATM   10  C7  UNL     1       7.577   0.770  15.146  1.00  0.00     0.129 C 
HETATM   11  C29 UNL     1       9.807   0.801  16.206  1.00  0.00     0.129 C 
HETATM   12  C8  UNL     1       7.570   2.036  16.014  1.00  0.00     0.034 C 
HETATM   13  C9  UNL     1       7.813   1.559  17.429  1.00  0.00     0.081 C 
HETATM   14  C28 UNL     1       9.299   1.245  17.545  1.00  0.00     0.034 C 
BRANCH  13  15
HETATM   15  C10 UNL     1       7.409   2.571  18.430  1.00  0.00     0.222 C 
HETATM   16  O3  UNL     1       8.228   3.458  18.754  1.00  0.00    -0.273 OA
HETATM   17  N2  UNL     1       6.142   2.576  19.028  1.00  0.00    -0.356 N 
ATOM     18  H2  UNL     1       5.483   1.848  18.755  1.00  0.00     0.162 HD
BRANCH  17  19
HETATM   19  C11 UNL     1       5.707   3.549  20.011  1.00  0.00     0.084 C 
HETATM   20  C12 UNL     1       5.105   4.704  19.300  1.00  0.00     0.025 C 
HETATM   21  C13 UNL     1       4.034   5.458  20.006  1.00  0.00     0.007 C 
HETATM   22  C14 UNL     1       4.207   5.232  21.485  1.00  0.00    -0.013 C 
HETATM   23  C26 UNL     1       3.866   3.769  21.710  1.00  0.00     0.007 C 
HETATM   24  C27 UNL     1       4.850   2.864  21.015  1.00  0.00     0.025 C 
BRANCH  22  25
HETATM   25  C15 UNL     1       3.356   6.067  22.371  1.00  0.00     0.024 C 
BRANCH  25  26
HETATM   26  C16 UNL     1       3.790   7.489  22.308  1.00  0.00     0.117 C 
BRANCH  26  27
HETATM   27  N3  UNL     1       5.099   7.743  22.840  1.00  0.00    -0.409 N 
HETATM   28  C17 UNL     1       6.023   8.366  21.958  1.00  0.00     0.136 C 
HETATM   29  C18 UNL     1       7.418   7.864  22.366  1.00  0.00     0.144 C 
HETATM   30  N4  UNL     1       7.609   8.377  23.726  1.00  0.00    -0.362 N 
HETATM   31  C24 UNL     1       6.461   9.065  24.286  1.00  0.00     0.144 C 
HETATM   32  C25 UNL     1       5.173   8.284  24.142  1.00  0.00     0.136 C 
BRANCH  30  33
HETATM   33  C19 UNL     1       8.812   8.222  24.442  1.00  0.00     0.142 A 
HETATM   34  N5  UNL     1       8.767   7.621  25.643  1.00  0.00    -0.348 N 
HETATM   35  C20 UNL     1       9.882   7.436  26.387  1.00  0.00     0.113 A 
ATOM     36  H5  UNL     1       7.870   7.295  26.002  1.00  0.00     0.167 HD
HETATM   37  C21 UNL     1      11.099   7.869  25.920  1.00  0.00     0.052 A 
HETATM   38 CL1  UNL     1      12.581   7.650  26.858  1.00  0.00    -0.083 Cl
HETATM   39  C22 UNL     1      11.192   8.492  24.692  1.00  0.00     0.071 A 
HETATM   40  C23 UNL     1      10.012   8.654  23.970  1.00  0.00     0.161 A 
HETATM   41  F1  UNL     1      10.069   9.257  22.768  1.00  0.00    -0.202 F 
ENDBRANCH  30  33
ENDBRANCH  26  27
ENDBRANCH  25  26
ENDBRANCH  22  25
ENDBRANCH  17  19
ENDBRANCH  13  15
ENDBRANCH   6   7
ENDBRANCH   3   6
TORSDOF 8
ENDMDL
MODEL 2
REMARK VINA RESULT: -8.950828557      1.821      2.121
REMARK  8 active torsions:
REMARK  status: ('A' for Active; 'I' for Inactive)
REMARK    1  A    between atoms: C3_3  and  O1_6 
REMARK    2  A    between atoms: O1_6  and  C6_7 
REMARK       I    between atoms: C6_7  and  N1_9 
REMARK    3  A    between atoms: C9_12  and  C10_13 
REMARK       I    between atoms: C10_13  and  N2_15 
REMARK    4  A    between atoms: N2_15  and  C11_17 
REMARK    5  A    between atoms: C14_20  and  C15_21 
REMARK    6  A    between atoms: C15_21  and  C16_22 
REMARK    7  A    between atoms: C16_22  and  N3_23 
REMARK    8  A    between atoms: N4_26  and  C19_27 
ROOT
HETATM    1  C1  UNL     1       9.232  -5.149  15.671  1.00  0.00     0.015 C 
HETATM    2  C2  UNL     1       9.840  -4.223  15.239  1.00  0.00    -0.079 C 
HETATM    3  C3  UNL     1      10.572  -3.059  14.699  1.00  0.00     0.127 C 
HETATM    4  C4  UNL     1      10.193  -2.970  13.219  1.00  0.00     0.061 C 
HETATM    5  C5  UNL     1      12.053  -3.224  14.799  1.00  0.00     0.061 C 
ENDROOT
BRANCH   3   6
HETATM    6  O1  UNL     1      10.090  -1.876  15.305  1.00  0.00    -0.280 OA
BRANCH   6   7
HETATM    7  C6  UNL     1       8.851  -1.306  14.963  1.00  0.00     0.364 C 
HETATM    8  O2  UNL     1       8.008  -2.083  14.452  1.00  0.00    -0.238 OA
HETATM    9  N1  UNL     1       8.595   0.074  15.191  1.00  0.00    -0.328 N 
HETATM   10  C7  UNL     1       7.347   0.713  14.863  1.00  0.00     0.129 C 
HETATM   11  C29 UNL     1       9.633   0.892  15.780  1.00  0.00     0.129 C 
HETATM   12  C8  UNL     1       7.386   2.098  15.523  1.00  0.00     0.034 C 
HETATM   13  C9  UNL     1       7.709   1.842  16.980  1.00  0.00     0.081 C 
HETATM   14  C28 UNL     1       9.199   1.541  17.061  1.00  0.00     0.034 C 
BRANCH  13  15
HETATM   15  C10 UNL     1       7.359   2.999  17.833  1.00  0.00     0.222 C 
HETATM   16  O3  UNL     1       8.037   3.217  18.860  1.00  0.00    -0.273 OA
HETATM   17  N2  UNL     1       6.297   3.863  17.535  1.00  0.00    -0.356 N 
ATOM     18  H2  UNL     1       5.752   3.675  16.693  1.00  0.00     0.162 HD
BRANCH  17  19
HETATM   19  C11 UNL     1       5.922   5.007  18.343  1.00  0.00     0.084 C 
HETATM   20  C12 UNL     1       6.517   6.226  17.743  1.00  0.00     0.025 C 
HETATM   21  C13 UNL     1       5.785   7.508  17.932  1.00  0.00     0.007 C 
HETATM   22  C14 UNL     1       4.923   7.371  19.159  1.00  0.00    -0.013 C 
HETATM   23  C26 UNL     1       3.850   6.363  18.785  1.00  0.00     0.007 C 
HETATM   24  C27 UNL     1       4.446   5.004  18.519  1.00  0.00     0.025 C 
BRANCH  22  25
HETATM   25  C15 UNL     1       4.267   8.617  19.632  1.00  0.00     0.024 C 
BRANCH  25  26
HETATM   26  C16 UNL     1       5.253   9.733  19.670  1.00  0.00     0.117 C 
BRANCH  26  27
HETATM   27  N3  UNL     1       6.285   9.591  20.659  1.00  0.00    -0.409 N 
HETATM   28  C17 UNL     1       7.620   9.725  20.193  1.00  0.00     0.136 C 
HETATM   29  C18 UNL     1       8.487   8.835  21.099  1.00  0.00     0.144 C 
HETATM   30  N4  UNL     1       8.364   9.437  22.430  1.00  0.00    -0.362 N 
HETATM   31  C24 UNL     1       7.439  10.551  22.514  1.00  0.00     0.144 C 
HETATM   32  C25 UNL     1       6.092  10.251  21.892  1.00  0.00     0.136 C 
BRANCH  30  33
HETATM   33  C19 UNL     1       9.087   8.979  23.549  1.00  0.00     0.142 A 
HETATM   34  N5  UNL     1      10.426   9.097  23.536  1.00  0.00    -0.348 N 
HETATM   35  C20 UNL     1      11.186   8.679  24.575  1.00  0.00     0.113 A 
ATOM     36  H5  UNL     1      10.880   9.511  22.723  1.00  0.00     0.167 HD
HETATM   37  C21 UNL     1      10.592   8.118  25.679  1.00  0.00     0.052 A 
HETATM   38 CL1  UNL     1      11.544   7.558  27.058  1.00  0.00    -0.083 Cl
HETATM   39  C22 UNL     1       9.219   7.977  25.735  1.00  0.00     0.071 A 
HETATM   40  C23 UNL     1       8.488   8.425  24.637  1.00  0.00     0.161 A 
HETATM   41  F1  UNL     1       7.148   8.301  24.661  1.00  0.00    -0.202 F 
ENDBRANCH  30  33
ENDBRANCH  26  27
ENDBRANCH  25  26
ENDBRANCH  22  25
ENDBRANCH  17  19
ENDBRANCH  13  15
ENDBRANCH   6   7
ENDBRANCH   3   6
TORSDOF 8
ENDMDL
MODEL 3
REMARK VINA RESULT: -8.437918188      5.608     12.515
REMARK  8 active torsions:
REMARK  status: ('A' for Active; 'I' for Inactive)
REMARK    1  A    between atoms: C3_3  and  O1_6 
REMARK    2  A    between atoms: O1_6  and  C6_7 
REMARK       I    between atoms: C6_7  and  N1_9 
REMARK    3  A    between atoms: C9_12  and  C10_13 
REMARK       I    between atoms: C10_13  and  N2_15 
REMARK    4  A    between atoms: N2_15  and  C11_17 
REMARK    5  A    between atoms: C14_20  and  C15_21 
REMARK    6  A    between atoms: C15_21  and  C16_22 
REMARK    7  A    between atoms: C16_22  and  N3_23 
REMARK    8  A    between atoms: N4_26  and  C19_27 
ROOT
HETATM    1  C1  UNL     1       2.534   9.674  21.790  1.00  0.00     0.015 C 
HETATM    2  C2  UNL     1       3.227   9.565  22.749  1.00  0.00    -0.079 C 
HETATM    3  C3  UNL     1       4.110   9.425  23.926  1.00  0.00     0.127 C 
HETATM    4  C4  UNL     1       4.501   7.947  23.988  1.00  0.00     0.061 C 
HETATM    5  C5  UNL     1       3.419   9.786  25.199  1.00  0.00     0.061 C 
ENDROOT
BRANCH   3   6
HETATM    6  O1  UNL     1       5.308  10.144  23.705  1.00  0.00    -0.280 OA
BRANCH   6   7
HETATM    7  C6  UNL     1       6.553   9.508  23.567  1.00  0.00     0.364 C 
HETATM    8  O2  UNL     1       7.163   9.250  24.633  1.00  0.00    -0.238 OA
HETATM    9  N1  UNL     1       7.070   9.188  22.281  1.00  0.00    -0.328 N 
HETATM   10  C7  UNL     1       8.337   8.536  22.078  1.00  0.00     0.129 C 
HETATM   11  C29 UNL     1       6.295   9.531  21.109  1.00  0.00     0.129 C 
HETATM   12  C8  UNL     1       8.376   8.124  20.599  1.00  0.00     0.034 C 
HETATM   13  C9  UNL     1       7.108   7.331  20.366  1.00  0.00     0.081 C 
HETATM   14  C28 UNL     1       5.968   8.335  20.264  1.00  0.00     0.034 C 
BRANCH  13  15
HETATM   15  C10 UNL     1       7.191   6.503  19.143  1.00  0.00     0.222 C 
HETATM   16  O3  UNL     1       7.254   7.074  18.033  1.00  0.00    -0.273 OA
HETATM   17  N2  UNL     1       7.205   5.103  19.180  1.00  0.00    -0.356 N 
ATOM     18  H2  UNL     1       7.155   4.649  20.092  1.00  0.00     0.162 HD
BRANCH  17  19
HETATM   19  C11 UNL     1       7.287   4.256  18.006  1.00  0.00     0.084 C 
HETATM   20  C12 UNL     1       8.696   3.823  17.831  1.00  0.00     0.025 C 
HETATM   21  C13 UNL     1       8.930   2.502  17.188  1.00  0.00     0.007 C 
HETATM   22  C14 UNL     1       7.720   2.173  16.355  1.00  0.00    -0.013 C 
HETATM   23  C26 UNL     1       6.601   1.926  17.352  1.00  0.00     0.007 C 
HETATM   24  C27 UNL     1       6.269   3.178  18.123  1.00  0.00     0.025 C 
BRANCH  22  25
HETATM   25  C15 UNL     1       7.846   0.985  15.471  1.00  0.00     0.024 C 
BRANCH  25  26
HETATM   26  C16 UNL     1       6.503   0.560  14.988  1.00  0.00     0.117 C 
BRANCH  26  27
HETATM   27  N3  UNL     1       5.922   1.418  13.994  1.00  0.00    -0.409 N 
HETATM   28  C17 UNL     1       5.719   0.842  12.711  1.00  0.00     0.136 C 
HETATM   29  C18 UNL     1       5.852   1.988  11.695  1.00  0.00     0.144 C 
HETATM   30  N4  UNL     1       4.741   2.890  12.013  1.00  0.00    -0.362 N 
HETATM   31  C24 UNL     1       3.966   2.517  13.181  1.00  0.00     0.144 C 
HETATM   32  C25 UNL     1       4.824   2.212  14.389  1.00  0.00     0.136 C 
BRANCH  30  33
HETATM   33  C19 UNL     1       4.440   4.034  11.249  1.00  0.00     0.142 A 
HETATM   34  N5  UNL     1       3.492   3.937  10.300  1.00  0.00    -0.348 N 
HETATM   35  C20 UNL     1       3.148   4.993   9.528  1.00  0.00     0.113 A 
ATOM     36  H5  UNL     1       3.020   3.044  10.159  1.00  0.00     0.167 HD
HETATM   37  C21 UNL     1       3.774   6.204   9.702  1.00  0.00     0.052 A 
HETATM   38 CL1  UNL     1       3.358   7.610   8.716  1.00  0.00    -0.083 Cl
HETATM   39  C22 UNL     1       4.753   6.350  10.664  1.00  0.00     0.071 A 
HETATM   40  C23 UNL     1       5.064   5.228  11.430  1.00  0.00     0.161 A 
HETATM   41  F1  UNL     1       6.015   5.338  12.376  1.00  0.00    -0.202 F 
ENDBRANCH  30  33
ENDBRANCH  26  27
ENDBRANCH  25  26
ENDBRANCH  22  25
ENDBRANCH  17  19
ENDBRANCH  13  15
ENDBRANCH   6   7
ENDBRANCH   3   6
TORSDOF 8
ENDMDL
MODEL 4
REMARK VINA RESULT: -8.245485446      4.534     11.229
REMARK  8 active torsions:
REMARK  status: ('A' for Active; 'I' for Inactive)
REMARK    1  A    between atoms: C3_3  and  O1_6 
REMARK    2  A    between atoms: O1_6  and  C6_7 
REMARK       I    between atoms: C6_7  and  N1_9 
REMARK    3  A    between atoms: C9_12  and  C10_13 
REMARK       I    between atoms: C10_13  and  N2_15 
REMARK    4  A    between atoms: N2_15  and  C11_17 
REMARK    5  A    between atoms: C14_20  and  C15_21 
REMARK    6  A    between atoms: C15_21  and  C16_22 
REMARK    7  A    between atoms: C16_22  and  N3_23 
REMARK    8  A    between atoms: N4_26  and  C19_27 
ROOT
HETATM    1  C1  UNL     1      10.318   9.056  25.193  1.00  0.00     0.015 C 
HETATM    2  C2  UNL     1       9.356   8.929  24.507  1.00  0.00    -0.079 C 
HETATM    3  C3  UNL     1       8.174   8.777  23.633  1.00  0.00     0.127 C 
HETATM    4  C4  UNL     1       7.803  10.190  23.174  1.00  0.00     0.061 C 
HETATM    5  C5  UNL     1       7.006   8.192  24.355  1.00  0.00     0.061 C 
ENDROOT
BRANCH   3   6
HETATM    6  O1  UNL     1       8.538   8.063  22.468  1.00  0.00    -0.280 OA
BRANCH   6   7
HETATM    7  C6  UNL     1       8.562   8.660  21.196  1.00  0.00     0.364 C 
HETATM    8  O2  UNL     1       9.522   9.436  20.967  1.00  0.00    -0.238 OA
HETATM    9  N1  UNL     1       7.543   8.386  20.242  1.00  0.00    -0.328 N 
HETATM   10  C7  UNL     1       7.514   8.966  18.925  1.00  0.00     0.129 C 
HETATM   11  C29 UNL     1       6.472   7.482  20.601  1.00  0.00     0.129 C 
HETATM   12  C8  UNL     1       6.441   8.199  18.140  1.00  0.00     0.034 C 
HETATM   13  C9  UNL     1       6.804   6.736  18.281  1.00  0.00     0.081 C 
HETATM   14  C28 UNL     1       6.379   6.303  19.677  1.00  0.00     0.034 C 
BRANCH  13  15
HETATM   15  C10 UNL     1       6.148   5.904  17.249  1.00  0.00     0.222 C 
HETATM   16  O3  UNL     1       5.862   4.718  17.524  1.00  0.00    -0.273 OA
HETATM   17  N2  UNL     1       5.832   6.392  15.974  1.00  0.00    -0.356 N 
ATOM     18  H2  UNL     1       6.069   7.361  15.763  1.00  0.00     0.162 HD
BRANCH  17  19
HETATM   19  C11 UNL     1       5.189   5.610  14.936  1.00  0.00     0.084 C 
HETATM   20  C12 UNL     1       3.739   5.926  14.934  1.00  0.00     0.025 C 
HETATM   21  C13 UNL     1       3.019   5.819  13.637  1.00  0.00     0.007 C 
HETATM   22  C14 UNL     1       3.791   4.874  12.755  1.00  0.00    -0.013 C 
HETATM   23  C26 UNL     1       5.083   5.600  12.423  1.00  0.00     0.007 C 
HETATM   24  C27 UNL     1       5.918   5.822  13.658  1.00  0.00     0.025 C 
BRANCH  22  25
HETATM   25  C15 UNL     1       3.123   4.478  11.489  1.00  0.00     0.024 C 
BRANCH  25  26
HETATM   26  C16 UNL     1       3.383   3.041  11.198  1.00  0.00     0.117 C 
BRANCH  26  27
HETATM   27  N3  UNL     1       4.358   2.422  12.051  1.00  0.00    -0.409 N 
HETATM   28  C17 UNL     1       3.867   1.443  12.956  1.00  0.00     0.136 C 
HETATM   29  C18 UNL     1       4.784   1.492  14.189  1.00  0.00     0.144 C 
HETATM   30  N4  UNL     1       6.098   1.084  13.684  1.00  0.00    -0.362 N 
HETATM   31  C24 UNL     1       6.165   0.875  12.250  1.00  0.00     0.144 C 
HETATM   32  C25 UNL     1       5.574   2.021  11.457  1.00  0.00     0.136 C 
BRANCH  30  33
HETATM   33  C19 UNL     1       7.218   0.902  14.520  1.00  0.00     0.142 A 
HETATM   34  N5  UNL     1       7.823  -0.298  14.526  1.00  0.00    -0.348 N 
HETATM   35  C20 UNL     1       8.903  -0.546  15.301  1.00  0.00     0.113 A 
ATOM     36  H5  UNL     1       7.458  -1.041  13.929  1.00  0.00     0.167 HD
HETATM   37  C21 UNL     1       9.408   0.441  16.111  1.00  0.00     0.052 A 
HETATM   38 CL1  UNL     1      10.817   0.163  17.141  1.00  0.00    -0.083 Cl
HETATM   39  C22 UNL     1       8.819   1.690  16.138  1.00  0.00     0.071 A 
HETATM   40  C23 UNL     1       7.710   1.887  15.317  1.00  0.00     0.161 A 
HETATM   41  F1  UNL     1       7.113   3.093  15.320  1.00  0.00    -0.202 F 
ENDBRANCH  30  33
ENDBRANCH  26  27
ENDBRANCH  25  26
ENDBRANCH  22  25
ENDBRANCH  17  19
ENDBRANCH  13  15
ENDBRANCH   6   7
ENDBRANCH   3   6
TORSDOF 8
ENDMDL
MODEL 5
REMARK VINA RESULT: -8.225332056      4.761     11.442
REMARK  8 active torsions:
REMARK  status: ('A' for Active; 'I' for Inactive)
REMARK    1  A    between atoms: C3_3  and  O1_6 
REMARK    2  A    between atoms: O1_6  and  C6_7 
REMARK       I    between atoms: C6_7  and  N1_9 
REMARK    3  A    between atoms: C9_12  and  C10_13 
REMARK       I    between atoms: C10_13  and  N2_15 
REMARK    4  A    between atoms: N2_15  and  C11_17 
REMARK    5  A    between atoms: C14_20  and  C15_21 
REMARK    6  A    between atoms: C15_21  and  C16_22 
REMARK    7  A    between atoms: C16_22  and  N3_23 
REMARK    8  A    between atoms: N4_26  and  C19_27 
ROOT
HETATM    1  C1  UNL     1       2.203   9.439  21.735  1.00  0.00     0.015 C 
HETATM    2  C2  UNL     1       2.910   9.418  22.690  1.00  0.00    -0.079 C 
HETATM    3  C3  UNL     1       3.811   9.389  23.862  1.00  0.00     0.127 C 
HETATM    4  C4  UNL     1       4.280   7.938  23.998  1.00  0.00     0.061 C 
HETATM    5  C5  UNL     1       3.114   9.781  25.122  1.00  0.00     0.061 C 
ENDROOT
BRANCH   3   6
HETATM    6  O1  UNL     1       4.966  10.157  23.588  1.00  0.00    -0.280 OA
BRANCH   6   7
HETATM    7  C6  UNL     1       6.248   9.586  23.513  1.00  0.00     0.364 C 
HETATM    8  O2  UNL     1       6.854   9.443  24.603  1.00  0.00    -0.238 OA
HETATM    9  N1  UNL     1       6.805   9.204  22.261  1.00  0.00    -0.328 N 
HETATM   10  C7  UNL     1       8.111   8.615  22.122  1.00  0.00     0.129 C 
HETATM   11  C29 UNL     1       6.032   9.415  21.057  1.00  0.00     0.129 C 
HETATM   12  C8  UNL     1       8.199   8.099  20.679  1.00  0.00     0.034 C 
HETATM   13  C9  UNL     1       6.982   7.219  20.488  1.00  0.00     0.081 C 
HETATM   14  C28 UNL     1       5.788   8.144  20.298  1.00  0.00     0.034 C 
BRANCH  13  15
HETATM   15  C10 UNL     1       7.134   6.311  19.331  1.00  0.00     0.222 C 
HETATM   16  O3  UNL     1       7.136   6.797  18.180  1.00  0.00    -0.273 OA
HETATM   17  N2  UNL     1       7.278   4.924  19.474  1.00  0.00    -0.356 N 
ATOM     18  H2  UNL     1       7.276   4.540  20.418  1.00  0.00     0.162 HD
BRANCH  17  19
HETATM   19  C11 UNL     1       7.430   4.000  18.367  1.00  0.00     0.084 C 
HETATM   20  C12 UNL     1       8.864   3.944  17.990  1.00  0.00     0.025 C 
HETATM   21  C13 UNL     1       9.370   2.669  17.413  1.00  0.00     0.007 C 
HETATM   22  C14 UNL     1       8.197   1.934  16.820  1.00  0.00    -0.013 C 
HETATM   23  C26 UNL     1       7.346   1.513  18.006  1.00  0.00     0.007 C 
HETATM   24  C27 UNL     1       6.786   2.710  18.729  1.00  0.00     0.025 C 
BRANCH  22  25
HETATM   25  C15 UNL     1       8.529   0.730  16.015  1.00  0.00     0.024 C 
BRANCH  25  26
HETATM   26  C16 UNL     1       7.493   0.511  14.968  1.00  0.00     0.117 C 
BRANCH  26  27
HETATM   27  N3  UNL     1       6.458   1.505  14.929  1.00  0.00    -0.409 N 
HETATM   28  C17 UNL     1       6.411   2.315  13.762  1.00  0.00     0.136 C 
HETATM   29  C18 UNL     1       5.854   3.678  14.202  1.00  0.00     0.144 C 
HETATM   30  N4  UNL     1       4.491   3.388  14.657  1.00  0.00    -0.362 N 
HETATM   31  C24 UNL     1       4.135   1.982  14.661  1.00  0.00     0.144 C 
HETATM   32  C25 UNL     1       5.167   1.111  15.343  1.00  0.00     0.136 C 
BRANCH  30  33
HETATM   33  C19 UNL     1       3.587   4.390  15.060  1.00  0.00     0.142 A 
HETATM   34  N5  UNL     1       2.808   4.961  14.126  1.00  0.00    -0.348 N 
HETATM   35  C20 UNL     1       1.916   5.929  14.438  1.00  0.00     0.113 A 
ATOM     36  H5  UNL     1       2.891   4.656  13.156  1.00  0.00     0.167 HD
HETATM   37  C21 UNL     1       1.790   6.353  15.738  1.00  0.00     0.052 A 
HETATM   38 CL1  UNL     1       0.639   7.615  16.193  1.00  0.00    -0.083 Cl
HETATM   39  C22 UNL     1       2.570   5.795  16.732  1.00  0.00     0.071 A 
HETATM   40  C23 UNL     1       3.470   4.802  16.351  1.00  0.00     0.161 A 
HETATM   41  F1  UNL     1       4.245   4.238  17.296  1.00  0.00    -0.202 F 
ENDBRANCH  30  33
ENDBRANCH  26  27
ENDBRANCH  25  26
ENDBRANCH  22  25
ENDBRANCH  17  19
ENDBRANCH  13  15
ENDBRANCH   6   7
ENDBRANCH   3   6
TORSDOF 8
ENDMDL
