MODEL 1
REMARK VINA RESULT: -9.428566161      0.000      0.000
REMARK  13 active torsions:
REMARK  status: ('A' for Active; 'I' for Inactive)
REMARK    1  A    between atoms: C2_3  and  C3_4 
REMARK    2  A    between atoms: C3_4  and  O2_6 
REMARK    3  A    between atoms: O2_6  and  C4_7 
REMARK    4  A    between atoms: C4_7  and  O3_8 
REMARK    5  A    between atoms: O3_8  and  C5_9 
REMARK    6  A    between atoms: C6_14  and  C7_15 
REMARK    7  A    between atoms: N4_16  and  N5_18 
REMARK    8  A    between atoms: N5_18  and  C8_20 
REMARK    9  A    between atoms: C9_21  and  N6_22 
REMARK   10  A    between atoms: N8_29  and  O4_30 
REMARK   11  A    between atoms: N9_32  and  O5_33 
REMARK   12  A    between atoms: N11_38  and  N12_39 
REMARK   13  A    between atoms: C13_42  and  N13_43 
ROOT
HETATM    1  C7  UNL     1      84.329  46.262   2.722  1.00  0.00     0.142 C 
HETATM    2  N4  UNL     1      83.292  46.288   3.377  1.00  0.00    -0.308 N 
ATOM      3  H4  UNL     1      83.164  45.358   3.775  1.00  0.00     0.186 HD
ENDROOT
BRANCH   1   4
HETATM    4  C6  UNL     1      84.998  47.310   1.936  1.00  0.00     0.124 A 
HETATM    5  C2  UNL     1      85.136  48.627   2.372  1.00  0.00     0.157 A 
HETATM    6  N1  UNL     1      85.801  49.254   1.367  1.00  0.00    -0.178 N 
HETATM    7  C1  UNL     1      86.169  50.670   1.390  1.00  0.00     0.176 C 
HETATM    8  C13 UNL     1      86.074  48.435   0.372  1.00  0.00     0.699 A 
HETATM    9  N11 UNL     1      85.575  47.237   0.733  1.00  0.00    -0.089 N 
BRANCH   5  10
HETATM   10  C3  UNL     1      84.701  49.271   3.597  1.00  0.00     0.315 C 
HETATM   11  O1  UNL     1      83.441  49.431   3.791  1.00  0.00    -0.257 OA
BRANCH  10  12
HETATM   12  O2  UNL     1      85.486  49.748   4.610  1.00  0.00    -0.290 OA
BRANCH  12  13
HETATM   13  C4  UNL     1      86.612  50.571   4.437  1.00  0.00     0.358 C 
BRANCH  13  14
HETATM   14  O3  UNL     1      86.285  51.944   4.441  1.00  0.00    -0.298 OA
BRANCH  14  15
HETATM   15  C5  UNL     1      87.338  52.848   4.422  1.00  0.00     0.227 C 
HETATM   16  N2  UNL     1      88.566  52.459   4.399  1.00  0.00    -0.368 N 
ATOM     17  H22 UNL     1      88.729  51.452   4.395  1.00  0.00     0.159 HD
ATOM     18  H21 UNL     1      89.340  53.123   4.385  1.00  0.00     0.159 HD
HETATM   19  N3  UNL     1      87.108  54.267   4.428  1.00  0.00    -0.057 NA
ENDBRANCH  14  15
ENDBRANCH  13  14
ENDBRANCH  12  13
ENDBRANCH  10  12
ENDBRANCH   5  10
BRANCH   8  20
HETATM   20  N13 UNL     1      86.687  48.668  -0.738  1.00  0.00    -0.233 N 
ATOM     21 2H13 UNL     1      86.453  49.425  -1.380  1.00  0.00     0.174 HD
ATOM     22 1H13 UNL     1      87.472  48.174  -1.161  1.00  0.00     0.174 HD
ENDBRANCH   8  20
BRANCH   9  23
HETATM   23  N12 UNL     1      85.677  46.115  -0.079  1.00  0.00    -0.324 N 
ATOM     24 2H12 UNL     1      86.415  45.420   0.040  1.00  0.00     0.178 HD
ATOM     25 1H12 UNL     1      85.063  45.859  -0.852  1.00  0.00     0.178 HD
ENDBRANCH   9  23
ENDBRANCH   1   4
BRANCH   2  26
HETATM   26  N5  UNL     1      82.276  47.026   3.777  1.00  0.00    -0.281 N 
ATOM     27  H5  UNL     1      82.536  47.809   4.377  1.00  0.00     0.188 HD
BRANCH  26  28
HETATM   28  C8  UNL     1      81.030  46.935   3.546  1.00  0.00     0.193 A 
HETATM   29  C9  UNL     1      80.172  46.575   4.556  1.00  0.00     0.149 A 
HETATM   30  N7  UNL     1      78.828  46.469   4.338  1.00  0.00    -0.323 N 
HETATM   31  C10 UNL     1      78.356  46.728   3.104  1.00  0.00     0.153 A 
ATOM     32  H7  UNL     1      78.196  46.201   5.092  1.00  0.00     0.169 HD
HETATM   33  C11 UNL     1      79.194  47.091   2.073  1.00  0.00     0.202 A 
HETATM   34  N10 UNL     1      77.018  46.697   2.591  1.00  0.00    -0.355 N 
HETATM   35  N8  UNL     1      80.532  47.186   2.328  1.00  0.00    -0.180 N 
HETATM   36  N9  UNL     1      78.425  47.301   0.885  1.00  0.00    -0.221 N 
HETATM   37  C12 UNL     1      77.020  47.225   1.235  1.00  0.00     0.281 C 
ATOM     38  H10 UNL     1      76.198  46.360   3.094  1.00  0.00     0.163 HD
BRANCH  29  39
HETATM   39  N6  UNL     1      80.664  46.337   5.721  1.00  0.00    -0.382 N 
ATOM     40  H62 UNL     1      81.102  47.085   6.259  1.00  0.00     0.157 HD
ATOM     41  H61 UNL     1      80.604  45.387   6.088  1.00  0.00     0.157 HD
ENDBRANCH  29  39
BRANCH  35  42
HETATM   42  O4  UNL     1      81.336  47.550   1.279  1.00  0.00    -0.279 OA
ATOM     43  H4  UNL     1      80.983  47.718   0.413  1.00  0.00     0.245 HD
ENDBRANCH  35  42
BRANCH  36  44
HETATM   44  O5  UNL     1      78.894  47.534  -0.367  1.00  0.00    -0.284 OA
ATOM     45  H5  UNL     1      78.451  47.995  -1.071  1.00  0.00     0.245 HD
ENDBRANCH  36  44
ENDBRANCH  26  28
ENDBRANCH   2  26
TORSDOF 13
ENDMDL
MODEL 2
REMARK VINA RESULT: -9.347034405      1.306      1.667
REMARK  13 active torsions:
REMARK  status: ('A' for Active; 'I' for Inactive)
REMARK    1  A    between atoms: C2_3  and  C3_4 
REMARK    2  A    between atoms: C3_4  and  O2_6 
REMARK    3  A    between atoms: O2_6  and  C4_7 
REMARK    4  A    between atoms: C4_7  and  O3_8 
REMARK    5  A    between atoms: O3_8  and  C5_9 
REMARK    6  A    between atoms: C6_14  and  C7_15 
REMARK    7  A    between atoms: N4_16  and  N5_18 
REMARK    8  A    between atoms: N5_18  and  C8_20 
REMARK    9  A    between atoms: C9_21  and  N6_22 
REMARK   10  A    between atoms: N8_29  and  O4_30 
REMARK   11  A    between atoms: N9_32  and  O5_33 
REMARK   12  A    between atoms: N11_38  and  N12_39 
REMARK   13  A    between atoms: C13_42  and  N13_43 
ROOT
HETATM    1  C7  UNL     1      83.746  48.511   3.809  1.00  0.00     0.142 C 
HETATM    2  N4  UNL     1      82.782  47.939   4.307  1.00  0.00    -0.308 N 
ATOM      3  H4  UNL     1      82.524  48.457   5.146  1.00  0.00     0.186 HD
ENDROOT
BRANCH   1   4
HETATM    4  C6  UNL     1      84.528  48.208   2.600  1.00  0.00     0.124 A 
HETATM    5  C2  UNL     1      85.451  49.092   2.042  1.00  0.00     0.157 A 
HETATM    6  N1  UNL     1      85.942  48.435   0.958  1.00  0.00    -0.178 N 
HETATM    7  C1  UNL     1      86.953  48.989   0.057  1.00  0.00     0.176 C 
HETATM    8  C13 UNL     1      85.398  47.244   0.817  1.00  0.00     0.699 A 
HETATM    9  N11 UNL     1      84.527  47.113   1.837  1.00  0.00    -0.089 N 
BRANCH   5  10
HETATM   10  C3  UNL     1      85.859  50.422   2.451  1.00  0.00     0.315 C 
HETATM   11  O1  UNL     1      85.270  51.433   1.920  1.00  0.00    -0.257 OA
BRANCH  10  12
HETATM   12  O2  UNL     1      86.823  50.753   3.362  1.00  0.00    -0.290 OA
BRANCH  12  13
HETATM   13  C4  UNL     1      86.801  51.898   4.177  1.00  0.00     0.358 C 
BRANCH  13  14
HETATM   14  O3  UNL     1      88.066  52.517   4.275  1.00  0.00    -0.298 OA
BRANCH  14  15
HETATM   15  C5  UNL     1      88.656  52.951   3.096  1.00  0.00     0.227 C 
HETATM   16  N2  UNL     1      87.960  53.191   2.038  1.00  0.00    -0.368 N 
ATOM     17  H22 UNL     1      86.953  53.047   2.108  1.00  0.00     0.159 HD
ATOM     18  H21 UNL     1      88.393  53.510   1.172  1.00  0.00     0.159 HD
HETATM   19  N3  UNL     1      90.076  53.154   2.998  1.00  0.00    -0.057 NA
ENDBRANCH  14  15
ENDBRANCH  13  14
ENDBRANCH  12  13
ENDBRANCH  10  12
ENDBRANCH   5  10
BRANCH   8  20
HETATM   20  N13 UNL     1      85.613  46.346  -0.082  1.00  0.00    -0.233 N 
ATOM     21 2H13 UNL     1      86.182  46.487  -0.917  1.00  0.00     0.174 HD
ATOM     22 1H13 UNL     1      85.277  45.384  -0.132  1.00  0.00     0.174 HD
ENDBRANCH   8  20
BRANCH   9  23
HETATM   23  N12 UNL     1      83.760  45.969   2.015  1.00  0.00    -0.324 N 
ATOM     24 2H12 UNL     1      82.822  45.998   2.415  1.00  0.00     0.178 HD
ATOM     25 1H12 UNL     1      84.023  45.012   1.784  1.00  0.00     0.178 HD
ENDBRANCH   9  23
ENDBRANCH   1   4
BRANCH   2  26
HETATM   26  N5  UNL     1      81.943  46.928   4.200  1.00  0.00    -0.281 N 
ATOM     27  H5  UNL     1      82.340  46.024   4.458  1.00  0.00     0.188 HD
BRANCH  26  28
HETATM   28  C8  UNL     1      80.728  46.880   3.832  1.00  0.00     0.193 A 
HETATM   29  C9  UNL     1      79.754  46.527   4.734  1.00  0.00     0.149 A 
HETATM   30  N7  UNL     1      78.439  46.467   4.367  1.00  0.00    -0.323 N 
HETATM   31  C10 UNL     1      78.114  46.764   3.095  1.00  0.00     0.153 A 
ATOM     32  H7  UNL     1      77.721  46.204   5.041  1.00  0.00     0.169 HD
HETATM   33  C11 UNL     1      79.071  47.120   2.171  1.00  0.00     0.202 A 
HETATM   34  N10 UNL     1      76.841  46.784   2.438  1.00  0.00    -0.355 N 
HETATM   35  N8  UNL     1      80.375  47.169   2.573  1.00  0.00    -0.180 N 
HETATM   36  N9  UNL     1      78.444  47.377   0.911  1.00  0.00    -0.221 N 
HETATM   37  C12 UNL     1      77.008  47.338   1.102  1.00  0.00     0.281 C 
ATOM     38  H10 UNL     1      75.961  46.463   2.841  1.00  0.00     0.163 HD
BRANCH  29  39
HETATM   39  N6  UNL     1      80.107  46.251   5.940  1.00  0.00    -0.382 N 
ATOM     40  H62 UNL     1      80.775  46.846   6.431  1.00  0.00     0.157 HD
ATOM     41  H61 UNL     1      79.705  45.428   6.387  1.00  0.00     0.157 HD
ENDBRANCH  29  39
BRANCH  35  42
HETATM   42  O4  UNL     1      81.299  47.529   1.627  1.00  0.00    -0.279 OA
ATOM     43  H4  UNL     1      81.147  47.391   0.700  1.00  0.00     0.245 HD
ENDBRANCH  35  42
BRANCH  36  44
HETATM   44  O5  UNL     1      79.054  47.620  -0.277  1.00  0.00    -0.284 OA
ATOM     45  H5  UNL     1      78.681  48.047  -1.039  1.00  0.00     0.245 HD
ENDBRANCH  36  44
ENDBRANCH  26  28
ENDBRANCH   2  26
TORSDOF 13
ENDMDL
MODEL 3
REMARK VINA RESULT: -9.288253723      2.631      8.791
REMARK  13 active torsions:
REMARK  status: ('A' for Active; 'I' for Inactive)
REMARK    1  A    between atoms: C2_3  and  C3_4 
REMARK    2  A    between atoms: C3_4  and  O2_6 
REMARK    3  A    between atoms: O2_6  and  C4_7 
REMARK    4  A    between atoms: C4_7  and  O3_8 
REMARK    5  A    between atoms: O3_8  and  C5_9 
REMARK    6  A    between atoms: C6_14  and  C7_15 
REMARK    7  A    between atoms: N4_16  and  N5_18 
REMARK    8  A    between atoms: N5_18  and  C8_20 
REMARK    9  A    between atoms: C9_21  and  N6_22 
REMARK   10  A    between atoms: N8_29  and  O4_30 
REMARK   11  A    between atoms: N9_32  and  O5_33 
REMARK   12  A    between atoms: N11_38  and  N12_39 
REMARK   13  A    between atoms: C13_42  and  N13_43 
ROOT
HETATM    1  C7  UNL     1      84.821  50.619   3.040  1.00  0.00     0.142 C 
HETATM    2  N4  UNL     1      85.774  51.387   3.114  1.00  0.00    -0.308 N 
ATOM      3  H4  UNL     1      85.414  52.284   3.439  1.00  0.00     0.186 HD
ENDROOT
BRANCH   1   4
HETATM    4  C6  UNL     1      84.751  49.208   2.632  1.00  0.00     0.124 A 
HETATM    5  C2  UNL     1      83.767  48.326   3.079  1.00  0.00     0.157 A 
HETATM    6  N1  UNL     1      84.061  47.147   2.473  1.00  0.00    -0.178 N 
HETATM    7  C1  UNL     1      83.284  45.921   2.653  1.00  0.00     0.176 C 
HETATM    8  C13 UNL     1      85.127  47.241   1.705  1.00  0.00     0.699 A 
HETATM    9  N11 UNL     1      85.545  48.518   1.809  1.00  0.00    -0.089 N 
BRANCH   5  10
HETATM   10  C3  UNL     1      82.652  48.530   3.983  1.00  0.00     0.315 C 
HETATM   11  O1  UNL     1      82.899  48.698   5.233  1.00  0.00    -0.257 OA
BRANCH  10  12
HETATM   12  O2  UNL     1      81.322  48.568   3.668  1.00  0.00    -0.290 OA
BRANCH  12  13
HETATM   13  C4  UNL     1      80.556  47.458   3.273  1.00  0.00     0.358 C 
BRANCH  13  14
HETATM   14  O3  UNL     1      79.435  47.249   4.105  1.00  0.00    -0.298 OA
BRANCH  14  15
HETATM   15  C5  UNL     1      79.674  46.761   5.382  1.00  0.00     0.227 C 
HETATM   16  N2  UNL     1      80.825  46.295   5.726  1.00  0.00    -0.368 N 
ATOM     17  H22 UNL     1      81.555  46.302   5.014  1.00  0.00     0.159 HD
ATOM     18  H21 UNL     1      81.001  45.937   6.665  1.00  0.00     0.159 HD
HETATM   19  N3  UNL     1      78.644  46.751   6.386  1.00  0.00    -0.057 NA
ENDBRANCH  14  15
ENDBRANCH  13  14
ENDBRANCH  12  13
ENDBRANCH  10  12
ENDBRANCH   5  10
BRANCH   8  20
HETATM   20  N13 UNL     1      85.698  46.341   0.980  1.00  0.00    -0.233 N 
ATOM     21 2H13 UNL     1      86.283  45.589   1.346  1.00  0.00     0.174 HD
ATOM     22 1H13 UNL     1      85.679  46.214  -0.031  1.00  0.00     0.174 HD
ENDBRANCH   8  20
BRANCH   9  23
HETATM   23  N12 UNL     1      86.659  48.991   1.129  1.00  0.00    -0.324 N 
ATOM     24 2H12 UNL     1      87.467  48.402   0.928  1.00  0.00     0.178 HD
ATOM     25 1H12 UNL     1      86.802  49.933   0.766  1.00  0.00     0.178 HD
ENDBRANCH   9  23
ENDBRANCH   1   4
BRANCH   2  26
HETATM   26  N5  UNL     1      87.074  51.528   2.944  1.00  0.00    -0.281 N 
ATOM     27  H5  UNL     1      87.589  50.649   2.899  1.00  0.00     0.188 HD
BRANCH  26  28
HETATM   28  C8  UNL     1      87.798  52.566   2.828  1.00  0.00     0.193 A 
HETATM   29  C9  UNL     1      88.691  52.892   3.818  1.00  0.00     0.149 A 
HETATM   30  N7  UNL     1      89.482  54.001   3.720  1.00  0.00    -0.323 N 
HETATM   31  C10 UNL     1      89.370  54.774   2.624  1.00  0.00     0.153 A 
ATOM     32  H7  UNL     1      90.143  54.238   4.460  1.00  0.00     0.169 HD
HETATM   33  C11 UNL     1      88.482  54.470   1.616  1.00  0.00     0.202 A 
HETATM   34  N10 UNL     1      90.057  55.976   2.256  1.00  0.00    -0.355 N 
HETATM   35  N8  UNL     1      87.707  53.354   1.749  1.00  0.00    -0.180 N 
HETATM   36  N9  UNL     1      88.576  55.457   0.585  1.00  0.00    -0.221 N 
HETATM   37  C12 UNL     1      89.694  56.328   0.891  1.00  0.00     0.281 C 
ATOM     38  H10 UNL     1      90.697  56.500   2.853  1.00  0.00     0.163 HD
BRANCH  29  39
HETATM   39  N6  UNL     1      88.767  52.126   4.849  1.00  0.00    -0.382 N 
ATOM     40  H62 UNL     1      88.183  51.292   4.918  1.00  0.00     0.157 HD
ATOM     41  H61 UNL     1      89.424  52.373   5.590  1.00  0.00     0.157 HD
ENDBRANCH  29  39
BRANCH  35  42
HETATM   42  O4  UNL     1      86.836  53.083   0.725  1.00  0.00    -0.279 OA
ATOM     43  H4  UNL     1      86.350  53.770   0.286  1.00  0.00     0.245 HD
ENDBRANCH  35  42
BRANCH  36  44
HETATM   44  O5  UNL     1      87.777  55.588  -0.505  1.00  0.00    -0.284 OA
ATOM     45  H5  UNL     1      87.300  56.362  -0.779  1.00  0.00     0.245 HD
ENDBRANCH  36  44
ENDBRANCH  26  28
ENDBRANCH   2  26
TORSDOF 13
ENDMDL
MODEL 4
REMARK VINA RESULT: -9.005730075      2.248      4.153
REMARK  13 active torsions:
REMARK  status: ('A' for Active; 'I' for Inactive)
REMARK    1  A    between atoms: C2_3  and  C3_4 
REMARK    2  A    between atoms: C3_4  and  O2_6 
REMARK    3  A    between atoms: O2_6  and  C4_7 
REMARK    4  A    between atoms: C4_7  and  O3_8 
REMARK    5  A    between atoms: O3_8  and  C5_9 
REMARK    6  A    between atoms: C6_14  and  C7_15 
REMARK    7  A    between atoms: N4_16  and  N5_18 
REMARK    8  A    between atoms: N5_18  and  C8_20 
REMARK    9  A    between atoms: C9_21  and  N6_22 
REMARK   10  A    between atoms: N8_29  and  O4_30 
REMARK   11  A    between atoms: N9_32  and  O5_33 
REMARK   12  A    between atoms: N11_38  and  N12_39 
REMARK   13  A    between atoms: C13_42  and  N13_43 
ROOT
HETATM    1  C7  UNL     1      83.068  46.609   3.028  1.00  0.00     0.142 C 
HETATM    2  N4  UNL     1      81.888  46.500   2.711  1.00  0.00    -0.308 N 
ATOM      3  H4  UNL     1      81.492  45.748   3.275  1.00  0.00     0.186 HD
ENDROOT
BRANCH   1   4
HETATM    4  C6  UNL     1      84.115  47.521   2.544  1.00  0.00     0.124 A 
HETATM    5  C2  UNL     1      84.339  48.788   3.083  1.00  0.00     0.157 A 
HETATM    6  N1  UNL     1      85.377  49.289   2.363  1.00  0.00    -0.178 N 
HETATM    7  C1  UNL     1      85.958  50.613   2.583  1.00  0.00     0.176 C 
HETATM    8  C13 UNL     1      85.794  48.440   1.447  1.00  0.00     0.699 A 
HETATM    9  N11 UNL     1      85.009  47.351   1.567  1.00  0.00    -0.089 N 
BRANCH   5  10
HETATM   10  C3  UNL     1      83.669  49.492   4.159  1.00  0.00     0.315 C 
HETATM   11  O1  UNL     1      84.223  49.507   5.319  1.00  0.00    -0.257 OA
BRANCH  10  12
HETATM   12  O2  UNL     1      82.482  50.167   4.100  1.00  0.00    -0.290 OA
BRANCH  12  13
HETATM   13  C4  UNL     1      81.401  49.974   4.979  1.00  0.00     0.358 C 
BRANCH  13  14
HETATM   14  O3  UNL     1      80.785  48.715   4.811  1.00  0.00    -0.298 OA
BRANCH  14  15
HETATM   15  C5  UNL     1      80.496  47.990   5.959  1.00  0.00     0.227 C 
HETATM   16  N2  UNL     1      79.328  48.016   6.501  1.00  0.00    -0.368 N 
ATOM     17  H22 UNL     1      78.623  48.595   6.046  1.00  0.00     0.159 HD
ATOM     18  H21 UNL     1      79.115  47.483   7.345  1.00  0.00     0.159 HD
HETATM   19  N3  UNL     1      81.491  47.174   6.600  1.00  0.00    -0.057 NA
ENDBRANCH  14  15
ENDBRANCH  13  14
ENDBRANCH  12  13
ENDBRANCH  10  12
ENDBRANCH   5  10
BRANCH   8  20
HETATM   20  N13 UNL     1      86.747  48.564   0.587  1.00  0.00    -0.233 N 
ATOM     21 2H13 UNL     1      87.361  47.805   0.291  1.00  0.00     0.174 HD
ATOM     22 1H13 UNL     1      87.052  49.389   0.071  1.00  0.00     0.174 HD
ENDBRANCH   8  20
BRANCH   9  23
HETATM   23  N12 UNL     1      85.159  46.235   0.754  1.00  0.00    -0.324 N 
ATOM     24 2H12 UNL     1      85.142  45.285   1.124  1.00  0.00     0.178 HD
ATOM     25 1H12 UNL     1      85.297  46.225  -0.256  1.00  0.00     0.178 HD
ENDBRANCH   9  23
ENDBRANCH   1   4
BRANCH   2  26
HETATM   26  N5  UNL     1      80.922  46.959   1.940  1.00  0.00    -0.281 N 
ATOM     27  H5  UNL     1      81.243  47.371   1.064  1.00  0.00     0.188 HD
BRANCH  26  28
HETATM   28  C8  UNL     1      79.661  46.978   2.096  1.00  0.00     0.193 A 
HETATM   29  C9  UNL     1      78.853  47.433   1.083  1.00  0.00     0.149 A 
HETATM   30  N7  UNL     1      77.495  47.466   1.222  1.00  0.00    -0.323 N 
HETATM   31  C10 UNL     1      76.958  47.040   2.381  1.00  0.00     0.153 A 
ATOM     32  H7  UNL     1      76.901  47.805   0.465  1.00  0.00     0.169 HD
HETATM   33  C11 UNL     1      77.745  46.579   3.413  1.00  0.00     0.202 A 
HETATM   34  N10 UNL     1      75.591  46.962   2.803  1.00  0.00    -0.355 N 
HETATM   35  N8  UNL     1      79.099  46.562   3.238  1.00  0.00    -0.180 N 
HETATM   36  N9  UNL     1      76.913  46.197   4.512  1.00  0.00    -0.221 N 
HETATM   37  C12 UNL     1      75.530  46.269   4.081  1.00  0.00     0.281 C 
ATOM     38  H10 UNL     1      74.791  47.331   2.290  1.00  0.00     0.163 HD
BRANCH  29  39
HETATM   39  N6  UNL     1      79.407  47.831  -0.009  1.00  0.00    -0.382 N 
ATOM     40  H62 UNL     1      79.787  47.154  -0.671  1.00  0.00     0.157 HD
ATOM     41  H61 UNL     1      79.453  48.833  -0.192  1.00  0.00     0.157 HD
ENDBRANCH  29  39
BRANCH  35  42
HETATM   42  O4  UNL     1      79.850  46.096   4.287  1.00  0.00    -0.279 OA
ATOM     43  H4  UNL     1      79.497  46.033   5.166  1.00  0.00     0.245 HD
ENDBRANCH  35  42
BRANCH  36  44
HETATM   44  O5  UNL     1      77.311  45.825   5.755  1.00  0.00    -0.284 OA
ATOM     45  H5  UNL     1      76.859  45.244   6.355  1.00  0.00     0.245 HD
ENDBRANCH  36  44
ENDBRANCH  26  28
ENDBRANCH   2  26
TORSDOF 13
ENDMDL
MODEL 5
REMARK VINA RESULT: -8.923037289      1.859      2.858
REMARK  13 active torsions:
REMARK  status: ('A' for Active; 'I' for Inactive)
REMARK    1  A    between atoms: C2_3  and  C3_4 
REMARK    2  A    between atoms: C3_4  and  O2_6 
REMARK    3  A    between atoms: O2_6  and  C4_7 
REMARK    4  A    between atoms: C4_7  and  O3_8 
REMARK    5  A    between atoms: O3_8  and  C5_9 
REMARK    6  A    between atoms: C6_14  and  C7_15 
REMARK    7  A    between atoms: N4_16  and  N5_18 
REMARK    8  A    between atoms: N5_18  and  C8_20 
REMARK    9  A    between atoms: C9_21  and  N6_22 
REMARK   10  A    between atoms: N8_29  and  O4_30 
REMARK   11  A    between atoms: N9_32  and  O5_33 
REMARK   12  A    between atoms: N11_38  and  N12_39 
REMARK   13  A    between atoms: C13_42  and  N13_43 
ROOT
HETATM    1  C7  UNL     1      84.441  45.929   2.233  1.00  0.00     0.142 C 
HETATM    2  N4  UNL     1      83.450  45.911   2.957  1.00  0.00    -0.308 N 
ATOM      3  H4  UNL     1      83.295  44.941   3.232  1.00  0.00     0.186 HD
ENDROOT
BRANCH   1   4
HETATM    4  C6  UNL     1      85.117  47.045   1.554  1.00  0.00     0.124 A 
HETATM    5  C2  UNL     1      85.319  48.293   2.143  1.00  0.00     0.157 A 
HETATM    6  N1  UNL     1      85.968  49.018   1.194  1.00  0.00    -0.178 N 
HETATM    7  C1  UNL     1      86.388  50.408   1.376  1.00  0.00     0.176 C 
HETATM    8  C13 UNL     1      86.172  48.321   0.096  1.00  0.00     0.699 A 
HETATM    9  N11 UNL     1      85.644  47.103   0.328  1.00  0.00    -0.089 N 
BRANCH   5  10
HETATM   10  C3  UNL     1      84.956  48.793   3.455  1.00  0.00     0.315 C 
HETATM   11  O1  UNL     1      85.812  48.691   4.408  1.00  0.00    -0.257 OA
BRANCH  10  12
HETATM   12  O2  UNL     1      83.778  49.379   3.825  1.00  0.00    -0.290 OA
BRANCH  12  13
HETATM   13  C4  UNL     1      83.417  49.699   5.145  1.00  0.00     0.358 C 
BRANCH  13  14
HETATM   14  O3  UNL     1      82.386  48.872   5.640  1.00  0.00    -0.298 OA
BRANCH  14  15
HETATM   15  C5  UNL     1      81.101  49.398   5.656  1.00  0.00     0.227 C 
HETATM   16  N2  UNL     1      80.868  50.627   5.346  1.00  0.00    -0.368 N 
ATOM     17  H22 UNL     1      81.673  51.197   5.088  1.00  0.00     0.159 HD
ATOM     18  H21 UNL     1      79.924  51.014   5.357  1.00  0.00     0.159 HD
HETATM   19  N3  UNL     1      79.966  48.594   6.019  1.00  0.00    -0.057 NA
ENDBRANCH  14  15
ENDBRANCH  13  14
ENDBRANCH  12  13
ENDBRANCH  10  12
ENDBRANCH   5  10
BRANCH   8  20
HETATM   20  N13 UNL     1      86.750  48.671  -1.002  1.00  0.00    -0.233 N 
ATOM     21 2H13 UNL     1      86.939  49.635  -1.275  1.00  0.00     0.174 HD
ATOM     22 1H13 UNL     1      87.106  48.090  -1.761  1.00  0.00     0.174 HD
ENDBRANCH   8  20
BRANCH   9  23
HETATM   23  N12 UNL     1      85.673  46.089  -0.619  1.00  0.00    -0.324 N 
ATOM     24 2H12 UNL     1      86.495  45.904  -1.195  1.00  0.00     0.178 HD
ATOM     25 1H12 UNL     1      84.921  45.439  -0.846  1.00  0.00     0.178 HD
ENDBRANCH   9  23
ENDBRANCH   1   4
BRANCH   2  26
HETATM   26  N5  UNL     1      82.504  46.632   3.524  1.00  0.00    -0.281 N 
ATOM     27  H5  UNL     1      82.843  47.296   4.221  1.00  0.00     0.188 HD
BRANCH  26  28
HETATM   28  C8  UNL     1      81.245  46.647   3.357  1.00  0.00     0.193 A 
HETATM   29  C9  UNL     1      80.415  46.246   4.375  1.00  0.00     0.149 A 
HETATM   30  N7  UNL     1      79.057  46.251   4.225  1.00  0.00    -0.323 N 
HETATM   31  C10 UNL     1      78.544  46.660   3.049  1.00  0.00     0.153 A 
ATOM     32  H7  UNL     1      78.446  45.951   4.985  1.00  0.00     0.169 HD
HETATM   33  C11 UNL     1      79.353  47.067   2.012  1.00  0.00     0.202 A 
HETATM   34  N10 UNL     1      77.183  46.768   2.613  1.00  0.00    -0.355 N 
HETATM   35  N8  UNL     1      80.705  47.048   2.199  1.00  0.00    -0.180 N 
HETATM   36  N9  UNL     1      78.543  47.444   0.895  1.00  0.00    -0.221 N 
HETATM   37  C12 UNL     1      77.155  47.427   1.315  1.00  0.00     0.281 C 
ATOM     38  H10 UNL     1      76.368  46.438   3.127  1.00  0.00     0.163 HD
BRANCH  29  39
HETATM   39  N6  UNL     1      80.946  45.862   5.482  1.00  0.00    -0.382 N 
ATOM     40  H62 UNL     1      80.369  45.455   6.218  1.00  0.00     0.157 HD
ATOM     41  H61 UNL     1      81.953  45.975   5.602  1.00  0.00     0.157 HD
ENDBRANCH  29  39
BRANCH  35  42
HETATM   42  O4  UNL     1      81.480  47.461   1.145  1.00  0.00    -0.279 OA
ATOM     43  H4  UNL     1      82.044  46.860   0.673  1.00  0.00     0.245 HD
ENDBRANCH  35  42
BRANCH  36  44
HETATM   44  O5  UNL     1      78.963  47.769  -0.354  1.00  0.00    -0.284 OA
ATOM     45  H5  UNL     1      78.424  47.997  -1.102  1.00  0.00     0.245 HD
ENDBRANCH  36  44
ENDBRANCH  26  28
ENDBRANCH   2  26
TORSDOF 13
ENDMDL
