MODEL 1
REMARK VINA RESULT: -8.515963668      0.000      0.000
REMARK  17 active torsions:
REMARK  status: ('A' for Active; 'I' for Inactive)
REMARK    1  A    between atoms: O1_2  and  C2_3 
REMARK    2  A    between atoms: C5_6  and  O2_7 
REMARK    3  A    between atoms: C11_17  and  N1_18 
REMARK       I    between atoms: N1_18  and  C12_20 
REMARK    4  A    between atoms: C12_20  and  C13_22 
REMARK    5  A    between atoms: C18_29  and  O8_30 
REMARK    6  A    between atoms: O8_30  and  C19_31 
REMARK    7  A    between atoms: C19_31  and  C21_33 
REMARK    8  A    between atoms: C19_31  and  C22_36 
REMARK    9  A    between atoms: C21_33  and  O9_34 
REMARK   10  A    between atoms: C22_36  and  O10_37 
REMARK   11  A    between atoms: C24_43  and  O12_44 
REMARK   12  A    between atoms: C26_47  and  C27_48 
REMARK   13  A    between atoms: C27_48  and  O13_49 
REMARK   14  A    between atoms: C27_48  and  O14_51 
REMARK   15  A    between atoms: C28_53  and  C29_54 
REMARK   16  A    between atoms: C29_54  and  O15_55 
REMARK   17  A    between atoms: O15_55  and  C30_56 
ROOT
HETATM    1  C2  UNL     1     -54.198  63.366  13.306  1.00  0.00     0.085 A 
HETATM    2  C3  UNL     1     -53.020  63.843  13.805  1.00  0.00     0.040 A 
HETATM    3  C4  UNL     1     -51.809  63.431  13.271  1.00  0.00     0.042 A 
HETATM    4  C5  UNL     1     -51.807  62.528  12.223  1.00  0.00     0.100 A 
HETATM    5  C6  UNL     1     -52.985  62.014  11.679  1.00  0.00     0.126 A 
HETATM    6  O3  UNL     1     -52.959  61.160  10.682  1.00  0.00    -0.303 OA
HETATM    7  C7  UNL     1     -54.075  60.690  10.186  1.00  0.00     0.122 A 
HETATM    8  C8  UNL     1     -55.290  61.090  10.707  1.00  0.00     0.157 A 
HETATM    9  C9  UNL     1     -55.359  61.993  11.763  1.00  0.00     0.224 A 
HETATM   10  O4  UNL     1     -56.451  62.375  12.260  1.00  0.00    -0.284 OA
HETATM   11  C10 UNL     1     -54.166  62.466  12.260  1.00  0.00     0.087 A 
HETATM   12  O5  UNL     1     -56.421  60.578  10.156  1.00  0.00    -0.315 OA
HETATM   13  C11 UNL     1     -56.494  59.633   9.134  1.00  0.00     0.266 A 
HETATM   14  C26 UNL     1     -55.178  59.263   8.590  1.00  0.00     0.034 A 
HETATM   15  C28 UNL     1     -54.058  59.727   9.064  1.00  0.00     0.014 A 
ENDROOT
BRANCH  13  16
HETATM   16  N1  UNL     1     -57.075  58.402   9.742  1.00  0.00    -0.326 N 
HETATM   17  C12 UNL     1     -58.142  58.427  10.659  1.00  0.00     0.256 C 
HETATM   18  O6  UNL     1     -58.650  59.502  11.010  1.00  0.00    -0.268 OA
ATOM     19  H1  UNL     1     -56.680  57.498   9.482  1.00  0.00     0.165 HD
BRANCH  17  20
HETATM   20  C13 UNL     1     -58.640  57.176  11.205  1.00  0.00     0.062 A 
HETATM   21  C14 UNL     1     -59.797  56.598  10.638  1.00  0.00     0.111 A 
HETATM   22  N2  UNL     1     -60.299  55.514  11.203  1.00  0.00    -0.327 N 
HETATM   23  C15 UNL     1     -61.501  54.899  10.611  1.00  0.00     0.159 C 
HETATM   24  C16 UNL     1     -59.818  54.879  12.284  1.00  0.00     0.262 A 
HETATM   25  O7  UNL     1     -60.405  53.855  12.735  1.00  0.00    -0.267 OA
HETATM   26  C17 UNL     1     -58.669  55.401  12.883  1.00  0.00     0.097 A 
HETATM   27  C18 UNL     1     -58.158  54.784  13.984  1.00  0.00     0.163 A 
HETATM   28  C25 UNL     1     -58.122  56.553  12.302  1.00  0.00     0.040 A 
HETATM   29  N3  UNL     1     -57.031  55.367  14.547  1.00  0.00    -0.301 N 
HETATM   30  C23 UNL     1     -56.479  56.467  14.024  1.00  0.00     0.281 A 
ATOM     31  H3  UNL     1     -56.614  54.947  15.378  1.00  0.00     0.171 HD
HETATM   32  O11 UNL     1     -55.442  56.987  14.556  1.00  0.00    -0.265 OA
HETATM   33  C24 UNL     1     -56.977  57.095  12.914  1.00  0.00     0.146 A 
BRANCH  27  34
HETATM   34  O8  UNL     1     -58.583  53.660  14.611  1.00  0.00    -0.320 OA
BRANCH  34  35
HETATM   35  C19 UNL     1     -57.978  52.428  14.771  1.00  0.00     0.108 C 
HETATM   36  C20 UNL     1     -59.011  51.284  14.565  1.00  0.00     0.051 C 
BRANCH  35  37
HETATM   37  C21 UNL     1     -57.267  52.071  16.029  1.00  0.00     0.204 C 
BRANCH  37  38
HETATM   38  O9  UNL     1     -56.221  53.000  16.198  1.00  0.00    -0.398 OA
ATOM     39  H9  UNL     1     -56.022  53.035  17.126  1.00  0.00     0.209 HD
ENDBRANCH  37  38
ENDBRANCH  35  37
BRANCH  35  40
HETATM   40  C22 UNL     1     -56.952  52.179  13.633  1.00  0.00     0.204 C 
BRANCH  40  41
HETATM   41  O10 UNL     1     -56.116  51.115  13.942  1.00  0.00    -0.398 OA
ATOM     42  H10 UNL     1     -55.217  51.309  13.704  1.00  0.00     0.209 HD
ENDBRANCH  40  41
ENDBRANCH  35  40
ENDBRANCH  34  35
ENDBRANCH  27  34
BRANCH  33  43
HETATM   43  O12 UNL     1     -56.361  58.225  12.416  1.00  0.00    -0.355 OA
ATOM     44  H12 UNL     1     -56.700  58.655  11.640  1.00  0.00     0.218 HD
ENDBRANCH  33  43
ENDBRANCH  17  20
ENDBRANCH  13  16
BRANCH  14  45
HETATM   45  C27 UNL     1     -55.172  58.328   7.378  1.00  0.00     0.289 C 
BRANCH  45  46
HETATM   46  O13 UNL     1     -56.576  58.130   7.149  1.00  0.00    -0.367 OA
ATOM     47  H13 UNL     1     -56.881  59.020   7.017  1.00  0.00     0.213 HD
ENDBRANCH  45  46
BRANCH  45  48
HETATM   48  O14 UNL     1     -54.760  58.960   6.228  1.00  0.00    -0.367 OA
ATOM     49  H14 UNL     1     -55.469  59.087   5.608  1.00  0.00     0.213 HD
ENDBRANCH  45  48
ENDBRANCH  14  45
BRANCH  15  50
HETATM   50  C29 UNL     1     -52.710  59.291   8.630  1.00  0.00     0.221 C 
BRANCH  50  51
HETATM   51  O15 UNL     1     -52.243  60.113   7.600  1.00  0.00    -0.317 OA
BRANCH  51  52
HETATM   52  C30 UNL     1     -51.472  59.630   6.549  1.00  0.00     0.255 C 
HETATM   53  C31 UNL     1     -50.218  60.325   6.188  1.00  0.00     0.126 C 
HETATM   54  O16 UNL     1     -51.872  58.608   5.934  1.00  0.00    -0.266 OA
ENDBRANCH  51  52
ENDBRANCH  50  51
ENDBRANCH  15  50
BRANCH   1  55
HETATM   55  O1  UNL     1     -55.445  63.751  13.808  1.00  0.00    -0.355 OA
HETATM   56  C1  UNL     1     -55.475  64.305  15.109  1.00  0.00     0.210 C 
ENDBRANCH   1  55
BRANCH   4  57
HETATM   57  O2  UNL     1     -50.584  62.121  11.695  1.00  0.00    -0.358 OA
ATOM     58  H2  UNL     1     -50.015  61.581  12.231  1.00  0.00     0.217 HD
ENDBRANCH   4  57
TORSDOF 17
ENDMDL
MODEL 2
REMARK VINA RESULT: -8.493630074      5.401     11.282
REMARK  17 active torsions:
REMARK  status: ('A' for Active; 'I' for Inactive)
REMARK    1  A    between atoms: O1_2  and  C2_3 
REMARK    2  A    between atoms: C5_6  and  O2_7 
REMARK    3  A    between atoms: C11_17  and  N1_18 
REMARK       I    between atoms: N1_18  and  C12_20 
REMARK    4  A    between atoms: C12_20  and  C13_22 
REMARK    5  A    between atoms: C18_29  and  O8_30 
REMARK    6  A    between atoms: O8_30  and  C19_31 
REMARK    7  A    between atoms: C19_31  and  C21_33 
REMARK    8  A    between atoms: C19_31  and  C22_36 
REMARK    9  A    between atoms: C21_33  and  O9_34 
REMARK   10  A    between atoms: C22_36  and  O10_37 
REMARK   11  A    between atoms: C24_43  and  O12_44 
REMARK   12  A    between atoms: C26_47  and  C27_48 
REMARK   13  A    between atoms: C27_48  and  O13_49 
REMARK   14  A    between atoms: C27_48  and  O14_51 
REMARK   15  A    between atoms: C28_53  and  C29_54 
REMARK   16  A    between atoms: C29_54  and  O15_55 
REMARK   17  A    between atoms: O15_55  and  C30_56 
ROOT
HETATM    1  C2  UNL     1     -59.112  61.446   9.993  1.00  0.00     0.085 A 
HETATM    2  C3  UNL     1     -59.693  60.891   8.889  1.00  0.00     0.040 A 
HETATM    3  C4  UNL     1     -58.925  60.231   7.943  1.00  0.00     0.042 A 
HETATM    4  C5  UNL     1     -57.558  60.139   8.131  1.00  0.00     0.100 A 
HETATM    5  C6  UNL     1     -56.919  60.689   9.244  1.00  0.00     0.126 A 
HETATM    6  O3  UNL     1     -55.620  60.588   9.402  1.00  0.00    -0.303 OA
HETATM    7  C7  UNL     1     -55.040  61.110  10.454  1.00  0.00     0.122 A 
HETATM    8  C8  UNL     1     -55.791  61.772  11.404  1.00  0.00     0.157 A 
HETATM    9  C9  UNL     1     -57.170  61.901  11.272  1.00  0.00     0.224 A 
HETATM   10  O4  UNL     1     -57.882  62.499  12.121  1.00  0.00    -0.284 OA
HETATM   11  C10 UNL     1     -57.746  61.339  10.155  1.00  0.00     0.087 A 
HETATM   12  O5  UNL     1     -55.146  62.294  12.480  1.00  0.00    -0.315 OA
HETATM   13  C11 UNL     1     -53.772  62.281  12.711  1.00  0.00     0.266 A 
HETATM   14  C26 UNL     1     -53.017  61.538  11.689  1.00  0.00     0.034 A 
HETATM   15  C28 UNL     1     -53.577  61.003  10.642  1.00  0.00     0.014 A 
ENDROOT
BRANCH  13  16
HETATM   16  N1  UNL     1     -53.321  63.700  12.637  1.00  0.00    -0.326 N 
HETATM   17  C12 UNL     1     -53.257  64.546  13.759  1.00  0.00     0.256 C 
HETATM   18  O6  UNL     1     -53.587  64.135  14.881  1.00  0.00    -0.268 OA
ATOM     19  H1  UNL     1     -53.045  64.076  11.729  1.00  0.00     0.165 HD
BRANCH  17  20
HETATM   20  C13 UNL     1     -52.809  65.918  13.591  1.00  0.00     0.062 A 
HETATM   21  C14 UNL     1     -53.771  66.925  13.357  1.00  0.00     0.111 A 
HETATM   22  N2  UNL     1     -53.348  68.152  13.107  1.00  0.00    -0.327 N 
HETATM   23  C15 UNL     1     -54.346  69.211  12.873  1.00  0.00     0.159 C 
HETATM   24  C16 UNL     1     -52.070  68.562  13.052  1.00  0.00     0.262 A 
HETATM   25  O7  UNL     1     -51.799  69.768  12.787  1.00  0.00    -0.267 OA
HETATM   26  C17 UNL     1     -51.074  67.610  13.283  1.00  0.00     0.097 A 
HETATM   27  C18 UNL     1     -49.768  67.992  13.229  1.00  0.00     0.163 A 
HETATM   28  C25 UNL     1     -51.501  66.302  13.546  1.00  0.00     0.040 A 
HETATM   29  N3  UNL     1     -48.827  66.994  13.442  1.00  0.00    -0.301 N 
HETATM   30  C23 UNL     1     -49.193  65.732  13.695  1.00  0.00     0.281 A 
ATOM     31  H3  UNL     1     -47.835  67.227  13.405  1.00  0.00     0.171 HD
HETATM   32  O11 UNL     1     -48.312  64.829  13.888  1.00  0.00    -0.265 OA
HETATM   33  C24 UNL     1     -50.501  65.334  13.759  1.00  0.00     0.146 A 
BRANCH  27  34
HETATM   34  O8  UNL     1     -49.244  69.223  13.012  1.00  0.00    -0.320 OA
BRANCH  34  35
HETATM   35  C19 UNL     1     -48.678  70.134  13.884  1.00  0.00     0.108 C 
HETATM   36  C20 UNL     1     -47.235  69.698  14.264  1.00  0.00     0.051 C 
BRANCH  35  37
HETATM   37  C21 UNL     1     -49.325  70.468  15.182  1.00  0.00     0.204 C 
BRANCH  37  38
HETATM   38  O9  UNL     1     -50.428  71.297  14.901  1.00  0.00    -0.398 OA
ATOM     39  H9  UNL     1     -51.029  71.227  15.632  1.00  0.00     0.209 HD
ENDBRANCH  37  38
ENDBRANCH  35  37
BRANCH  35  40
HETATM   40  C22 UNL     1     -48.456  71.495  13.172  1.00  0.00     0.204 C 
BRANCH  40  41
HETATM   41  O10 UNL     1     -49.390  71.685  12.163  1.00  0.00    -0.398 OA
ATOM     42  H10 UNL     1     -49.186  72.460  11.653  1.00  0.00     0.209 HD
ENDBRANCH  40  41
ENDBRANCH  35  40
ENDBRANCH  34  35
ENDBRANCH  27  34
BRANCH  33  43
HETATM   43  O12 UNL     1     -50.819  64.019  14.030  1.00  0.00    -0.355 OA
ATOM     44  H12 UNL     1     -51.657  63.797  14.417  1.00  0.00     0.218 HD
ENDBRANCH  33  43
ENDBRANCH  17  20
ENDBRANCH  13  16
BRANCH  14  45
HETATM   45  C27 UNL     1     -51.516  61.363  11.932  1.00  0.00     0.289 C 
BRANCH  45  46
HETATM   46  O13 UNL     1     -50.994  62.625  11.488  1.00  0.00    -0.367 OA
ATOM     47  H13 UNL     1     -50.116  62.612  11.849  1.00  0.00     0.213 HD
ENDBRANCH  45  46
BRANCH  45  48
HETATM   48  O14 UNL     1     -51.197  61.353  13.270  1.00  0.00    -0.367 OA
ATOM     49  H14 UNL     1     -50.603  62.055  13.508  1.00  0.00     0.213 HD
ENDBRANCH  45  48
ENDBRANCH  14  45
BRANCH  15  50
HETATM   50  C29 UNL     1     -52.845  60.354   9.530  1.00  0.00     0.221 C 
BRANCH  50  51
HETATM   51  O15 UNL     1     -53.374  59.085   9.278  1.00  0.00    -0.317 OA
BRANCH  51  52
HETATM   52  C30 UNL     1     -53.436  58.539   8.000  1.00  0.00     0.255 C 
HETATM   53  C31 UNL     1     -52.283  58.691   7.088  1.00  0.00     0.126 C 
HETATM   54  O16 UNL     1     -54.482  57.929   7.661  1.00  0.00    -0.266 OA
ENDBRANCH  51  52
ENDBRANCH  50  51
ENDBRANCH  15  50
BRANCH   1  55
HETATM   55  O1  UNL     1     -59.843  62.121  10.976  1.00  0.00    -0.355 OA
HETATM   56  C1  UNL     1     -60.876  61.401  11.622  1.00  0.00     0.210 C 
ENDBRANCH   1  55
BRANCH   4  57
HETATM   57  O2  UNL     1     -56.796  59.474   7.174  1.00  0.00    -0.358 OA
ATOM     58  H2  UNL     1     -55.870  59.676   7.110  1.00  0.00     0.217 HD
ENDBRANCH   4  57
TORSDOF 17
ENDMDL
MODEL 3
REMARK VINA RESULT: -8.467174284      1.452      1.625
REMARK  17 active torsions:
REMARK  status: ('A' for Active; 'I' for Inactive)
REMARK    1  A    between atoms: O1_2  and  C2_3 
REMARK    2  A    between atoms: C5_6  and  O2_7 
REMARK    3  A    between atoms: C11_17  and  N1_18 
REMARK       I    between atoms: N1_18  and  C12_20 
REMARK    4  A    between atoms: C12_20  and  C13_22 
REMARK    5  A    between atoms: C18_29  and  O8_30 
REMARK    6  A    between atoms: O8_30  and  C19_31 
REMARK    7  A    between atoms: C19_31  and  C21_33 
REMARK    8  A    between atoms: C19_31  and  C22_36 
REMARK    9  A    between atoms: C21_33  and  O9_34 
REMARK   10  A    between atoms: C22_36  and  O10_37 
REMARK   11  A    between atoms: C24_43  and  O12_44 
REMARK   12  A    between atoms: C26_47  and  C27_48 
REMARK   13  A    between atoms: C27_48  and  O13_49 
REMARK   14  A    between atoms: C27_48  and  O14_51 
REMARK   15  A    between atoms: C28_53  and  C29_54 
REMARK   16  A    between atoms: C29_54  and  O15_55 
REMARK   17  A    between atoms: O15_55  and  C30_56 
ROOT
HETATM    1  C2  UNL     1     -54.031  63.656  13.329  1.00  0.00     0.085 A 
HETATM    2  C3  UNL     1     -52.829  64.116  13.782  1.00  0.00     0.040 A 
HETATM    3  C4  UNL     1     -51.643  63.646  13.240  1.00  0.00     0.042 A 
HETATM    4  C5  UNL     1     -51.693  62.700  12.231  1.00  0.00     0.100 A 
HETATM    5  C6  UNL     1     -52.898  62.200  11.735  1.00  0.00     0.126 A 
HETATM    6  O3  UNL     1     -52.920  61.305  10.776  1.00  0.00    -0.303 OA
HETATM    7  C7  UNL     1     -54.062  60.850  10.324  1.00  0.00     0.122 A 
HETATM    8  C8  UNL     1     -55.251  61.308  10.854  1.00  0.00     0.157 A 
HETATM    9  C9  UNL     1     -55.269  62.256  11.872  1.00  0.00     0.224 A 
HETATM   10  O4  UNL     1     -56.337  62.692  12.377  1.00  0.00    -0.284 OA
HETATM   11  C10 UNL     1     -54.051  62.713  12.322  1.00  0.00     0.087 A 
HETATM   12  O5  UNL     1     -56.410  60.809  10.351  1.00  0.00    -0.315 OA
HETATM   13  C11 UNL     1     -56.535  59.825   9.372  1.00  0.00     0.266 A 
HETATM   14  C26 UNL     1     -55.243  59.391   8.815  1.00  0.00     0.034 A 
HETATM   15  C28 UNL     1     -54.099  59.840   9.244  1.00  0.00     0.014 A 
ENDROOT
BRANCH  13  16
HETATM   16  N1  UNL     1     -57.138  58.638  10.044  1.00  0.00    -0.326 N 
HETATM   17  C12 UNL     1     -58.525  58.469  10.205  1.00  0.00     0.256 C 
HETATM   18  O6  UNL     1     -59.320  59.324   9.788  1.00  0.00    -0.268 OA
ATOM     19  H1  UNL     1     -56.515  57.915  10.405  1.00  0.00     0.165 HD
BRANCH  17  20
HETATM   20  C13 UNL     1     -59.023  57.281  10.878  1.00  0.00     0.062 A 
HETATM   21  C14 UNL     1     -59.391  56.161  10.102  1.00  0.00     0.111 A 
HETATM   22  N2  UNL     1     -59.934  55.123  10.713  1.00  0.00    -0.327 N 
HETATM   23  C15 UNL     1     -60.311  53.945   9.911  1.00  0.00     0.159 C 
HETATM   24  C16 UNL     1     -60.180  55.008  12.029  1.00  0.00     0.262 A 
HETATM   25  O7  UNL     1     -60.721  53.962  12.487  1.00  0.00    -0.267 OA
HETATM   26  C17 UNL     1     -59.829  56.083  12.849  1.00  0.00     0.097 A 
HETATM   27  C18 UNL     1     -60.070  56.002  14.187  1.00  0.00     0.163 A 
HETATM   28  C25 UNL     1     -59.255  57.196  12.219  1.00  0.00     0.040 A 
HETATM   29  N3  UNL     1     -59.722  57.113  14.942  1.00  0.00    -0.301 N 
HETATM   30  C23 UNL     1     -59.173  58.195  14.380  1.00  0.00     0.281 A 
ATOM     31  H3  UNL     1     -59.889  57.104  15.948  1.00  0.00     0.171 HD
HETATM   32  O11 UNL     1     -58.860  59.207  15.093  1.00  0.00    -0.265 OA
HETATM   33  C24 UNL     1     -58.919  58.290  13.039  1.00  0.00     0.146 A 
BRANCH  27  34
HETATM   34  O8  UNL     1     -60.590  54.975  14.902  1.00  0.00    -0.320 OA
BRANCH  34  35
HETATM   35  C19 UNL     1     -60.007  54.125  15.823  1.00  0.00     0.108 C 
HETATM   36  C20 UNL     1     -60.776  52.775  15.878  1.00  0.00     0.051 C 
BRANCH  35  37
HETATM   37  C21 UNL     1     -59.842  54.523  17.248  1.00  0.00     0.204 C 
BRANCH  37  38
HETATM   38  O9  UNL     1     -58.762  55.426  17.308  1.00  0.00    -0.398 OA
ATOM     39  H9  UNL     1     -58.252  55.205  18.078  1.00  0.00     0.209 HD
ENDBRANCH  37  38
ENDBRANCH  35  37
BRANCH  35  40
HETATM   40  C22 UNL     1     -58.593  53.701  15.345  1.00  0.00     0.204 C 
BRANCH  40  41
HETATM   41  O10 UNL     1     -58.674  52.742  14.345  1.00  0.00    -0.398 OA
ATOM     42  H10 UNL     1     -59.295  52.061  14.577  1.00  0.00     0.209 HD
ENDBRANCH  40  41
ENDBRANCH  35  40
ENDBRANCH  34  35
ENDBRANCH  27  34
BRANCH  33  43
HETATM   43  O12 UNL     1     -58.344  59.431  12.515  1.00  0.00    -0.355 OA
ATOM     44  H12 UNL     1     -58.816  60.255  12.527  1.00  0.00     0.218 HD
ENDBRANCH  33  43
ENDBRANCH  17  20
ENDBRANCH  13  16
BRANCH  14  45
HETATM   45  C27 UNL     1     -55.293  58.407   7.644  1.00  0.00     0.289 C 
BRANCH  45  46
HETATM   46  O13 UNL     1     -56.698  58.371   7.346  1.00  0.00    -0.367 OA
ATOM     47  H13 UNL     1     -56.724  57.795   6.591  1.00  0.00     0.213 HD
ENDBRANCH  45  46
BRANCH  45  48
HETATM   48  O14 UNL     1     -54.749  58.929   6.494  1.00  0.00    -0.367 OA
ATOM     49  H14 UNL     1     -54.173  58.315   6.052  1.00  0.00     0.213 HD
ENDBRANCH  45  48
ENDBRANCH  14  45
BRANCH  15  50
HETATM   50  C29 UNL     1     -52.775  59.345   8.800  1.00  0.00     0.221 C 
BRANCH  50  51
HETATM   51  O15 UNL     1     -52.296  60.125   7.743  1.00  0.00    -0.317 OA
BRANCH  51  52
HETATM   52  C30 UNL     1     -51.516  59.600   6.719  1.00  0.00     0.255 C 
HETATM   53  C31 UNL     1     -50.229  60.245   6.381  1.00  0.00     0.126 C 
HETATM   54  O16 UNL     1     -51.936  58.583   6.109  1.00  0.00    -0.266 OA
ENDBRANCH  51  52
ENDBRANCH  50  51
ENDBRANCH  15  50
BRANCH   1  55
HETATM   55  O1  UNL     1     -55.255  64.100  13.842  1.00  0.00    -0.355 OA
HETATM   56  C1  UNL     1     -55.296  64.441  15.214  1.00  0.00     0.210 C 
ENDBRANCH   1  55
BRANCH   4  57
HETATM   57  O2  UNL     1     -50.495  62.234  11.695  1.00  0.00    -0.358 OA
ATOM     58  H2  UNL     1     -50.045  62.770  11.053  1.00  0.00     0.217 HD
ENDBRANCH   4  57
TORSDOF 17
ENDMDL
MODEL 4
REMARK VINA RESULT: -7.971809083      4.256      8.577
REMARK  17 active torsions:
REMARK  status: ('A' for Active; 'I' for Inactive)
REMARK    1  A    between atoms: O1_2  and  C2_3 
REMARK    2  A    between atoms: C5_6  and  O2_7 
REMARK    3  A    between atoms: C11_17  and  N1_18 
REMARK       I    between atoms: N1_18  and  C12_20 
REMARK    4  A    between atoms: C12_20  and  C13_22 
REMARK    5  A    between atoms: C18_29  and  O8_30 
REMARK    6  A    between atoms: O8_30  and  C19_31 
REMARK    7  A    between atoms: C19_31  and  C21_33 
REMARK    8  A    between atoms: C19_31  and  C22_36 
REMARK    9  A    between atoms: C21_33  and  O9_34 
REMARK   10  A    between atoms: C22_36  and  O10_37 
REMARK   11  A    between atoms: C24_43  and  O12_44 
REMARK   12  A    between atoms: C26_47  and  C27_48 
REMARK   13  A    between atoms: C27_48  and  O13_49 
REMARK   14  A    between atoms: C27_48  and  O14_51 
REMARK   15  A    between atoms: C28_53  and  C29_54 
REMARK   16  A    between atoms: C29_54  and  O15_55 
REMARK   17  A    between atoms: O15_55  and  C30_56 
ROOT
HETATM    1  C2  UNL     1     -47.905  67.119  13.662  1.00  0.00     0.085 A 
HETATM    2  C3  UNL     1     -47.293  68.323  13.465  1.00  0.00     0.040 A 
HETATM    3  C4  UNL     1     -48.037  69.453  13.162  1.00  0.00     0.042 A 
HETATM    4  C5  UNL     1     -49.412  69.345  13.061  1.00  0.00     0.100 A 
HETATM    5  C6  UNL     1     -50.082  68.136  13.254  1.00  0.00     0.126 A 
HETATM    6  O3  UNL     1     -51.389  68.059  13.155  1.00  0.00    -0.303 OA
HETATM    7  C7  UNL     1     -51.999  66.915  13.341  1.00  0.00     0.122 A 
HETATM    8  C8  UNL     1     -51.272  65.781  13.643  1.00  0.00     0.157 A 
HETATM    9  C9  UNL     1     -49.886  65.822  13.756  1.00  0.00     0.224 A 
HETATM   10  O4  UNL     1     -49.195  64.805  14.029  1.00  0.00    -0.284 OA
HETATM   11  C10 UNL     1     -49.278  67.041  13.555  1.00  0.00     0.087 A 
HETATM   12  O5  UNL     1     -51.949  64.618  13.831  1.00  0.00    -0.315 OA
HETATM   13  C11 UNL     1     -53.323  64.427  13.699  1.00  0.00     0.266 A 
HETATM   14  C26 UNL     1     -54.058  65.668  13.409  1.00  0.00     0.034 A 
HETATM   15  C28 UNL     1     -53.470  66.816  13.231  1.00  0.00     0.014 A 
ENDROOT
BRANCH  13  16
HETATM   16  N1  UNL     1     -53.510  63.527  12.525  1.00  0.00    -0.326 N 
HETATM   17  C12 UNL     1     -53.515  62.123  12.626  1.00  0.00     0.256 C 
HETATM   18  O6  UNL     1     -53.354  61.567  13.722  1.00  0.00    -0.268 OA
ATOM     19  H1  UNL     1     -53.640  63.948  11.606  1.00  0.00     0.165 HD
BRANCH  17  20
HETATM   20  C13 UNL     1     -53.699  61.325  11.426  1.00  0.00     0.062 A 
HETATM   21  C14 UNL     1     -52.561  60.809  10.769  1.00  0.00     0.111 A 
HETATM   22  N2  UNL     1     -52.732  60.168   9.625  1.00  0.00    -0.327 N 
HETATM   23  C15 UNL     1     -51.550  59.617   8.939  1.00  0.00     0.159 C 
HETATM   24  C16 UNL     1     -53.899  59.944   9.001  1.00  0.00     0.262 A 
HETATM   25  O7  UNL     1     -53.924  59.328   7.898  1.00  0.00    -0.267 OA
HETATM   26  C17 UNL     1     -55.061  60.427   9.608  1.00  0.00     0.097 A 
HETATM   27  C18 UNL     1     -56.262  60.221   8.998  1.00  0.00     0.163 A 
HETATM   28  C25 UNL     1     -54.902  61.112  10.820  1.00  0.00     0.040 A 
HETATM   29  N3  UNL     1     -57.374  60.747   9.639  1.00  0.00    -0.301 N 
HETATM   30  C23 UNL     1     -57.266  61.409  10.796  1.00  0.00     0.281 A 
ATOM     31  H3  UNL     1     -58.296  60.626   9.219  1.00  0.00     0.171 HD
HETATM   32  O11 UNL     1     -58.302  61.884  11.371  1.00  0.00    -0.265 OA
HETATM   33  C24 UNL     1     -56.068  61.617  11.425  1.00  0.00     0.146 A 
BRANCH  27  34
HETATM   34  O8  UNL     1     -56.535  59.555   7.850  1.00  0.00    -0.320 OA
BRANCH  34  35
HETATM   35  C19 UNL     1     -57.390  58.499   7.596  1.00  0.00     0.108 C 
HETATM   36  C20 UNL     1     -56.676  57.416   6.740  1.00  0.00     0.051 C 
BRANCH  35  37
HETATM   37  C21 UNL     1     -58.701  58.708   6.923  1.00  0.00     0.204 C 
BRANCH  37  38
HETATM   38  O9  UNL     1     -59.564  59.309   7.861  1.00  0.00    -0.398 OA
ATOM     39  H9  UNL     1     -60.062  59.974   7.402  1.00  0.00     0.209 HD
ENDBRANCH  37  38
ENDBRANCH  35  37
BRANCH  35  40
HETATM   40  C22 UNL     1     -57.717  57.743   8.912  1.00  0.00     0.204 C 
BRANCH  40  41
HETATM   41  O10 UNL     1     -58.529  56.644   8.664  1.00  0.00    -0.398 OA
ATOM     42  H10 UNL     1     -58.191  55.869   9.097  1.00  0.00     0.209 HD
ENDBRANCH  40  41
ENDBRANCH  35  40
ENDBRANCH  34  35
ENDBRANCH  27  34
BRANCH  33  43
HETATM   43  O12 UNL     1     -56.018  62.303  12.622  1.00  0.00    -0.355 OA
ATOM     44  H12 UNL     1     -55.566  63.136  12.680  1.00  0.00     0.218 HD
ENDBRANCH  33  43
ENDBRANCH  17  20
ENDBRANCH  13  16
BRANCH  14  45
HETATM   45  C27 UNL     1     -55.585  65.573  13.376  1.00  0.00     0.289 C 
BRANCH  45  46
HETATM   46  O13 UNL     1     -55.820  65.026  12.068  1.00  0.00    -0.367 OA
ATOM     47  H13 UNL     1     -56.651  64.581  12.188  1.00  0.00     0.213 HD
ENDBRANCH  45  46
BRANCH  45  48
HETATM   48  O14 UNL     1     -56.070  64.592  14.210  1.00  0.00    -0.367 OA
ATOM     49  H14 UNL     1     -55.932  63.718  13.863  1.00  0.00     0.213 HD
ENDBRANCH  45  48
ENDBRANCH  14  45
BRANCH  15  50
HETATM   50  C29 UNL     1     -54.156  68.063  12.818  1.00  0.00     0.221 C 
BRANCH  50  51
HETATM   51  O15 UNL     1     -54.429  68.858  13.935  1.00  0.00    -0.317 OA
BRANCH  51  52
HETATM   52  C30 UNL     1     -54.071  70.199  14.004  1.00  0.00     0.255 C 
HETATM   53  C31 UNL     1     -54.728  71.077  14.995  1.00  0.00     0.126 C 
HETATM   54  O16 UNL     1     -53.190  70.624  13.213  1.00  0.00    -0.266 OA
ENDBRANCH  51  52
ENDBRANCH  50  51
ENDBRANCH  15  50
BRANCH   1  55
HETATM   55  O1  UNL     1     -47.199  65.951  13.972  1.00  0.00    -0.355 OA
HETATM   56  C1  UNL     1     -45.852  66.098  14.376  1.00  0.00     0.210 C 
ENDBRANCH   1  55
BRANCH   4  57
HETATM   57  O2  UNL     1     -50.149  70.486  12.754  1.00  0.00    -0.358 OA
ATOM     58  H2  UNL     1     -50.947  70.389  12.247  1.00  0.00     0.217 HD
ENDBRANCH   4  57
TORSDOF 17
ENDMDL
MODEL 5
REMARK VINA RESULT: -7.780505943      2.087      3.052
REMARK  17 active torsions:
REMARK  status: ('A' for Active; 'I' for Inactive)
REMARK    1  A    between atoms: O1_2  and  C2_3 
REMARK    2  A    between atoms: C5_6  and  O2_7 
REMARK    3  A    between atoms: C11_17  and  N1_18 
REMARK       I    between atoms: N1_18  and  C12_20 
REMARK    4  A    between atoms: C12_20  and  C13_22 
REMARK    5  A    between atoms: C18_29  and  O8_30 
REMARK    6  A    between atoms: O8_30  and  C19_31 
REMARK    7  A    between atoms: C19_31  and  C21_33 
REMARK    8  A    between atoms: C19_31  and  C22_36 
REMARK    9  A    between atoms: C21_33  and  O9_34 
REMARK   10  A    between atoms: C22_36  and  O10_37 
REMARK   11  A    between atoms: C24_43  and  O12_44 
REMARK   12  A    between atoms: C26_47  and  C27_48 
REMARK   13  A    between atoms: C27_48  and  O13_49 
REMARK   14  A    between atoms: C27_48  and  O14_51 
REMARK   15  A    between atoms: C28_53  and  C29_54 
REMARK   16  A    between atoms: C29_54  and  O15_55 
REMARK   17  A    between atoms: O15_55  and  C30_56 
ROOT
HETATM    1  C2  UNL     1     -53.180  65.122  13.838  1.00  0.00     0.085 A 
HETATM    2  C3  UNL     1     -51.901  65.467  14.166  1.00  0.00     0.040 A 
HETATM    3  C4  UNL     1     -50.825  64.762  13.650  1.00  0.00     0.042 A 
HETATM    4  C5  UNL     1     -51.063  63.701  12.795  1.00  0.00     0.100 A 
HETATM    5  C6  UNL     1     -52.353  63.311  12.431  1.00  0.00     0.126 A 
HETATM    6  O3  UNL     1     -52.554  62.302  11.616  1.00  0.00    -0.303 OA
HETATM    7  C7  UNL     1     -53.772  61.953  11.286  1.00  0.00     0.122 A 
HETATM    8  C8  UNL     1     -54.855  62.644  11.792  1.00  0.00     0.157 A 
HETATM    9  C9  UNL     1     -54.683  63.719  12.658  1.00  0.00     0.224 A 
HETATM   10  O4  UNL     1     -55.649  64.369  13.136  1.00  0.00    -0.284 OA
HETATM   11  C10 UNL     1     -53.388  64.058  12.983  1.00  0.00     0.087 A 
HETATM   12  O5  UNL     1     -56.099  62.248  11.417  1.00  0.00    -0.315 OA
HETATM   13  C11 UNL     1     -56.415  61.163  10.601  1.00  0.00     0.266 A 
HETATM   14  C26 UNL     1     -55.229  60.478  10.060  1.00  0.00     0.034 A 
HETATM   15  C28 UNL     1     -54.011  60.816  10.370  1.00  0.00     0.014 A 
ENDROOT
BRANCH  13  16
HETATM   16  N1  UNL     1     -57.127  60.181  11.467  1.00  0.00    -0.326 N 
HETATM   17  C12 UNL     1     -58.529  60.124  11.571  1.00  0.00     0.256 C 
HETATM   18  O6  UNL     1     -59.244  60.912  10.935  1.00  0.00    -0.268 OA
ATOM     19  H1  UNL     1     -56.573  59.518  12.009  1.00  0.00     0.165 HD
BRANCH  17  20
HETATM   20  C13 UNL     1     -59.137  59.134  12.445  1.00  0.00     0.062 A 
HETATM   21  C14 UNL     1     -59.437  59.494  13.777  1.00  0.00     0.111 A 
HETATM   22  N2  UNL     1     -59.898  58.560  14.591  1.00  0.00    -0.327 N 
HETATM   23  C15 UNL     1     -60.224  58.931  15.980  1.00  0.00     0.159 C 
HETATM   24  C16 UNL     1     -60.123  57.272  14.286  1.00  0.00     0.262 A 
HETATM   25  O7  UNL     1     -60.553  56.474  15.166  1.00  0.00    -0.267 OA
HETATM   26  C17 UNL     1     -59.850  56.860  12.979  1.00  0.00     0.097 A 
HETATM   27  C18 UNL     1     -60.062  55.558  12.638  1.00  0.00     0.163 A 
HETATM   28  C25 UNL     1     -59.358  57.833  12.100  1.00  0.00     0.040 A 
HETATM   29  N3  UNL     1     -59.748  55.207  11.332  1.00  0.00    -0.301 N 
HETATM   30  C23 UNL     1     -59.274  56.105  10.462  1.00  0.00     0.281 A 
ATOM     31  H3  UNL     1     -59.881  54.242  11.029  1.00  0.00     0.171 HD
HETATM   32  O11 UNL     1     -58.992  55.762   9.266  1.00  0.00    -0.265 OA
HETATM   33  C24 UNL     1     -59.062  57.418  10.788  1.00  0.00     0.146 A 
BRANCH  27  34
HETATM   34  O8  UNL     1     -60.556  54.545  13.390  1.00  0.00    -0.320 OA
BRANCH  34  35
HETATM   35  C19 UNL     1     -59.949  53.411  13.894  1.00  0.00     0.108 C 
HETATM   36  C20 UNL     1     -58.610  53.777  14.595  1.00  0.00     0.051 C 
BRANCH  35  37
HETATM   37  C21 UNL     1     -59.611  52.257  13.016  1.00  0.00     0.204 C 
BRANCH  37  38
HETATM   38  O9  UNL     1     -60.316  52.429  11.809  1.00  0.00    -0.398 OA
ATOM     39  H9  UNL     1     -61.093  51.885  11.856  1.00  0.00     0.209 HD
ENDBRANCH  37  38
ENDBRANCH  35  37
BRANCH  35  40
HETATM   40  C22 UNL     1     -60.796  52.815  15.051  1.00  0.00     0.204 C 
BRANCH  40  41
HETATM   41  O10 UNL     1     -61.157  53.801  15.960  1.00  0.00    -0.398 OA
ATOM     42  H10 UNL     1     -60.450  53.973  16.572  1.00  0.00     0.209 HD
ENDBRANCH  40  41
ENDBRANCH  35  40
ENDBRANCH  34  35
ENDBRANCH  27  34
BRANCH  33  43
HETATM   43  O12 UNL     1     -58.576  58.302   9.846  1.00  0.00    -0.355 OA
ATOM     44  H12 UNL     1     -57.651  58.319   9.635  1.00  0.00     0.218 HD
ENDBRANCH  33  43
ENDBRANCH  17  20
ENDBRANCH  13  16
BRANCH  14  45
HETATM   45  C27 UNL     1     -55.483  59.355   9.052  1.00  0.00     0.289 C 
BRANCH  45  46
HETATM   46  O13 UNL     1     -55.796  58.248   9.912  1.00  0.00    -0.367 OA
ATOM     47  H13 UNL     1     -54.933  57.981  10.209  1.00  0.00     0.213 HD
ENDBRANCH  45  46
BRANCH  45  48
HETATM   48  O14 UNL     1     -56.651  59.534   8.347  1.00  0.00    -0.367 OA
ATOM     49  H14 UNL     1     -56.600  59.188   7.464  1.00  0.00     0.213 HD
ENDBRANCH  45  48
ENDBRANCH  14  45
BRANCH  15  50
HETATM   50  C29 UNL     1     -52.796  60.082   9.948  1.00  0.00     0.221 C 
BRANCH  50  51
HETATM   51  O15 UNL     1     -52.394  60.500   8.676  1.00  0.00    -0.317 OA
BRANCH  51  52
HETATM   52  C30 UNL     1     -51.972  59.610   7.694  1.00  0.00     0.255 C 
HETATM   53  C31 UNL     1     -51.077  60.085   6.618  1.00  0.00     0.126 C 
HETATM   54  O16 UNL     1     -52.372  58.419   7.756  1.00  0.00    -0.266 OA
ENDBRANCH  51  52
ENDBRANCH  50  51
ENDBRANCH  15  50
BRANCH   1  55
HETATM   55  O1  UNL     1     -54.299  65.802  14.330  1.00  0.00    -0.355 OA
HETATM   56  C1  UNL     1     -54.398  67.182  14.035  1.00  0.00     0.210 C 
ENDBRANCH   1  55
BRANCH   4  57
HETATM   57  O2  UNL     1     -49.975  62.999  12.284  1.00  0.00    -0.358 OA
ATOM     58  H2  UNL     1     -50.127  62.151  11.885  1.00  0.00     0.217 HD
ENDBRANCH   4  57
TORSDOF 17
ENDMDL
