MODEL 1
REMARK VINA RESULT: -8.126039548      0.000      0.000
REMARK  12 active torsions:
REMARK  status: ('A' for Active; 'I' for Inactive)
REMARK       I    between atoms: N1_2  and  C2_4 
REMARK    1  A    between atoms: C2_4  and  C3_6 
REMARK    2  A    between atoms: C3_6  and  C4_7 
REMARK    3  A    between atoms: C3_6  and  N2_14 
REMARK    4  A    between atoms: C4_7  and  C5_8 
REMARK    5  A    between atoms: C5_8  and  C6_10 
REMARK    6  A    between atoms: N2_14  and  C10_16 
REMARK    7  A    between atoms: C10_16  and  C11_17 
REMARK    8  A    between atoms: C10_16  and  C14_20 
REMARK    9  A    between atoms: C14_20  and  C15_21 
REMARK   10  A    between atoms: C14_20  and  N3_25 
REMARK   11  A    between atoms: C15_21  and  C16_22 
REMARK       I    between atoms: N3_25  and  C19_27 
REMARK   12  A    between atoms: C19_27  and  C20_29 
ROOT
HETATM    1  C10 UNL     1      17.251  43.787  68.491  1.00  0.00     0.126 C 
ENDROOT
BRANCH   1   2
HETATM    2  N2  UNL     1      18.210  43.241  69.431  1.00  0.00    -0.399 N 
ATOM      3  H2  UNL     1      19.190  43.513  69.368  1.00  0.00     0.154 HD
BRANCH   2   4
HETATM    4  C3  UNL     1      17.800  42.339  70.428  1.00  0.00     0.177 C 
BRANCH   4   5
HETATM    5  C2  UNL     1      17.030  42.750  71.591  1.00  0.00     0.240 C 
HETATM    6  N1  UNL     1      17.271  43.904  72.398  1.00  0.00    -0.364 N 
HETATM    7  C1  UNL     1      16.454  44.233  73.535  1.00  0.00     0.149 C 
ATOM      8  H1  UNL     1      18.050  44.516  72.158  1.00  0.00     0.161 HD
HETATM    9  O1  UNL     1      16.045  42.045  71.975  1.00  0.00    -0.271 OA
ENDBRANCH   4   5
BRANCH   4  10
HETATM   10  C4  UNL     1      19.119  41.686  70.984  1.00  0.00     0.113 C 
BRANCH  10  11
HETATM   11  C5  UNL     1      20.270  42.576  70.931  1.00  0.00     0.133 C 
HETATM   12  O2  UNL     1      20.267  43.690  71.436  1.00  0.00    -0.297 OA
BRANCH  11  13
HETATM   13  C6  UNL     1      21.553  42.215  70.262  1.00  0.00     0.059 A 
HETATM   14  C7  UNL     1      22.517  41.562  71.282  1.00  0.00     0.017 A 
HETATM   15  C8  UNL     1      22.061  40.877  70.038  1.00  0.00    -0.007 A 
HETATM   16  C9  UNL     1      21.284  39.611  70.090  1.00  0.00     0.011 C 
ENDBRANCH  11  13
ENDBRANCH  10  11
ENDBRANCH   4  10
ENDBRANCH   2   4
ENDBRANCH   1   2
BRANCH   1  17
HETATM   17  C11 UNL     1      17.058  45.210  68.660  1.00  0.00     0.005 C 
HETATM   18  C12 UNL     1      18.284  45.952  69.238  1.00  0.00     0.012 C 
HETATM   19  C13 UNL     1      15.867  45.605  69.536  1.00  0.00     0.012 C 
ENDBRANCH   1  17
BRANCH   1  20
HETATM   20  C14 UNL     1      17.625  43.155  67.202  1.00  0.00     0.012 C 
BRANCH  20  21
HETATM   21  C15 UNL     1      18.809  42.357  66.971  1.00  0.00     0.058 C 
BRANCH  21  22
HETATM   22  C16 UNL     1      19.917  42.885  66.130  1.00  0.00    -0.017 C 
HETATM   23  C17 UNL     1      19.907  44.421  66.103  1.00  0.00     0.010 C 
HETATM   24  C18 UNL     1      21.295  42.536  66.680  1.00  0.00     0.010 C 
ENDBRANCH  21  22
ENDBRANCH  20  21
BRANCH  20  25
HETATM   25  N3  UNL     1      16.405  42.544  66.665  1.00  0.00    -0.332 N 
HETATM   26  C19 UNL     1      15.633  43.070  65.610  1.00  0.00     0.226 C 
HETATM   27  O3  UNL     1      16.013  44.141  65.081  1.00  0.00    -0.273 OA
ATOM     28  H3  UNL     1      16.090  41.671  67.088  1.00  0.00     0.168 HD
BRANCH  26  29
HETATM   29  C20 UNL     1      14.403  42.430  65.099  1.00  0.00     0.082 A 
HETATM   30  C21 UNL     1      13.256  43.264  64.653  1.00  0.00     0.019 A 
HETATM   31  C22 UNL     1      13.190  42.604  65.980  1.00  0.00    -0.005 A 
HETATM   32  C23 UNL     1      12.368  41.343  66.155  1.00  0.00     0.011 C 
ENDBRANCH  26  29
ENDBRANCH  20  25
ENDBRANCH   1  20
TORSDOF 12
ENDMDL
MODEL 2
REMARK VINA RESULT: -8.060690446      0.732      1.221
REMARK  12 active torsions:
REMARK  status: ('A' for Active; 'I' for Inactive)
REMARK       I    between atoms: N1_2  and  C2_4 
REMARK    1  A    between atoms: C2_4  and  C3_6 
REMARK    2  A    between atoms: C3_6  and  C4_7 
REMARK    3  A    between atoms: C3_6  and  N2_14 
REMARK    4  A    between atoms: C4_7  and  C5_8 
REMARK    5  A    between atoms: C5_8  and  C6_10 
REMARK    6  A    between atoms: N2_14  and  C10_16 
REMARK    7  A    between atoms: C10_16  and  C11_17 
REMARK    8  A    between atoms: C10_16  and  C14_20 
REMARK    9  A    between atoms: C14_20  and  C15_21 
REMARK   10  A    between atoms: C14_20  and  N3_25 
REMARK   11  A    between atoms: C15_21  and  C16_22 
REMARK       I    between atoms: N3_25  and  C19_27 
REMARK   12  A    between atoms: C19_27  and  C20_29 
ROOT
HETATM    1  C10 UNL     1      17.323  43.679  69.140  1.00  0.00     0.126 C 
ENDROOT
BRANCH   1   2
HETATM    2  N2  UNL     1      18.100  42.872  70.059  1.00  0.00    -0.399 N 
ATOM      3  H2  UNL     1      19.116  42.852  69.979  1.00  0.00     0.154 HD
BRANCH   2   4
HETATM    4  C3  UNL     1      17.465  42.117  71.059  1.00  0.00     0.177 C 
BRANCH   4   5
HETATM    5  C2  UNL     1      16.774  42.724  72.185  1.00  0.00     0.240 C 
HETATM    6  N1  UNL     1      17.229  43.840  72.952  1.00  0.00    -0.364 N 
HETATM    7  C1  UNL     1      16.476  44.377  74.053  1.00  0.00     0.149 C 
ATOM      8  H1  UNL     1      18.121  44.271  72.709  1.00  0.00     0.161 HD
HETATM    9  O1  UNL     1      15.659  42.251  72.569  1.00  0.00    -0.271 OA
ENDBRANCH   4   5
BRANCH   4  10
HETATM   10  C4  UNL     1      18.582  41.197  71.677  1.00  0.00     0.113 C 
BRANCH  10  11
HETATM   11  C5  UNL     1      19.892  41.832  71.721  1.00  0.00     0.133 C 
HETATM   12  O2  UNL     1      20.054  42.983  72.101  1.00  0.00    -0.297 OA
BRANCH  11  13
HETATM   13  C6  UNL     1      21.149  41.143  71.312  1.00  0.00     0.059 A 
HETATM   14  C7  UNL     1      21.051  40.697  69.833  1.00  0.00     0.017 A 
HETATM   15  C8  UNL     1      22.113  41.614  70.339  1.00  0.00    -0.007 A 
HETATM   16  C9  UNL     1      22.250  43.001  69.824  1.00  0.00     0.011 C 
ENDBRANCH  11  13
ENDBRANCH  10  11
ENDBRANCH   4  10
ENDBRANCH   2   4
ENDBRANCH   1   2
BRANCH   1  17
HETATM   17  C11 UNL     1      17.204  45.054  69.573  1.00  0.00     0.005 C 
HETATM   18  C12 UNL     1      15.809  45.674  69.338  1.00  0.00     0.012 C 
HETATM   19  C13 UNL     1      18.212  46.022  68.949  1.00  0.00     0.012 C 
ENDBRANCH   1  17
BRANCH   1  20
HETATM   20  C14 UNL     1      17.832  43.279  67.805  1.00  0.00     0.012 C 
BRANCH  20  21
HETATM   21  C15 UNL     1      19.098  42.629  67.550  1.00  0.00     0.058 C 
BRANCH  21  22
HETATM   22  C16 UNL     1      19.842  42.902  66.291  1.00  0.00    -0.017 C 
HETATM   23  C17 UNL     1      19.750  44.387  65.905  1.00  0.00     0.010 C 
HETATM   24  C18 UNL     1      21.339  42.648  66.420  1.00  0.00     0.010 C 
ENDBRANCH  21  22
ENDBRANCH  20  21
BRANCH  20  25
HETATM   25  N3  UNL     1      16.710  42.651  67.100  1.00  0.00    -0.332 N 
HETATM   26  C19 UNL     1      15.962  43.253  66.069  1.00  0.00     0.226 C 
HETATM   27  O3  UNL     1      16.276  44.416  65.717  1.00  0.00    -0.273 OA
ATOM     28  H3  UNL     1      16.450  41.704  67.377  1.00  0.00     0.168 HD
BRANCH  26  29
HETATM   29  C20 UNL     1      14.832  42.592  65.385  1.00  0.00     0.082 A 
HETATM   30  C21 UNL     1      13.800  43.406  64.690  1.00  0.00     0.019 A 
HETATM   31  C22 UNL     1      13.484  42.830  66.021  1.00  0.00    -0.005 A 
HETATM   32  C23 UNL     1      12.621  41.588  66.120  1.00  0.00     0.011 C 
ENDBRANCH  26  29
ENDBRANCH  20  25
ENDBRANCH   1  20
TORSDOF 12
ENDMDL
MODEL 3
REMARK VINA RESULT: -8.019072939      1.734      5.886
REMARK  12 active torsions:
REMARK  status: ('A' for Active; 'I' for Inactive)
REMARK       I    between atoms: N1_2  and  C2_4 
REMARK    1  A    between atoms: C2_4  and  C3_6 
REMARK    2  A    between atoms: C3_6  and  C4_7 
REMARK    3  A    between atoms: C3_6  and  N2_14 
REMARK    4  A    between atoms: C4_7  and  C5_8 
REMARK    5  A    between atoms: C5_8  and  C6_10 
REMARK    6  A    between atoms: N2_14  and  C10_16 
REMARK    7  A    between atoms: C10_16  and  C11_17 
REMARK    8  A    between atoms: C10_16  and  C14_20 
REMARK    9  A    between atoms: C14_20  and  C15_21 
REMARK   10  A    between atoms: C14_20  and  N3_25 
REMARK   11  A    between atoms: C15_21  and  C16_22 
REMARK       I    between atoms: N3_25  and  C19_27 
REMARK   12  A    between atoms: C19_27  and  C20_29 
ROOT
HETATM    1  C10 UNL     1      17.812  43.569  69.206  1.00  0.00     0.126 C 
ENDROOT
BRANCH   1   2
HETATM    2  N2  UNL     1      16.967  42.966  68.196  1.00  0.00    -0.399 N 
ATOM      3  H2  UNL     1      16.082  42.538  68.466  1.00  0.00     0.154 HD
BRANCH   2   4
HETATM    4  C3  UNL     1      17.357  42.966  66.845  1.00  0.00     0.177 C 
BRANCH   4   5
HETATM    5  C2  UNL     1      16.553  42.361  65.795  1.00  0.00     0.240 C 
HETATM    6  N1  UNL     1      15.474  42.981  65.096  1.00  0.00    -0.364 N 
HETATM    7  C1  UNL     1      14.732  42.304  64.066  1.00  0.00     0.149 C 
ATOM      8  H1  UNL     1      15.219  43.939  65.335  1.00  0.00     0.161 HD
HETATM    9  O1  UNL     1      16.788  41.166  65.433  1.00  0.00    -0.271 OA
ENDBRANCH   4   5
BRANCH   4  10
HETATM   10  C4  UNL     1      18.752  42.239  66.801  1.00  0.00     0.113 C 
BRANCH  10  11
HETATM   11  C5  UNL     1      19.829  43.088  66.310  1.00  0.00     0.133 C 
HETATM   12  O2  UNL     1      19.626  44.174  65.785  1.00  0.00    -0.297 OA
BRANCH  11  13
HETATM   13  C6  UNL     1      21.270  42.716  66.401  1.00  0.00     0.059 A 
HETATM   14  C7  UNL     1      21.861  43.213  67.742  1.00  0.00     0.017 A 
HETATM   15  C8  UNL     1      21.860  41.779  67.334  1.00  0.00    -0.007 A 
HETATM   16  C9  UNL     1      21.145  40.747  68.130  1.00  0.00     0.011 C 
ENDBRANCH  11  13
ENDBRANCH  10  11
ENDBRANCH   4  10
ENDBRANCH   2   4
ENDBRANCH   1   2
BRANCH   1  17
HETATM   17  C11 UNL     1      17.578  44.989  69.350  1.00  0.00     0.005 C 
HETATM   18  C12 UNL     1      16.200  45.460  68.833  1.00  0.00     0.012 C 
HETATM   19  C13 UNL     1      18.616  45.891  68.679  1.00  0.00     0.012 C 
ENDBRANCH   1  17
BRANCH   1  20
HETATM   20  C14 UNL     1      17.752  42.607  70.334  1.00  0.00     0.012 C 
BRANCH  20  21
HETATM   21  C15 UNL     1      18.754  41.611  70.642  1.00  0.00     0.058 C 
BRANCH  21  22
HETATM   22  C16 UNL     1      19.669  41.800  71.799  1.00  0.00    -0.017 C 
HETATM   23  C17 UNL     1      20.166  40.449  72.337  1.00  0.00     0.010 C 
HETATM   24  C18 UNL     1      20.948  42.541  71.428  1.00  0.00     0.010 C 
ENDBRANCH  21  22
ENDBRANCH  20  21
BRANCH  20  25
HETATM   25  N3  UNL     1      17.313  43.367  71.509  1.00  0.00    -0.332 N 
HETATM   26  C19 UNL     1      16.295  42.968  72.398  1.00  0.00     0.226 C 
HETATM   27  O3  UNL     1      15.715  41.878  72.176  1.00  0.00    -0.273 OA
ATOM     28  H3  UNL     1      17.782  44.253  71.699  1.00  0.00     0.168 HD
BRANCH  26  29
HETATM   29  C20 UNL     1      15.875  43.763  73.570  1.00  0.00     0.082 A 
HETATM   30  C21 UNL     1      15.421  45.168  73.396  1.00  0.00     0.019 A 
HETATM   31  C22 UNL     1      16.790  44.915  73.911  1.00  0.00    -0.005 A 
HETATM   32  C23 UNL     1      17.077  45.057  75.392  1.00  0.00     0.011 C 
ENDBRANCH  26  29
ENDBRANCH  20  25
ENDBRANCH   1  20
TORSDOF 12
ENDMDL
MODEL 4
REMARK VINA RESULT: -7.987454768      1.490      3.879
REMARK  12 active torsions:
REMARK  status: ('A' for Active; 'I' for Inactive)
REMARK       I    between atoms: N1_2  and  C2_4 
REMARK    1  A    between atoms: C2_4  and  C3_6 
REMARK    2  A    between atoms: C3_6  and  C4_7 
REMARK    3  A    between atoms: C3_6  and  N2_14 
REMARK    4  A    between atoms: C4_7  and  C5_8 
REMARK    5  A    between atoms: C5_8  and  C6_10 
REMARK    6  A    between atoms: N2_14  and  C10_16 
REMARK    7  A    between atoms: C10_16  and  C11_17 
REMARK    8  A    between atoms: C10_16  and  C14_20 
REMARK    9  A    between atoms: C14_20  and  C15_21 
REMARK   10  A    between atoms: C14_20  and  N3_25 
REMARK   11  A    between atoms: C15_21  and  C16_22 
REMARK       I    between atoms: N3_25  and  C19_27 
REMARK   12  A    between atoms: C19_27  and  C20_29 
ROOT
HETATM    1  C10 UNL     1      17.061  43.821  68.925  1.00  0.00     0.126 C 
ENDROOT
BRANCH   1   2
HETATM    2  N2  UNL     1      17.274  42.734  69.859  1.00  0.00    -0.399 N 
ATOM      3  H2  UNL     1      17.163  41.770  69.547  1.00  0.00     0.154 HD
BRANCH   2   4
HETATM    4  C3  UNL     1      17.632  42.997  71.192  1.00  0.00     0.177 C 
BRANCH   4   5
HETATM    5  C2  UNL     1      18.830  42.449  71.808  1.00  0.00     0.240 C 
HETATM    6  N1  UNL     1      19.047  41.082  72.161  1.00  0.00    -0.364 N 
HETATM    7  C1  UNL     1      20.269  40.628  72.768  1.00  0.00     0.149 C 
ATOM      8  H1  UNL     1      18.309  40.404  71.976  1.00  0.00     0.161 HD
HETATM    9  O1  UNL     1      19.802  43.218  72.086  1.00  0.00    -0.271 OA
ENDBRANCH   4   5
BRANCH   4  10
HETATM   10  C4  UNL     1      16.423  42.498  72.068  1.00  0.00     0.113 C 
BRANCH  10  11
HETATM   11  C5  UNL     1      16.127  43.372  73.194  1.00  0.00     0.133 C 
HETATM   12  O2  UNL     1      15.664  42.957  74.247  1.00  0.00    -0.297 OA
BRANCH  11  13
HETATM   13  C6  UNL     1      16.361  44.845  73.169  1.00  0.00     0.059 A 
HETATM   14  C7  UNL     1      15.144  45.563  72.538  1.00  0.00     0.017 A 
HETATM   15  C8  UNL     1      15.631  45.845  73.919  1.00  0.00    -0.007 A 
HETATM   16  C9  UNL     1      14.769  45.613  75.108  1.00  0.00     0.011 C 
ENDBRANCH  11  13
ENDBRANCH  10  11
ENDBRANCH   4  10
ENDBRANCH   2   4
ENDBRANCH   1   2
BRANCH   1  17
HETATM   17  C11 UNL     1      17.396  45.110  69.488  1.00  0.00     0.005 C 
HETATM   18  C12 UNL     1      16.355  46.216  69.203  1.00  0.00     0.012 C 
HETATM   19  C13 UNL     1      18.750  45.677  69.055  1.00  0.00     0.012 C 
ENDBRANCH   1  17
BRANCH   1  20
HETATM   20  C14 UNL     1      17.628  43.307  67.653  1.00  0.00     0.012 C 
BRANCH  20  21
HETATM   21  C15 UNL     1      18.879  42.595  67.520  1.00  0.00     0.058 C 
BRANCH  21  22
HETATM   22  C16 UNL     1      19.735  42.799  66.321  1.00  0.00    -0.017 C 
HETATM   23  C17 UNL     1      19.599  44.231  65.782  1.00  0.00     0.010 C 
HETATM   24  C18 UNL     1      21.222  42.660  66.624  1.00  0.00     0.010 C 
ENDBRANCH  21  22
ENDBRANCH  20  21
BRANCH  20  25
HETATM   25  N3  UNL     1      16.522  42.672  66.929  1.00  0.00    -0.332 N 
HETATM   26  C19 UNL     1      15.772  43.279  65.903  1.00  0.00     0.226 C 
HETATM   27  O3  UNL     1      16.068  44.453  65.574  1.00  0.00    -0.273 OA
ATOM     28  H3  UNL     1      16.278  41.716  67.188  1.00  0.00     0.168 HD
BRANCH  26  29
HETATM   29  C20 UNL     1      14.659  42.610  65.198  1.00  0.00     0.082 A 
HETATM   30  C21 UNL     1      13.508  43.405  64.694  1.00  0.00     0.019 A 
HETATM   31  C22 UNL     1      13.346  42.619  65.943  1.00  0.00    -0.005 A 
HETATM   32  C23 UNL     1      12.610  41.295  65.910  1.00  0.00     0.011 C 
ENDBRANCH  26  29
ENDBRANCH  20  25
ENDBRANCH   1  20
TORSDOF 12
ENDMDL
MODEL 5
REMARK VINA RESULT: -7.969910534      1.183      1.634
REMARK  12 active torsions:
REMARK  status: ('A' for Active; 'I' for Inactive)
REMARK       I    between atoms: N1_2  and  C2_4 
REMARK    1  A    between atoms: C2_4  and  C3_6 
REMARK    2  A    between atoms: C3_6  and  C4_7 
REMARK    3  A    between atoms: C3_6  and  N2_14 
REMARK    4  A    between atoms: C4_7  and  C5_8 
REMARK    5  A    between atoms: C5_8  and  C6_10 
REMARK    6  A    between atoms: N2_14  and  C10_16 
REMARK    7  A    between atoms: C10_16  and  C11_17 
REMARK    8  A    between atoms: C10_16  and  C14_20 
REMARK    9  A    between atoms: C14_20  and  C15_21 
REMARK   10  A    between atoms: C14_20  and  N3_25 
REMARK   11  A    between atoms: C15_21  and  C16_22 
REMARK       I    between atoms: N3_25  and  C19_27 
REMARK   12  A    between atoms: C19_27  and  C20_29 
ROOT
HETATM    1  C10 UNL     1      17.636  43.282  68.613  1.00  0.00     0.126 C 
ENDROOT
BRANCH   1   2
HETATM    2  N2  UNL     1      18.804  42.723  69.263  1.00  0.00    -0.399 N 
ATOM      3  H2  UNL     1      19.728  42.877  68.861  1.00  0.00     0.154 HD
BRANCH   2   4
HETATM    4  C3  UNL     1      18.675  41.972  70.444  1.00  0.00     0.177 C 
BRANCH   4   5
HETATM    5  C2  UNL     1      17.895  42.425  71.584  1.00  0.00     0.240 C 
HETATM    6  N1  UNL     1      16.475  42.350  71.718  1.00  0.00    -0.364 N 
HETATM    7  C1  UNL     1      15.785  42.825  72.887  1.00  0.00     0.149 C 
ATOM      8  H1  UNL     1      15.931  41.945  70.957  1.00  0.00     0.161 HD
HETATM    9  O1  UNL     1      18.483  42.954  72.578  1.00  0.00    -0.271 OA
ENDBRANCH   4   5
BRANCH   4  10
HETATM   10  C4  UNL     1      20.140  41.753  70.976  1.00  0.00     0.113 C 
BRANCH  10  11
HETATM   11  C5  UNL     1      20.450  40.358  71.255  1.00  0.00     0.133 C 
HETATM   12  O2  UNL     1      20.068  39.787  72.266  1.00  0.00    -0.297 OA
BRANCH  11  13
HETATM   13  C6  UNL     1      21.256  39.501  70.339  1.00  0.00     0.059 A 
HETATM   14  C7  UNL     1      21.205  40.069  68.900  1.00  0.00     0.017 A 
HETATM   15  C8  UNL     1      22.476  39.878  69.656  1.00  0.00    -0.007 A 
HETATM   16  C9  UNL     1      23.361  41.024  69.987  1.00  0.00     0.011 C 
ENDBRANCH  11  13
ENDBRANCH  10  11
ENDBRANCH   4  10
ENDBRANCH   2   4
ENDBRANCH   1   2
BRANCH   1  17
HETATM   17  C11 UNL     1      17.309  44.603  69.100  1.00  0.00     0.005 C 
HETATM   18  C12 UNL     1      16.199  45.318  68.297  1.00  0.00     0.012 C 
HETATM   19  C13 UNL     1      18.484  45.581  69.167  1.00  0.00     0.012 C 
ENDBRANCH   1  17
BRANCH   1  20
HETATM   20  C14 UNL     1      17.845  42.962  67.180  1.00  0.00     0.012 C 
BRANCH  20  21
HETATM   21  C15 UNL     1      18.996  42.279  66.632  1.00  0.00     0.058 C 
BRANCH  21  22
HETATM   22  C16 UNL     1      20.066  43.047  65.940  1.00  0.00    -0.017 C 
HETATM   23  C17 UNL     1      19.770  44.555  65.969  1.00  0.00     0.010 C 
HETATM   24  C18 UNL     1      21.421  42.925  66.625  1.00  0.00     0.010 C 
ENDBRANCH  21  22
ENDBRANCH  20  21
BRANCH  20  25
HETATM   25  N3  UNL     1      16.571  42.439  66.676  1.00  0.00    -0.332 N 
HETATM   26  C19 UNL     1      15.852  42.970  65.587  1.00  0.00     0.226 C 
HETATM   27  O3  UNL     1      16.333  43.965  64.994  1.00  0.00    -0.273 OA
ATOM     28  H3  UNL     1      16.175  41.628  67.151  1.00  0.00     0.168 HD
BRANCH  26  29
HETATM   29  C20 UNL     1      14.566  42.421  65.111  1.00  0.00     0.082 A 
HETATM   30  C21 UNL     1      13.512  43.330  64.588  1.00  0.00     0.019 A 
HETATM   31  C22 UNL     1      13.372  42.784  65.961  1.00  0.00    -0.005 A 
HETATM   32  C23 UNL     1      12.425  41.630  66.221  1.00  0.00     0.011 C 
ENDBRANCH  26  29
ENDBRANCH  20  25
ENDBRANCH   1  20
TORSDOF 12
ENDMDL
