MODEL 1
REMARK VINA RESULT: -5.676573219      0.000      0.000
REMARK  4 active torsions:
REMARK  status: ('A' for Active; 'I' for Inactive)
REMARK    1  A    between atoms: N1_2  and  N2_3 
REMARK    2  A    between atoms: N1_2  and  N3_6 
REMARK    3  A    between atoms: N3_6  and  C2_8 
REMARK    4  A    between atoms: C2_8  and  N4_10 
REMARK       I    between atoms: N4_10  and  C3_12 
ROOT
HETATM    1  N3  UNL     1      29.669  46.874  -1.590  1.00  0.00    -0.278 N 
ATOM      2  H3  UNL     1      30.675  47.012  -1.692  1.00  0.00     0.185 HD
ENDROOT
BRANCH   1   3
HETATM    3  N1  UNL     1      29.178  46.243  -0.444  1.00  0.00    -0.149 NA
HETATM    4  C1  UNL     1      28.822  47.196   0.595  1.00  0.00     0.162 C 
BRANCH   3   5
HETATM    5  N2  UNL     1      28.089  45.433  -0.742  1.00  0.00    -0.346 NA
ATOM      6  H22 UNL     1      27.684  45.675  -1.646  1.00  0.00     0.172 HD
ATOM      7  H21 UNL     1      27.401  45.480   0.011  1.00  0.00     0.172 HD
ENDBRANCH   3   5
ENDBRANCH   1   3
BRANCH   1   8
HETATM    8  C2  UNL     1      28.788  47.333  -2.628  1.00  0.00     0.191 C 
HETATM    9  S1  UNL     1      28.623  46.517  -4.022  1.00  0.00    -0.039 SA
BRANCH   8  10
HETATM   10  N4  UNL     1      28.053  48.520  -2.425  1.00  0.00    -0.287 N 
HETATM   11  C3  UNL     1      26.720  48.522  -1.937  1.00  0.00     0.334 C 
HETATM   12  N5  UNL     1      26.077  49.771  -1.769  1.00  0.00    -0.040 NA
HETATM   13  O1  UNL     1      26.161  47.432  -1.673  1.00  0.00    -0.251 OA
ATOM     14  H4  UNL     1      28.498  49.413  -2.636  1.00  0.00     0.172 HD
ENDBRANCH   8  10
ENDBRANCH   1   8
TORSDOF 4
ENDMDL
MODEL 2
REMARK VINA RESULT: -5.631655006      2.179      3.206
REMARK  4 active torsions:
REMARK  status: ('A' for Active; 'I' for Inactive)
REMARK    1  A    between atoms: N1_2  and  N2_3 
REMARK    2  A    between atoms: N1_2  and  N3_6 
REMARK    3  A    between atoms: N3_6  and  C2_8 
REMARK    4  A    between atoms: C2_8  and  N4_10 
REMARK       I    between atoms: N4_10  and  C3_12 
ROOT
HETATM    1  N3  UNL     1      28.429  47.868  -3.615  1.00  0.00    -0.278 N 
ATOM      2  H3  UNL     1      29.245  48.335  -4.011  1.00  0.00     0.185 HD
ENDROOT
BRANCH   1   3
HETATM    3  N1  UNL     1      28.063  46.607  -4.096  1.00  0.00    -0.149 NA
HETATM    4  C1  UNL     1      29.059  46.057  -5.002  1.00  0.00     0.162 C 
BRANCH   3   5
HETATM    5  N2  UNL     1      27.823  45.720  -3.054  1.00  0.00    -0.346 NA
ATOM      6  H22 UNL     1      28.033  44.760  -3.330  1.00  0.00     0.172 HD
ATOM      7  H21 UNL     1      26.864  45.821  -2.721  1.00  0.00     0.172 HD
ENDBRANCH   3   5
ENDBRANCH   1   3
BRANCH   1   8
HETATM    8  C2  UNL     1      27.681  48.518  -2.574  1.00  0.00     0.191 C 
HETATM    9  S1  UNL     1      26.239  49.204  -2.868  1.00  0.00    -0.039 SA
BRANCH   8  10
HETATM   10  N4  UNL     1      28.219  48.558  -1.270  1.00  0.00    -0.287 N 
HETATM   11  C3  UNL     1      27.870  47.614  -0.269  1.00  0.00     0.334 C 
HETATM   12  N5  UNL     1      28.470  47.748   1.006  1.00  0.00    -0.040 NA
HETATM   13  O1  UNL     1      27.052  46.705  -0.540  1.00  0.00    -0.251 OA
ATOM     14  H4  UNL     1      28.885  49.294  -1.038  1.00  0.00     0.172 HD
ENDBRANCH   8  10
ENDBRANCH   1   8
TORSDOF 4
ENDMDL
MODEL 3
REMARK VINA RESULT: -5.506463634      2.422      3.415
REMARK  4 active torsions:
REMARK  status: ('A' for Active; 'I' for Inactive)
REMARK    1  A    between atoms: N1_2  and  N2_3 
REMARK    2  A    between atoms: N1_2  and  N3_6 
REMARK    3  A    between atoms: N3_6  and  C2_8 
REMARK    4  A    between atoms: C2_8  and  N4_10 
REMARK       I    between atoms: N4_10  and  C3_12 
ROOT
HETATM    1  N3  UNL     1      28.122  47.897  -3.428  1.00  0.00    -0.278 N 
ATOM      2  H3  UNL     1      28.868  48.522  -3.734  1.00  0.00     0.185 HD
ENDROOT
BRANCH   1   3
HETATM    3  N1  UNL     1      28.024  46.622  -3.993  1.00  0.00    -0.149 NA
HETATM    4  C1  UNL     1      29.222  46.259  -4.734  1.00  0.00     0.162 C 
BRANCH   3   5
HETATM    5  N2  UNL     1      27.751  45.661  -3.028  1.00  0.00    -0.346 NA
ATOM      6  H22 UNL     1      28.525  45.004  -2.931  1.00  0.00     0.172 HD
ATOM      7  H21 UNL     1      26.872  45.189  -3.242  1.00  0.00     0.172 HD
ENDBRANCH   3   5
ENDBRANCH   1   3
BRANCH   1   8
HETATM    8  C2  UNL     1      27.195  48.344  -2.424  1.00  0.00     0.191 C 
HETATM    9  S1  UNL     1      26.013  49.401  -2.773  1.00  0.00    -0.039 SA
BRANCH   8  10
HETATM   10  N4  UNL     1      27.322  47.849  -1.109  1.00  0.00    -0.287 N 
HETATM   11  C3  UNL     1      28.507  48.007  -0.342  1.00  0.00     0.334 C 
HETATM   12  N5  UNL     1      28.524  47.472   0.968  1.00  0.00    -0.040 NA
HETATM   13  O1  UNL     1      29.486  48.608  -0.842  1.00  0.00    -0.251 OA
ATOM     14  H4  UNL     1      26.531  47.358  -0.693  1.00  0.00     0.172 HD
ENDBRANCH   8  10
ENDBRANCH   1   8
TORSDOF 4
ENDMDL
MODEL 4
REMARK VINA RESULT: -5.501146589      2.212      3.387
REMARK  4 active torsions:
REMARK  status: ('A' for Active; 'I' for Inactive)
REMARK    1  A    between atoms: N1_2  and  N2_3 
REMARK    2  A    between atoms: N1_2  and  N3_6 
REMARK    3  A    between atoms: N3_6  and  C2_8 
REMARK    4  A    between atoms: C2_8  and  N4_10 
REMARK       I    between atoms: N4_10  and  C3_12 
ROOT
HETATM    1  N3  UNL     1      29.379  48.718  -2.786  1.00  0.00    -0.278 N 
ATOM      2  H3  UNL     1      29.428  49.356  -3.580  1.00  0.00     0.185 HD
ENDROOT
BRANCH   1   3
HETATM    3  N1  UNL     1      30.558  48.353  -2.128  1.00  0.00    -0.149 NA
HETATM    4  C1  UNL     1      31.718  48.432  -3.002  1.00  0.00     0.162 C 
BRANCH   3   5
HETATM    5  N2  UNL     1      30.762  49.126  -0.993  1.00  0.00    -0.346 NA
ATOM      6  H22 UNL     1      31.755  49.202  -0.770  1.00  0.00     0.172 HD
ATOM      7  H21 UNL     1      30.222  48.752  -0.212  1.00  0.00     0.172 HD
ENDBRANCH   3   5
ENDBRANCH   1   3
BRANCH   1   8
HETATM    8  C2  UNL     1      28.100  48.213  -2.366  1.00  0.00     0.191 C 
HETATM    9  S1  UNL     1      26.720  48.977  -2.751  1.00  0.00    -0.039 SA
BRANCH   8  10
HETATM   10  N4  UNL     1      28.051  47.028  -1.604  1.00  0.00    -0.287 N 
HETATM   11  C3  UNL     1      28.125  47.026  -0.186  1.00  0.00     0.334 C 
HETATM   12  N5  UNL     1      28.066  45.777   0.478  1.00  0.00    -0.040 NA
HETATM   13  O1  UNL     1      28.239  48.113   0.425  1.00  0.00    -0.251 OA
ATOM     14  H4  UNL     1      27.960  46.136  -2.091  1.00  0.00     0.172 HD
ENDBRANCH   8  10
ENDBRANCH   1   8
TORSDOF 4
ENDMDL
MODEL 5
REMARK VINA RESULT: -5.484072370      2.004      2.666
REMARK  4 active torsions:
REMARK  status: ('A' for Active; 'I' for Inactive)
REMARK    1  A    between atoms: N1_2  and  N2_3 
REMARK    2  A    between atoms: N1_2  and  N3_6 
REMARK    3  A    between atoms: N3_6  and  C2_8 
REMARK    4  A    between atoms: C2_8  and  N4_10 
REMARK       I    between atoms: N4_10  and  C3_12 
ROOT
HETATM    1  N3  UNL     1      29.788  47.076  -2.430  1.00  0.00    -0.278 N 
ATOM      2  H3  UNL     1      30.774  46.847  -2.307  1.00  0.00     0.185 HD
ENDROOT
BRANCH   1   3
HETATM    3  N1  UNL     1      29.189  46.875  -3.676  1.00  0.00    -0.149 NA
HETATM    4  C1  UNL     1      30.157  46.496  -4.693  1.00  0.00     0.162 C 
BRANCH   3   5
HETATM    5  N2  UNL     1      28.178  45.925  -3.603  1.00  0.00    -0.346 NA
ATOM      6  H22 UNL     1      28.436  45.070  -4.096  1.00  0.00     0.172 HD
ATOM      7  H21 UNL     1      27.302  46.317  -3.950  1.00  0.00     0.172 HD
ENDBRANCH   3   5
ENDBRANCH   1   3
BRANCH   1   8
HETATM    8  C2  UNL     1      29.043  47.599  -1.317  1.00  0.00     0.191 C 
HETATM    9  S1  UNL     1      29.154  46.939   0.162  1.00  0.00    -0.039 SA
BRANCH   8  10
HETATM   10  N4  UNL     1      28.199  48.710  -1.522  1.00  0.00    -0.287 N 
HETATM   11  C3  UNL     1      26.792  48.587  -1.672  1.00  0.00     0.334 C 
HETATM   12  N5  UNL     1      26.041  49.769  -1.873  1.00  0.00    -0.040 NA
HETATM   13  O1  UNL     1      26.267  47.450  -1.622  1.00  0.00    -0.251 OA
ATOM     14  H4  UNL     1      28.616  49.640  -1.565  1.00  0.00     0.172 HD
ENDBRANCH   8  10
ENDBRANCH   1   8
TORSDOF 4
ENDMDL
