MODEL 1
REMARK VINA RESULT: -4.704324723      0.000      0.000
REMARK  1 active torsions:
REMARK  status: ('A' for Active; 'I' for Inactive)
REMARK    1  A    between atoms: C4_5  and  N2_6 
ROOT
HETATM    1  N1  UNL     1      34.348  26.361  16.641  1.00  0.00    -0.191 NA
HETATM    2  C1  UNL     1      34.085  26.753  15.568  1.00  0.00     0.103 C 
HETATM    3  C2  UNL     1      33.744  27.240  14.263  1.00  0.00     0.088 A 
HETATM    4  C3  UNL     1      33.608  28.607  13.998  1.00  0.00     0.061 A 
HETATM    5  C4  UNL     1      33.280  29.065  12.742  1.00  0.00     0.092 A 
HETATM    6  C5  UNL     1      33.083  28.154  11.723  1.00  0.00     0.128 A 
HETATM    7  N4  UNL     1      32.770  28.546  10.512  1.00  0.00    -0.384 N 
ATOM      8  H41 UNL     1      32.624  27.873   9.760  1.00  0.00     0.157 HD
ATOM      9  H42 UNL     1      32.667  29.539  10.302  1.00  0.00     0.157 HD
HETATM   10  N5  UNL     1      33.219  26.846  12.000  1.00  0.00    -0.328 N 
ATOM     11  H5  UNL     1      33.072  26.178  11.244  1.00  0.00     0.168 HD
HETATM   12  C6  UNL     1      33.538  26.367  13.215  1.00  0.00     0.138 A 
HETATM   13  N6  UNL     1      33.676  24.978  13.484  1.00  0.00    -0.081 NA
ENDROOT
BRANCH   5  14
HETATM   14  N2  UNL     1      33.149  30.451  12.502  1.00  0.00    -0.304 N 
HETATM   15  N3  UNL     1      33.793  31.104  11.653  1.00  0.00    -0.345 N 
ATOM     16  H32 UNL     1      34.466  30.577  11.095  1.00  0.00     0.176 HD
ATOM     17  H31 UNL     1      33.697  32.105  11.479  1.00  0.00     0.176 HD
ATOM     18  H2  UNL     1      32.472  30.961  13.069  1.00  0.00     0.186 HD
ENDBRANCH   5  14
TORSDOF 1
ENDMDL
MODEL 2
REMARK VINA RESULT: -4.013377005      0.723      4.223
REMARK  1 active torsions:
REMARK  status: ('A' for Active; 'I' for Inactive)
REMARK    1  A    between atoms: C4_5  and  N2_6 
ROOT
HETATM    1  N1  UNL     1      33.498  31.324  11.689  1.00  0.00    -0.191 NA
HETATM    2  C1  UNL     1      33.547  30.221  12.085  1.00  0.00     0.103 C 
HETATM    3  C2  UNL     1      33.629  28.872  12.568  1.00  0.00     0.088 A 
HETATM    4  C3  UNL     1      34.266  28.558  13.772  1.00  0.00     0.061 A 
HETATM    5  C4  UNL     1      34.339  27.261  14.227  1.00  0.00     0.092 A 
HETATM    6  C5  UNL     1      33.771  26.251  13.476  1.00  0.00     0.128 A 
HETATM    7  N4  UNL     1      33.817  25.002  13.871  1.00  0.00    -0.384 N 
ATOM      8  H41 UNL     1      33.398  24.255  13.317  1.00  0.00     0.157 HD
ATOM      9  H42 UNL     1      34.278  24.755  14.747  1.00  0.00     0.157 HD
HETATM   10  N5  UNL     1      33.164  26.576  12.322  1.00  0.00    -0.328 N 
ATOM     11  H5  UNL     1      32.747  25.826  11.772  1.00  0.00     0.168 HD
HETATM   12  C6  UNL     1      33.076  27.832  11.851  1.00  0.00     0.138 A 
HETATM   13  N6  UNL     1      32.428  28.152  10.627  1.00  0.00    -0.081 NA
ENDROOT
BRANCH   5  14
HETATM   14  N2  UNL     1      34.989  26.970  15.447  1.00  0.00    -0.304 N 
HETATM   15  N3  UNL     1      34.561  26.195  16.330  1.00  0.00    -0.345 N 
ATOM     16  H32 UNL     1      33.667  25.743  16.137  1.00  0.00     0.176 HD
ATOM     17  H31 UNL     1      35.030  25.985  17.211  1.00  0.00     0.176 HD
ATOM     18  H2  UNL     1      35.882  27.431  15.623  1.00  0.00     0.186 HD
ENDBRANCH   5  14
TORSDOF 1
ENDMDL
MODEL 3
REMARK VINA RESULT: -3.766212992     12.033     12.786
REMARK  1 active torsions:
REMARK  status: ('A' for Active; 'I' for Inactive)
REMARK    1  A    between atoms: C4_5  and  N2_6 
ROOT
HETATM    1  N1  UNL     1      31.703  34.831   2.975  1.00  0.00    -0.191 NA
HETATM    2  C1  UNL     1      32.714  35.250   3.397  1.00  0.00     0.103 C 
HETATM    3  C2  UNL     1      33.953  35.745   3.924  1.00  0.00     0.088 A 
HETATM    4  C3  UNL     1      35.166  35.084   3.702  1.00  0.00     0.061 A 
HETATM    5  C4  UNL     1      36.349  35.567   4.212  1.00  0.00     0.092 A 
HETATM    6  C5  UNL     1      36.337  36.728   4.958  1.00  0.00     0.128 A 
HETATM    7  N4  UNL     1      37.440  37.224   5.464  1.00  0.00    -0.384 N 
ATOM      8  H41 UNL     1      37.432  38.082   6.015  1.00  0.00     0.157 HD
ATOM      9  H42 UNL     1      38.333  36.755   5.311  1.00  0.00     0.157 HD
HETATM   10  N5  UNL     1      35.161  37.346   5.160  1.00  0.00    -0.328 N 
ATOM     11  H5  UNL     1      35.157  38.204   5.712  1.00  0.00     0.168 HD
HETATM   12  C6  UNL     1      33.988  36.901   4.675  1.00  0.00     0.138 A 
HETATM   13  N6  UNL     1      32.756  37.573   4.901  1.00  0.00    -0.081 NA
ENDROOT
BRANCH   5  14
HETATM   14  N2  UNL     1      37.560  34.880   3.973  1.00  0.00    -0.304 N 
HETATM   15  N3  UNL     1      37.776  33.677   4.236  1.00  0.00    -0.345 N 
ATOM     16  H32 UNL     1      37.003  33.163   4.659  1.00  0.00     0.176 HD
ATOM     17  H31 UNL     1      38.651  33.181   4.063  1.00  0.00     0.176 HD
ATOM     18  H2  UNL     1      38.323  35.410   3.550  1.00  0.00     0.186 HD
ENDBRANCH   5  14
TORSDOF 1
ENDMDL
MODEL 4
REMARK VINA RESULT: -3.521028358      1.428      2.688
REMARK  1 active torsions:
REMARK  status: ('A' for Active; 'I' for Inactive)
REMARK    1  A    between atoms: C4_5  and  N2_6 
ROOT
HETATM    1  N1  UNL     1      33.571  24.931  13.763  1.00  0.00    -0.191 NA
HETATM    2  C1  UNL     1      33.584  26.045  13.400  1.00  0.00     0.103 C 
HETATM    3  C2  UNL     1      33.617  27.405  12.942  1.00  0.00     0.088 A 
HETATM    4  C3  UNL     1      33.393  27.737  11.602  1.00  0.00     0.061 A 
HETATM    5  C4  UNL     1      33.426  29.045  11.173  1.00  0.00     0.092 A 
HETATM    6  C5  UNL     1      33.686  30.047  12.087  1.00  0.00     0.128 A 
HETATM    7  N4  UNL     1      33.727  31.306  11.722  1.00  0.00    -0.384 N 
ATOM      8  H41 UNL     1      33.919  32.046  12.396  1.00  0.00     0.157 HD
ATOM      9  H42 UNL     1      33.566  31.566  10.749  1.00  0.00     0.157 HD
HETATM   10  N5  UNL     1      33.898  29.705  13.369  1.00  0.00    -0.328 N 
ATOM     11  H5  UNL     1      34.089  30.449  14.039  1.00  0.00     0.168 HD
HETATM   12  C6  UNL     1      33.872  28.439  13.820  1.00  0.00     0.138 A 
HETATM   13  N6  UNL     1      34.099  28.100  15.181  1.00  0.00    -0.081 NA
ENDROOT
BRANCH   5  14
HETATM   14  N2  UNL     1      33.197  29.354   9.814  1.00  0.00    -0.304 N 
HETATM   15  N3  UNL     1      32.220  29.996   9.371  1.00  0.00    -0.345 N 
ATOM     16  H32 UNL     1      31.541  30.316  10.062  1.00  0.00     0.176 HD
ATOM     17  H31 UNL     1      32.055  30.219   8.389  1.00  0.00     0.176 HD
ATOM     18  H2  UNL     1      33.886  29.026   9.137  1.00  0.00     0.186 HD
ENDBRANCH   5  14
TORSDOF 1
ENDMDL
MODEL 5
REMARK VINA RESULT: -2.952457201      1.386      4.931
REMARK  1 active torsions:
REMARK  status: ('A' for Active; 'I' for Inactive)
REMARK    1  A    between atoms: C4_5  and  N2_6 
ROOT
HETATM    1  N1  UNL     1      32.171  29.942   9.074  1.00  0.00    -0.191 NA
HETATM    2  C1  UNL     1      32.573  29.564  10.109  1.00  0.00     0.103 C 
HETATM    3  C2  UNL     1      33.046  29.098  11.381  1.00  0.00     0.088 A 
HETATM    4  C3  UNL     1      32.892  27.767  11.781  1.00  0.00     0.061 A 
HETATM    5  C4  UNL     1      33.349  27.329  13.004  1.00  0.00     0.092 A 
HETATM    6  C5  UNL     1      33.973  28.224  13.850  1.00  0.00     0.128 A 
HETATM    7  N4  UNL     1      34.423  27.850  15.022  1.00  0.00    -0.384 N 
ATOM      8  H41 UNL     1      34.884  28.511  15.648  1.00  0.00     0.157 HD
ATOM      9  H42 UNL     1      34.319  26.883  15.330  1.00  0.00     0.157 HD
HETATM   10  N5  UNL     1      34.110  29.497  13.444  1.00  0.00    -0.328 N 
ATOM     11  H5  UNL     1      34.572  30.154  14.073  1.00  0.00     0.168 HD
HETATM   12  C6  UNL     1      33.675  29.957  12.258  1.00  0.00     0.138 A 
HETATM   13  N6  UNL     1      33.832  31.309  11.850  1.00  0.00    -0.081 NA
ENDROOT
BRANCH   5  14
HETATM   14  N2  UNL     1      33.180  25.979  13.384  1.00  0.00    -0.304 N 
HETATM   15  N3  UNL     1      34.041  25.271  13.950  1.00  0.00    -0.345 N 
ATOM     16  H32 UNL     1      34.936  25.722  14.146  1.00  0.00     0.176 HD
ATOM     17  H31 UNL     1      33.919  24.297  14.225  1.00  0.00     0.176 HD
ATOM     18  H2  UNL     1      32.280  25.545  13.180  1.00  0.00     0.186 HD
ENDBRANCH   5  14
TORSDOF 1
ENDMDL
