MODEL 1
REMARK VINA RESULT: -9.171077222      0.000      0.000
REMARK  16 active torsions:
REMARK  status: ('A' for Active; 'I' for Inactive)
REMARK    1  A    between atoms: C2_2  and  C3_3 
REMARK    2  A    between atoms: C2_2  and  N4_22 
REMARK    3  A    between atoms: C3_3  and  C4_4 
REMARK    4  A    between atoms: C4_4  and  C5_5 
REMARK    5  A    between atoms: C5_5  and  C6_6 
REMARK    6  A    between atoms: C6_6  and  N1_7 
REMARK       I    between atoms: N1_7  and  C7_9 
REMARK    7  A    between atoms: C7_9  and  C8_11 
REMARK    8  A    between atoms: N4_22  and  C15_24 
REMARK    9  A    between atoms: C15_24  and  C16_25 
REMARK   10  A    between atoms: C16_25  and  C17_26 
REMARK   11  A    between atoms: C20_32  and  C21_33 
REMARK   12  A    between atoms: C21_33  and  C22_34 
REMARK   13  A    between atoms: N6_40  and  C28_41 
REMARK   14  A    between atoms: C28_41  and  C29_42 
REMARK   15  A    between atoms: N7_45  and  C32_46 
REMARK   16  A    between atoms: C32_46  and  C33_47 
ROOT
HETATM    1  C17 UNL     1      -3.919  -5.963  31.682  1.00  0.00     0.085 C 
HETATM    2  C18 UNL     1      -4.400  -6.173  33.076  1.00  0.00     0.143 C 
HETATM    3  N5  UNL     1      -4.513  -5.052  33.948  1.00  0.00    -0.355 N 
ATOM      4  H5  UNL     1      -4.532  -5.165  34.962  1.00  0.00     0.162 HD
HETATM    5  C19 UNL     1      -4.598  -3.757  33.336  1.00  0.00     0.258 C 
HETATM    6  O3  UNL     1      -4.632  -2.764  34.050  1.00  0.00    -0.267 OA
HETATM    7  C20 UNL     1      -4.623  -3.807  31.873  1.00  0.00     0.057 C 
HETATM    8  N6  UNL     1      -3.487  -4.619  31.437  1.00  0.00    -0.275 NA
ENDROOT
BRANCH   1   9
HETATM    9  C16 UNL     1      -2.939  -7.062  31.380  1.00  0.00     0.066 C 
BRANCH   9  10
HETATM   10  C15 UNL     1      -1.898  -7.073  32.471  1.00  0.00     0.057 C 
BRANCH  10  11
HETATM   11  N4  UNL     1      -0.699  -6.423  32.202  1.00  0.00    -0.398 N 
ATOM     12  H4  UNL     1      -0.648  -5.831  31.373  1.00  0.00     0.159 HD
BRANCH  11  13
HETATM   13  C2  UNL     1       0.440  -6.535  33.001  1.00  0.00     0.076 C 
HETATM   14  C1  UNL     1       0.992  -7.911  33.253  1.00  0.00     0.032 C 
BRANCH  13  15
HETATM   15  C3  UNL     1       1.620  -5.709  32.485  1.00  0.00     0.024 C 
BRANCH  15  16
HETATM   16  C4  UNL     1       2.793  -6.596  32.284  1.00  0.00     0.004 C 
BRANCH  16  17
HETATM   17  C5  UNL     1       3.453  -6.521  30.943  1.00  0.00     0.020 C 
BRANCH  17  18
HETATM   18  C6  UNL     1       2.436  -6.449  29.818  1.00  0.00     0.122 C 
BRANCH  18  19
HETATM   19  N1  UNL     1       2.701  -5.365  28.911  1.00  0.00    -0.359 N 
HETATM   20  C7  UNL     1       3.307  -5.556  27.637  1.00  0.00     0.251 C 
HETATM   21  O1  UNL     1       3.606  -6.738  27.335  1.00  0.00    -0.271 OA
ATOM     22  H1  UNL     1       2.444  -4.419  29.192  1.00  0.00     0.162 HD
BRANCH  20  23
HETATM   23  C8  UNL     1       3.586  -4.474  26.700  1.00  0.00     0.315 C 
HETATM   24  C9  UNL     1       3.313  -3.090  27.189  1.00  0.00     0.048 C 
HETATM   25  C10 UNL     1       4.242  -2.188  26.371  1.00  0.00     0.040 C 
HETATM   26  C11 UNL     1       4.907  -3.178  25.463  1.00  0.00     0.242 C 
HETATM   27  C12 UNL     1       6.264  -2.736  24.963  1.00  0.00     0.158 C 
HETATM   28  N3  UNL     1       4.998  -4.369  26.319  1.00  0.00     0.117 N 
HETATM   29  N2  UNL     1       7.214  -2.663  26.065  1.00  0.00    -0.357 N 
HETATM   30  C13 UNL     1       6.970  -3.283  27.302  1.00  0.00     0.246 C 
ATOM     31  H2  UNL     1       8.084  -2.146  25.934  1.00  0.00     0.162 HD
HETATM   32  O2  UNL     1       7.775  -3.069  28.253  1.00  0.00    -0.272 OA
HETATM   33  C14 UNL     1       5.794  -4.164  27.478  1.00  0.00     0.376 C 
ENDBRANCH  20  23
ENDBRANCH  18  19
ENDBRANCH  17  18
ENDBRANCH  16  17
ENDBRANCH  15  16
ENDBRANCH  13  15
ENDBRANCH  11  13
ENDBRANCH  10  11
ENDBRANCH   9  10
ENDBRANCH   1   9
BRANCH   8  34
HETATM   34  C28 UNL     1      -2.989  -4.347  30.159  1.00  0.00     0.102 C 
BRANCH  34  35
HETATM   35  C29 UNL     1      -1.968  -3.229  30.040  1.00  0.00     0.029 C 
HETATM   36  C30 UNL     1      -0.567  -3.790  30.000  1.00  0.00     0.038 C 
HETATM   37  C31 UNL     1       0.161  -2.777  29.099  1.00  0.00     0.273 C 
HETATM   38  N7  UNL     1      -0.805  -2.287  28.204  1.00  0.00     0.089 N 
HETATM   39  C37 UNL     1      -2.103  -2.477  28.758  1.00  0.00     0.278 C 
BRANCH  38  40
HETATM   40  C32 UNL     1      -0.512  -1.019  27.656  1.00  0.00     0.280 C 
BRANCH  40  41
HETATM   41  C33 UNL     1      -0.297  -0.999  26.175  1.00  0.00    -0.025 C 
HETATM   42  C34 UNL     1      -1.571  -0.417  25.548  1.00  0.00     0.016 C 
HETATM   43  C35 UNL     1       0.802   0.030  25.862  1.00  0.00     0.016 C 
HETATM   44  C36 UNL     1       0.012  -2.294  25.520  1.00  0.00     0.016 C 
ENDBRANCH  40  41
ENDBRANCH  38  40
ENDBRANCH  34  35
ENDBRANCH   8  34
BRANCH   7  45
HETATM   45  C21 UNL     1      -5.076  -2.649  31.154  1.00  0.00     0.061 C 
BRANCH  45  46
HETATM   46  C22 UNL     1      -6.051  -1.698  31.791  1.00  0.00    -0.009 C 
HETATM   47  C23 UNL     1      -7.448  -2.330  31.599  1.00  0.00     0.005 C 
HETATM   48  C24 UNL     1      -8.481  -1.716  32.483  1.00  0.00     0.000 C 
HETATM   49  C25 UNL     1      -8.526  -0.236  32.136  1.00  0.00     0.000 C 
HETATM   50  C26 UNL     1      -7.176   0.384  32.286  1.00  0.00     0.000 C 
HETATM   51  C27 UNL     1      -6.113  -0.298  31.383  1.00  0.00     0.005 C 
ENDBRANCH  45  46
ENDBRANCH   7  45
TORSDOF 16
ENDMDL
MODEL 2
REMARK VINA RESULT: -9.100017784      1.193      1.616
REMARK  16 active torsions:
REMARK  status: ('A' for Active; 'I' for Inactive)
REMARK    1  A    between atoms: C2_2  and  C3_3 
REMARK    2  A    between atoms: C2_2  and  N4_22 
REMARK    3  A    between atoms: C3_3  and  C4_4 
REMARK    4  A    between atoms: C4_4  and  C5_5 
REMARK    5  A    between atoms: C5_5  and  C6_6 
REMARK    6  A    between atoms: C6_6  and  N1_7 
REMARK       I    between atoms: N1_7  and  C7_9 
REMARK    7  A    between atoms: C7_9  and  C8_11 
REMARK    8  A    between atoms: N4_22  and  C15_24 
REMARK    9  A    between atoms: C15_24  and  C16_25 
REMARK   10  A    between atoms: C16_25  and  C17_26 
REMARK   11  A    between atoms: C20_32  and  C21_33 
REMARK   12  A    between atoms: C21_33  and  C22_34 
REMARK   13  A    between atoms: N6_40  and  C28_41 
REMARK   14  A    between atoms: C28_41  and  C29_42 
REMARK   15  A    between atoms: N7_45  and  C32_46 
REMARK   16  A    between atoms: C32_46  and  C33_47 
ROOT
HETATM    1  C17 UNL     1      -3.875  -5.947  31.667  1.00  0.00     0.085 C 
HETATM    2  C18 UNL     1      -4.358  -6.148  33.062  1.00  0.00     0.143 C 
HETATM    3  N5  UNL     1      -4.467  -5.023  33.929  1.00  0.00    -0.355 N 
ATOM      4  H5  UNL     1      -4.487  -5.131  34.943  1.00  0.00     0.162 HD
HETATM    5  C19 UNL     1      -4.547  -3.730  33.311  1.00  0.00     0.258 C 
HETATM    6  O3  UNL     1      -4.578  -2.734  34.020  1.00  0.00    -0.267 OA
HETATM    7  C20 UNL     1      -4.572  -3.786  31.848  1.00  0.00     0.057 C 
HETATM    8  N6  UNL     1      -3.437  -4.605  31.417  1.00  0.00    -0.275 NA
ENDROOT
BRANCH   1   9
HETATM    9  C16 UNL     1      -2.899  -7.050  31.371  1.00  0.00     0.066 C 
BRANCH   9  10
HETATM   10  C15 UNL     1      -1.908  -7.116  32.506  1.00  0.00     0.057 C 
BRANCH  10  11
HETATM   11  N4  UNL     1      -0.709  -6.433  32.334  1.00  0.00    -0.398 N 
ATOM     12  H4  UNL     1      -0.629  -5.794  31.542  1.00  0.00     0.159 HD
BRANCH  11  13
HETATM   13  C2  UNL     1       0.391  -6.571  33.181  1.00  0.00     0.076 C 
HETATM   14  C1  UNL     1       0.878  -7.963  33.482  1.00  0.00     0.032 C 
BRANCH  13  15
HETATM   15  C3  UNL     1       1.622  -5.802  32.699  1.00  0.00     0.024 C 
BRANCH  15  16
HETATM   16  C4  UNL     1       2.146  -6.433  31.462  1.00  0.00     0.004 C 
BRANCH  16  17
HETATM   17  C5  UNL     1       3.636  -6.464  31.319  1.00  0.00     0.020 C 
BRANCH  17  18
HETATM   18  C6  UNL     1       4.059  -6.692  29.879  1.00  0.00     0.122 C 
BRANCH  18  19
HETATM   19  N1  UNL     1       5.159  -5.851  29.494  1.00  0.00    -0.359 N 
HETATM   20  C7  UNL     1       5.707  -5.850  28.179  1.00  0.00     0.251 C 
HETATM   21  O1  UNL     1       5.174  -6.633  27.356  1.00  0.00    -0.271 OA
ATOM     22  H1  UNL     1       5.566  -5.228  30.191  1.00  0.00     0.162 HD
BRANCH  20  23
HETATM   23  C8  UNL     1       6.822  -5.007  27.765  1.00  0.00     0.315 C 
HETATM   24  C9  UNL     1       7.245  -5.125  26.338  1.00  0.00     0.048 C 
HETATM   25  C10 UNL     1       7.901  -3.782  26.004  1.00  0.00     0.040 C 
HETATM   26  C11 UNL     1       7.819  -3.067  27.319  1.00  0.00     0.242 C 
HETATM   27  C12 UNL     1       7.824  -1.560  27.200  1.00  0.00     0.158 C 
HETATM   28  N3  UNL     1       6.550  -3.570  27.865  1.00  0.00     0.117 N 
HETATM   29  N2  UNL     1       6.612  -1.097  26.536  1.00  0.00    -0.357 N 
HETATM   30  C13 UNL     1       5.479  -1.916  26.399  1.00  0.00     0.246 C 
ATOM     31  H2  UNL     1       6.585  -0.149  26.160  1.00  0.00     0.162 HD
HETATM   32  O2  UNL     1       4.512  -1.496  25.699  1.00  0.00    -0.272 OA
HETATM   33  C14 UNL     1       5.426  -3.238  27.062  1.00  0.00     0.376 C 
ENDBRANCH  20  23
ENDBRANCH  18  19
ENDBRANCH  17  18
ENDBRANCH  16  17
ENDBRANCH  15  16
ENDBRANCH  13  15
ENDBRANCH  11  13
ENDBRANCH  10  11
ENDBRANCH   9  10
ENDBRANCH   1   9
BRANCH   8  34
HETATM   34  C28 UNL     1      -2.938  -4.341  30.138  1.00  0.00     0.102 C 
BRANCH  34  35
HETATM   35  C29 UNL     1      -1.907  -3.233  30.015  1.00  0.00     0.029 C 
HETATM   36  C30 UNL     1      -0.512  -3.807  29.970  1.00  0.00     0.038 C 
HETATM   37  C31 UNL     1       0.223  -2.800  29.067  1.00  0.00     0.273 C 
HETATM   38  N7  UNL     1      -0.742  -2.300  28.176  1.00  0.00     0.089 N 
HETATM   39  C37 UNL     1      -2.039  -2.479  28.734  1.00  0.00     0.278 C 
BRANCH  38  40
HETATM   40  C32 UNL     1      -0.439  -1.035  27.627  1.00  0.00     0.280 C 
BRANCH  40  41
HETATM   41  C33 UNL     1      -0.289  -1.005  26.138  1.00  0.00    -0.025 C 
HETATM   42  C34 UNL     1      -1.589  -0.416  25.573  1.00  0.00     0.016 C 
HETATM   43  C35 UNL     1       0.796   0.025  25.784  1.00  0.00     0.016 C 
HETATM   44  C36 UNL     1      -0.013  -2.295  25.462  1.00  0.00     0.016 C 
ENDBRANCH  40  41
ENDBRANCH  38  40
ENDBRANCH  34  35
ENDBRANCH   8  34
BRANCH   7  45
HETATM   45  C21 UNL     1      -5.019  -2.631  31.124  1.00  0.00     0.061 C 
BRANCH  45  46
HETATM   46  C22 UNL     1      -5.984  -1.668  31.759  1.00  0.00    -0.009 C 
HETATM   47  C23 UNL     1      -7.387  -2.288  31.575  1.00  0.00     0.005 C 
HETATM   48  C24 UNL     1      -8.412  -1.661  32.459  1.00  0.00     0.000 C 
HETATM   49  C25 UNL     1      -8.444  -0.182  32.106  1.00  0.00     0.000 C 
HETATM   50  C26 UNL     1      -7.089   0.426  32.248  1.00  0.00     0.000 C 
HETATM   51  C27 UNL     1      -6.034  -0.269  31.345  1.00  0.00     0.005 C 
ENDBRANCH  45  46
ENDBRANCH   7  45
TORSDOF 16
ENDMDL
MODEL 3
REMARK VINA RESULT: -9.054693586      1.155      1.661
REMARK  16 active torsions:
REMARK  status: ('A' for Active; 'I' for Inactive)
REMARK    1  A    between atoms: C2_2  and  C3_3 
REMARK    2  A    between atoms: C2_2  and  N4_22 
REMARK    3  A    between atoms: C3_3  and  C4_4 
REMARK    4  A    between atoms: C4_4  and  C5_5 
REMARK    5  A    between atoms: C5_5  and  C6_6 
REMARK    6  A    between atoms: C6_6  and  N1_7 
REMARK       I    between atoms: N1_7  and  C7_9 
REMARK    7  A    between atoms: C7_9  and  C8_11 
REMARK    8  A    between atoms: N4_22  and  C15_24 
REMARK    9  A    between atoms: C15_24  and  C16_25 
REMARK   10  A    between atoms: C16_25  and  C17_26 
REMARK   11  A    between atoms: C20_32  and  C21_33 
REMARK   12  A    between atoms: C21_33  and  C22_34 
REMARK   13  A    between atoms: N6_40  and  C28_41 
REMARK   14  A    between atoms: C28_41  and  C29_42 
REMARK   15  A    between atoms: N7_45  and  C32_46 
REMARK   16  A    between atoms: C32_46  and  C33_47 
ROOT
HETATM    1  C17 UNL     1      -3.710  -5.788  31.544  1.00  0.00     0.085 C 
HETATM    2  C18 UNL     1      -4.094  -6.056  32.958  1.00  0.00     0.143 C 
HETATM    3  N5  UNL     1      -4.267  -4.958  33.851  1.00  0.00    -0.355 N 
ATOM      4  H5  UNL     1      -4.220  -5.082  34.863  1.00  0.00     0.162 HD
HETATM    5  C19 UNL     1      -4.508  -3.672  33.262  1.00  0.00     0.258 C 
HETATM    6  O3  UNL     1      -4.600  -2.693  33.991  1.00  0.00    -0.267 OA
HETATM    7  C20 UNL     1      -4.607  -3.711  31.802  1.00  0.00     0.057 C 
HETATM    8  N6  UNL     1      -3.423  -4.406  31.296  1.00  0.00    -0.275 NA
ENDROOT
BRANCH   1   9
HETATM    9  C16 UNL     1      -2.647  -6.784  31.176  1.00  0.00     0.066 C 
BRANCH   9  10
HETATM   10  C15 UNL     1      -1.589  -6.757  32.250  1.00  0.00     0.057 C 
BRANCH  10  11
HETATM   11  N4  UNL     1      -0.310  -6.373  31.863  1.00  0.00    -0.398 N 
ATOM     12  H4  UNL     1      -0.176  -6.038  30.908  1.00  0.00     0.159 HD
BRANCH  11  13
HETATM   13  C2  UNL     1       0.803  -6.421  32.704  1.00  0.00     0.076 C 
HETATM   14  C1  UNL     1       1.144  -7.738  33.346  1.00  0.00     0.032 C 
BRANCH  13  15
HETATM   15  C3  UNL     1       2.090  -5.950  32.026  1.00  0.00     0.024 C 
BRANCH  15  16
HETATM   16  C4  UNL     1       2.066  -6.338  30.594  1.00  0.00     0.004 C 
BRANCH  16  17
HETATM   17  C5  UNL     1       3.397  -6.585  29.956  1.00  0.00     0.020 C 
BRANCH  17  18
HETATM   18  C6  UNL     1       3.407  -6.171  28.495  1.00  0.00     0.122 C 
BRANCH  18  19
HETATM   19  N1  UNL     1       4.113  -4.936  28.282  1.00  0.00    -0.359 N 
HETATM   20  C7  UNL     1       5.501  -4.885  27.971  1.00  0.00     0.251 C 
HETATM   21  O1  UNL     1       6.093  -5.989  27.890  1.00  0.00    -0.271 OA
ATOM     22  H1  UNL     1       3.597  -4.060  28.358  1.00  0.00     0.162 HD
BRANCH  20  23
HETATM   23  C8  UNL     1       6.238  -3.646  27.752  1.00  0.00     0.315 C 
HETATM   24  C9  UNL     1       7.721  -3.773  27.631  1.00  0.00     0.048 C 
HETATM   25  C10 UNL     1       8.157  -2.564  26.798  1.00  0.00     0.040 C 
HETATM   26  C11 UNL     1       6.855  -1.853  26.585  1.00  0.00     0.242 C 
HETATM   27  C12 UNL     1       6.825  -0.984  25.348  1.00  0.00     0.158 C 
HETATM   28  N3  UNL     1       5.905  -2.971  26.493  1.00  0.00     0.117 N 
HETATM   29  N2  UNL     1       6.913  -1.804  24.147  1.00  0.00    -0.357 N 
HETATM   30  C13 UNL     1       6.672  -3.188  24.170  1.00  0.00     0.246 C 
ATOM     31  H2  UNL     1       7.158  -1.360  23.262  1.00  0.00     0.162 HD
HETATM   32  O2  UNL     1       6.893  -3.856  23.119  1.00  0.00    -0.272 OA
HETATM   33  C14 UNL     1       6.169  -3.840  25.400  1.00  0.00     0.376 C 
ENDBRANCH  20  23
ENDBRANCH  18  19
ENDBRANCH  17  18
ENDBRANCH  16  17
ENDBRANCH  15  16
ENDBRANCH  13  15
ENDBRANCH  11  13
ENDBRANCH  10  11
ENDBRANCH   9  10
ENDBRANCH   1   9
BRANCH   8  34
HETATM   34  C28 UNL     1      -3.023  -4.076  29.997  1.00  0.00     0.102 C 
BRANCH  34  35
HETATM   35  C29 UNL     1      -1.959  -3.002  29.855  1.00  0.00     0.029 C 
HETATM   36  C30 UNL     1      -0.580  -3.615  29.858  1.00  0.00     0.038 C 
HETATM   37  C31 UNL     1       0.199  -2.662  28.933  1.00  0.00     0.273 C 
HETATM   38  N7  UNL     1      -0.735  -2.169  28.007  1.00  0.00     0.089 N 
HETATM   39  C37 UNL     1      -2.046  -2.291  28.546  1.00  0.00     0.278 C 
BRANCH  38  40
HETATM   40  C32 UNL     1      -0.386  -0.934  27.419  1.00  0.00     0.280 C 
BRANCH  40  41
HETATM   41  C33 UNL     1      -0.278  -0.945  25.926  1.00  0.00    -0.025 C 
HETATM   42  C34 UNL     1      -1.587  -0.358  25.381  1.00  0.00     0.016 C 
HETATM   43  C35 UNL     1       0.808   0.063  25.515  1.00  0.00     0.016 C 
HETATM   44  C36 UNL     1      -0.033  -2.256  25.278  1.00  0.00     0.016 C 
ENDBRANCH  40  41
ENDBRANCH  38  40
ENDBRANCH  34  35
ENDBRANCH   8  34
BRANCH   7  45
HETATM   45  C21 UNL     1      -5.207  -2.597  31.125  1.00  0.00     0.061 C 
BRANCH  45  46
HETATM   46  C22 UNL     1      -6.184  -1.710  31.846  1.00  0.00    -0.009 C 
HETATM   47  C23 UNL     1      -7.578  -2.333  31.612  1.00  0.00     0.005 C 
HETATM   48  C24 UNL     1      -8.608  -1.804  32.551  1.00  0.00     0.000 C 
HETATM   49  C25 UNL     1      -8.664  -0.300  32.332  1.00  0.00     0.000 C 
HETATM   50  C26 UNL     1      -7.318   0.315  32.524  1.00  0.00     0.000 C 
HETATM   51  C27 UNL     1      -6.257  -0.281  31.560  1.00  0.00     0.005 C 
ENDBRANCH  45  46
ENDBRANCH   7  45
TORSDOF 16
ENDMDL
MODEL 4
REMARK VINA RESULT: -8.946167755      1.934      2.676
REMARK  16 active torsions:
REMARK  status: ('A' for Active; 'I' for Inactive)
REMARK    1  A    between atoms: C2_2  and  C3_3 
REMARK    2  A    between atoms: C2_2  and  N4_22 
REMARK    3  A    between atoms: C3_3  and  C4_4 
REMARK    4  A    between atoms: C4_4  and  C5_5 
REMARK    5  A    between atoms: C5_5  and  C6_6 
REMARK    6  A    between atoms: C6_6  and  N1_7 
REMARK       I    between atoms: N1_7  and  C7_9 
REMARK    7  A    between atoms: C7_9  and  C8_11 
REMARK    8  A    between atoms: N4_22  and  C15_24 
REMARK    9  A    between atoms: C15_24  and  C16_25 
REMARK   10  A    between atoms: C16_25  and  C17_26 
REMARK   11  A    between atoms: C20_32  and  C21_33 
REMARK   12  A    between atoms: C21_33  and  C22_34 
REMARK   13  A    between atoms: N6_40  and  C28_41 
REMARK   14  A    between atoms: C28_41  and  C29_42 
REMARK   15  A    between atoms: N7_45  and  C32_46 
REMARK   16  A    between atoms: C32_46  and  C33_47 
ROOT
HETATM    1  C17 UNL     1      -3.921  -5.713  31.653  1.00  0.00     0.085 C 
HETATM    2  C18 UNL     1      -4.399  -5.990  33.036  1.00  0.00     0.143 C 
HETATM    3  N5  UNL     1      -4.634  -4.900  33.923  1.00  0.00    -0.355 N 
ATOM      4  H5  UNL     1      -4.656  -5.030  34.934  1.00  0.00     0.162 HD
HETATM    5  C19 UNL     1      -4.838  -3.610  33.328  1.00  0.00     0.258 C 
HETATM    6  O3  UNL     1      -4.981  -2.636  34.055  1.00  0.00    -0.267 OA
HETATM    7  C20 UNL     1      -4.838  -3.639  31.864  1.00  0.00     0.057 C 
HETATM    8  N6  UNL     1      -3.620  -4.328  31.435  1.00  0.00    -0.275 NA
ENDROOT
BRANCH   1   9
HETATM    9  C16 UNL     1      -2.833  -6.704  31.351  1.00  0.00     0.066 C 
BRANCH   9  10
HETATM   10  C15 UNL     1      -2.250  -7.172  32.660  1.00  0.00     0.057 C 
BRANCH  10  11
HETATM   11  N4  UNL     1      -1.069  -6.567  33.075  1.00  0.00    -0.398 N 
ATOM     12  H4  UNL     1      -1.129  -5.654  33.526  1.00  0.00     0.159 HD
BRANCH  11  13
HETATM   13  C2  UNL     1       0.195  -7.136  32.908  1.00  0.00     0.076 C 
HETATM   14  C1  UNL     1       0.823  -7.069  31.543  1.00  0.00     0.032 C 
BRANCH  13  15
HETATM   15  C3  UNL     1       1.241  -6.569  33.869  1.00  0.00     0.024 C 
BRANCH  15  16
HETATM   16  C4  UNL     1       2.201  -5.727  33.114  1.00  0.00     0.004 C 
BRANCH  16  17
HETATM   17  C5  UNL     1       2.776  -4.559  33.853  1.00  0.00     0.020 C 
BRANCH  17  18
HETATM   18  C6  UNL     1       4.259  -4.390  33.573  1.00  0.00     0.122 C 
BRANCH  18  19
HETATM   19  N1  UNL     1       4.694  -5.170  32.447  1.00  0.00    -0.359 N 
HETATM   20  C7  UNL     1       6.061  -5.271  32.060  1.00  0.00     0.251 C 
HETATM   21  O1  UNL     1       6.885  -4.634  32.761  1.00  0.00    -0.271 OA
ATOM     22  H1  UNL     1       3.995  -5.673  31.901  1.00  0.00     0.162 HD
BRANCH  20  23
HETATM   23  C8  UNL     1       6.527  -6.053  30.922  1.00  0.00     0.315 C 
HETATM   24  C9  UNL     1       5.599  -6.140  29.755  1.00  0.00     0.048 C 
HETATM   25  C10 UNL     1       6.503  -6.401  28.546  1.00  0.00     0.040 C 
HETATM   26  C11 UNL     1       7.855  -6.486  29.188  1.00  0.00     0.242 C 
HETATM   27  C12 UNL     1       8.998  -6.146  28.259  1.00  0.00     0.158 C 
HETATM   28  N3  UNL     1       7.736  -5.517  30.287  1.00  0.00     0.117 N 
HETATM   29  N2  UNL     1       8.942  -4.742  27.874  1.00  0.00    -0.357 N 
HETATM   30  C13 UNL     1       8.167  -3.806  28.579  1.00  0.00     0.246 C 
ATOM     31  H2  UNL     1       9.482  -4.428  27.067  1.00  0.00     0.162 HD
HETATM   32  O2  UNL     1       8.062  -2.635  28.113  1.00  0.00    -0.272 OA
HETATM   33  C14 UNL     1       7.493  -4.191  29.840  1.00  0.00     0.376 C 
ENDBRANCH  20  23
ENDBRANCH  18  19
ENDBRANCH  17  18
ENDBRANCH  16  17
ENDBRANCH  15  16
ENDBRANCH  13  15
ENDBRANCH  11  13
ENDBRANCH  10  11
ENDBRANCH   9  10
ENDBRANCH   1   9
BRANCH   8  34
HETATM   34  C28 UNL     1      -3.134  -3.989  30.168  1.00  0.00     0.102 C 
BRANCH  34  35
HETATM   35  C29 UNL     1      -1.862  -3.161  30.117  1.00  0.00     0.029 C 
HETATM   36  C30 UNL     1      -0.646  -4.055  30.086  1.00  0.00     0.038 C 
HETATM   37  C31 UNL     1       0.341  -3.228  29.242  1.00  0.00     0.273 C 
HETATM   38  N7  UNL     1      -0.443  -2.480  28.348  1.00  0.00     0.089 N 
HETATM   39  C37 UNL     1      -1.763  -2.356  28.864  1.00  0.00     0.278 C 
BRANCH  38  40
HETATM   40  C32 UNL     1       0.176  -1.310  27.858  1.00  0.00     0.280 C 
BRANCH  40  41
HETATM   41  C33 UNL     1       0.562  -1.348  26.412  1.00  0.00    -0.025 C 
HETATM   42  C34 UNL     1       0.720   0.108  25.955  1.00  0.00     0.016 C 
HETATM   43  C35 UNL     1       1.973  -1.950  26.306  1.00  0.00     0.016 C 
HETATM   44  C36 UNL     1      -0.364  -2.044  25.486  1.00  0.00     0.016 C 
ENDBRANCH  40  41
ENDBRANCH  38  40
ENDBRANCH  34  35
ENDBRANCH   8  34
BRANCH   7  45
HETATM   45  C21 UNL     1      -5.392  -2.521  31.155  1.00  0.00     0.061 C 
BRANCH  45  46
HETATM   46  C22 UNL     1      -6.410  -1.635  31.819  1.00  0.00    -0.009 C 
HETATM   47  C23 UNL     1      -7.791  -2.171  31.382  1.00  0.00     0.005 C 
HETATM   48  C24 UNL     1      -8.902  -1.652  32.230  1.00  0.00     0.000 C 
HETATM   49  C25 UNL     1      -8.869  -0.136  32.111  1.00  0.00     0.000 C 
HETATM   50  C26 UNL     1      -7.531   0.397  32.500  1.00  0.00     0.000 C 
HETATM   51  C27 UNL     1      -6.389  -0.188  31.625  1.00  0.00     0.005 C 
ENDBRANCH  45  46
ENDBRANCH   7  45
TORSDOF 16
ENDMDL
MODEL 5
REMARK VINA RESULT: -8.868262438      1.191      1.612
REMARK  16 active torsions:
REMARK  status: ('A' for Active; 'I' for Inactive)
REMARK    1  A    between atoms: C2_2  and  C3_3 
REMARK    2  A    between atoms: C2_2  and  N4_22 
REMARK    3  A    between atoms: C3_3  and  C4_4 
REMARK    4  A    between atoms: C4_4  and  C5_5 
REMARK    5  A    between atoms: C5_5  and  C6_6 
REMARK    6  A    between atoms: C6_6  and  N1_7 
REMARK       I    between atoms: N1_7  and  C7_9 
REMARK    7  A    between atoms: C7_9  and  C8_11 
REMARK    8  A    between atoms: N4_22  and  C15_24 
REMARK    9  A    between atoms: C15_24  and  C16_25 
REMARK   10  A    between atoms: C16_25  and  C17_26 
REMARK   11  A    between atoms: C20_32  and  C21_33 
REMARK   12  A    between atoms: C21_33  and  C22_34 
REMARK   13  A    between atoms: N6_40  and  C28_41 
REMARK   14  A    between atoms: C28_41  and  C29_42 
REMARK   15  A    between atoms: N7_45  and  C32_46 
REMARK   16  A    between atoms: C32_46  and  C33_47 
ROOT
HETATM    1  C17 UNL     1      -3.671  -5.823  31.581  1.00  0.00     0.085 C 
HETATM    2  C18 UNL     1      -4.068  -6.083  32.992  1.00  0.00     0.143 C 
HETATM    3  N5  UNL     1      -4.262  -4.980  33.874  1.00  0.00    -0.355 N 
ATOM      4  H5  UNL     1      -4.226  -5.095  34.887  1.00  0.00     0.162 HD
HETATM    5  C19 UNL     1      -4.509  -3.701  33.272  1.00  0.00     0.258 C 
HETATM    6  O3  UNL     1      -4.618  -2.717  33.992  1.00  0.00    -0.267 OA
HETATM    7  C20 UNL     1      -4.591  -3.753  31.812  1.00  0.00     0.057 C 
HETATM    8  N6  UNL     1      -3.394  -4.441  31.325  1.00  0.00    -0.275 NA
ENDROOT
BRANCH   1   9
HETATM    9  C16 UNL     1      -2.594  -6.812  31.232  1.00  0.00     0.066 C 
BRANCH   9  10
HETATM   10  C15 UNL     1      -1.530  -6.738  32.298  1.00  0.00     0.057 C 
BRANCH  10  11
HETATM   11  N4  UNL     1      -0.231  -6.482  31.873  1.00  0.00    -0.398 N 
ATOM     12  H4  UNL     1      -0.084  -6.245  30.891  1.00  0.00     0.159 HD
BRANCH  11  13
HETATM   13  C2  UNL     1       0.884  -6.529  32.711  1.00  0.00     0.076 C 
HETATM   14  C1  UNL     1       1.168  -7.818  33.432  1.00  0.00     0.032 C 
BRANCH  13  15
HETATM   15  C3  UNL     1       2.187  -6.162  32.000  1.00  0.00     0.024 C 
BRANCH  15  16
HETATM   16  C4  UNL     1       2.010  -6.311  30.534  1.00  0.00     0.004 C 
BRANCH  16  17
HETATM   17  C5  UNL     1       3.264  -6.454  29.731  1.00  0.00     0.020 C 
BRANCH  17  18
HETATM   18  C6  UNL     1       3.102  -5.896  28.328  1.00  0.00     0.122 C 
BRANCH  18  19
HETATM   19  N1  UNL     1       4.110  -4.922  28.007  1.00  0.00    -0.359 N 
HETATM   20  C7  UNL     1       5.172  -5.183  27.096  1.00  0.00     0.251 C 
HETATM   21  O1  UNL     1       5.189  -6.325  26.575  1.00  0.00    -0.271 OA
ATOM     22  H1  UNL     1       4.062  -4.006  28.452  1.00  0.00     0.162 HD
BRANCH  20  23
HETATM   23  C8  UNL     1       6.206  -4.213  26.756  1.00  0.00     0.315 C 
HETATM   24  C9  UNL     1       6.069  -2.858  27.369  1.00  0.00     0.048 C 
HETATM   25  C10 UNL     1       7.493  -2.297  27.416  1.00  0.00     0.040 C 
HETATM   26  C11 UNL     1       8.277  -3.396  26.764  1.00  0.00     0.242 C 
HETATM   27  C12 UNL     1       9.732  -3.437  27.173  1.00  0.00     0.158 C 
HETATM   28  N3  UNL     1       7.549  -4.595  27.203  1.00  0.00     0.117 N 
HETATM   29  N2  UNL     1       9.856  -3.783  28.583  1.00  0.00    -0.357 N 
HETATM   30  C13 UNL     1       8.795  -4.355  29.305  1.00  0.00     0.246 C 
ATOM     31  H2  UNL     1      10.739  -3.605  29.060  1.00  0.00     0.162 HD
HETATM   32  O2  UNL     1       8.929  -4.508  30.554  1.00  0.00    -0.272 OA
HETATM   33  C14 UNL     1       7.553  -4.766  28.613  1.00  0.00     0.376 C 
ENDBRANCH  20  23
ENDBRANCH  18  19
ENDBRANCH  17  18
ENDBRANCH  16  17
ENDBRANCH  15  16
ENDBRANCH  13  15
ENDBRANCH  11  13
ENDBRANCH  10  11
ENDBRANCH   9  10
ENDBRANCH   1   9
BRANCH   8  34
HETATM   34  C28 UNL     1      -2.982  -4.117  30.028  1.00  0.00     0.102 C 
BRANCH  34  35
HETATM   35  C29 UNL     1      -1.921  -3.040  29.890  1.00  0.00     0.029 C 
HETATM   36  C30 UNL     1      -0.540  -3.649  29.900  1.00  0.00     0.038 C 
HETATM   37  C31 UNL     1       0.241  -2.695  28.978  1.00  0.00     0.273 C 
HETATM   38  N7  UNL     1      -0.690  -2.206  28.047  1.00  0.00     0.089 N 
HETATM   39  C37 UNL     1      -2.004  -2.331  28.579  1.00  0.00     0.278 C 
BRANCH  38  40
HETATM   40  C32 UNL     1      -0.342  -0.970  27.459  1.00  0.00     0.280 C 
BRANCH  40  41
HETATM   41  C33 UNL     1      -0.299  -0.964  25.963  1.00  0.00    -0.025 C 
HETATM   42  C34 UNL     1      -1.660  -0.441  25.481  1.00  0.00     0.016 C 
HETATM   43  C35 UNL     1       0.714   0.102  25.514  1.00  0.00     0.016 C 
HETATM   44  C36 UNL     1      -0.017  -2.256  25.291  1.00  0.00     0.016 C 
ENDBRANCH  40  41
ENDBRANCH  38  40
ENDBRANCH  34  35
ENDBRANCH   8  34
BRANCH   7  45
HETATM   45  C21 UNL     1      -5.193  -2.649  31.118  1.00  0.00     0.061 C 
BRANCH  45  46
HETATM   46  C22 UNL     1      -6.150  -1.738  31.835  1.00  0.00    -0.009 C 
HETATM   47  C23 UNL     1      -7.553  -2.352  31.633  1.00  0.00     0.005 C 
HETATM   48  C24 UNL     1      -8.565  -1.793  32.575  1.00  0.00     0.000 C 
HETATM   49  C25 UNL     1      -8.610  -0.293  32.326  1.00  0.00     0.000 C 
HETATM   50  C26 UNL     1      -7.255   0.311  32.487  1.00  0.00     0.000 C 
HETATM   51  C27 UNL     1      -6.214  -0.314  31.520  1.00  0.00     0.005 C 
ENDBRANCH  45  46
ENDBRANCH   7  45
TORSDOF 16
ENDMDL
