MODEL 1
REMARK VINA RESULT: -6.656459736      0.000      0.000
REMARK  2 active torsions:
REMARK  status: ('A' for Active; 'I' for Inactive)
REMARK    1  A    between atoms: N3_4  and  N4_6 
REMARK    2  A    between atoms: N4_6  and  C2_8 
ROOT
HETATM    1  C2  UNL     1      28.221  46.913  -3.606  1.00  0.00     0.143 C 
HETATM    2  C3  UNL     1      27.682  46.635  -2.447  1.00  0.00     0.134 A 
HETATM    3  N5  UNL     1      27.896  45.672  -1.425  1.00  0.00    -0.291 N 
ATOM      4  H5  UNL     1      28.551  44.899  -1.301  1.00  0.00     0.187 HD
HETATM    5  N6  UNL     1      26.849  46.203  -0.651  1.00  0.00    -0.264 N 
ATOM      6  H6  UNL     1      26.438  45.975   0.254  1.00  0.00     0.190 HD
HETATM    7  C4  UNL     1      26.594  47.188  -1.646  1.00  0.00     0.289 A 
HETATM    8  O1  UNL     1      25.793  48.158  -1.832  1.00  0.00    -0.264 OA
ENDROOT
BRANCH   1   9
HETATM    9  N4  UNL     1      29.306  46.129  -4.085  1.00  0.00    -0.307 N 
ATOM     10  H4  UNL     1      30.246  46.254  -3.711  1.00  0.00     0.186 HD
BRANCH   9  11
HETATM   11  N3  UNL     1      29.052  45.191  -5.076  1.00  0.00    -0.276 N 
HETATM   12  C1  UNL     1      29.560  45.365  -6.243  1.00  0.00     0.215 C 
HETATM   13  N1  UNL     1      30.360  46.522  -6.451  1.00  0.00    -0.065 NA
HETATM   14  N2  UNL     1      29.326  44.423  -7.296  1.00  0.00    -0.065 NA
ATOM     15  H3  UNL     1      28.471  44.376  -4.880  1.00  0.00     0.189 HD
ENDBRANCH   9  11
ENDBRANCH   1   9
TORSDOF 2
ENDMDL
MODEL 2
REMARK VINA RESULT: -6.558842950      3.104      5.028
REMARK  2 active torsions:
REMARK  status: ('A' for Active; 'I' for Inactive)
REMARK    1  A    between atoms: N3_4  and  N4_6 
REMARK    2  A    between atoms: N4_6  and  C2_8 
ROOT
HETATM    1  C2  UNL     1      28.461  46.356  -4.068  1.00  0.00     0.143 C 
HETATM    2  C3  UNL     1      29.026  47.531  -4.171  1.00  0.00     0.134 A 
HETATM    3  N5  UNL     1      28.915  48.781  -3.505  1.00  0.00    -0.291 N 
ATOM      4  H5  UNL     1      28.346  49.127  -2.732  1.00  0.00     0.187 HD
HETATM    5  N6  UNL     1      29.900  49.352  -4.329  1.00  0.00    -0.264 N 
ATOM      6  H6  UNL     1      30.332  50.273  -4.398  1.00  0.00     0.190 HD
HETATM    7  C4  UNL     1      30.049  48.122  -5.029  1.00  0.00     0.289 A 
HETATM    8  O1  UNL     1      30.743  47.658  -5.988  1.00  0.00    -0.264 OA
ENDROOT
BRANCH   1   9
HETATM    9  N4  UNL     1      27.465  46.137  -3.078  1.00  0.00    -0.307 N 
ATOM     10  H4  UNL     1      26.480  46.309  -3.281  1.00  0.00     0.186 HD
BRANCH   9  11
HETATM   11  N3  UNL     1      27.867  45.683  -1.829  1.00  0.00    -0.276 N 
HETATM   12  C1  UNL     1      27.667  46.429  -0.802  1.00  0.00     0.215 C 
HETATM   13  N1  UNL     1      27.039  47.687  -1.010  1.00  0.00    -0.065 NA
HETATM   14  N2  UNL     1      28.065  46.003   0.505  1.00  0.00    -0.065 NA
ATOM     15  H3  UNL     1      28.314  44.773  -1.729  1.00  0.00     0.189 HD
ENDBRANCH   9  11
ENDBRANCH   1   9
TORSDOF 2
ENDMDL
MODEL 3
REMARK VINA RESULT: -6.549241808      2.895      3.755
REMARK  2 active torsions:
REMARK  status: ('A' for Active; 'I' for Inactive)
REMARK    1  A    between atoms: N3_4  and  N4_6 
REMARK    2  A    between atoms: N4_6  and  C2_8 
ROOT
HETATM    1  C2  UNL     1      28.241  47.430  -2.989  1.00  0.00     0.143 C 
HETATM    2  C3  UNL     1      27.527  48.284  -2.303  1.00  0.00     0.134 A 
HETATM    3  N5  UNL     1      27.599  48.873  -1.012  1.00  0.00    -0.291 N 
ATOM      4  H5  UNL     1      28.248  48.794  -0.229  1.00  0.00     0.187 HD
HETATM    5  N6  UNL     1      26.422  49.608  -1.238  1.00  0.00    -0.264 N 
ATOM      6  H6  UNL     1      25.874  50.273  -0.692  1.00  0.00     0.190 HD
HETATM    7  C4  UNL     1      26.304  49.046  -2.540  1.00  0.00     0.289 A 
HETATM    8  O1  UNL     1      25.515  49.122  -3.535  1.00  0.00    -0.264 OA
ENDROOT
BRANCH   1   9
HETATM    9  N4  UNL     1      29.414  46.870  -2.414  1.00  0.00    -0.307 N 
ATOM     10  H4  UNL     1      29.353  46.222  -1.629  1.00  0.00     0.186 HD
BRANCH   9  11
HETATM   11  N3  UNL     1      30.644  47.228  -2.949  1.00  0.00    -0.276 N 
HETATM   12  C1  UNL     1      31.349  48.118  -2.347  1.00  0.00     0.215 C 
HETATM   13  N1  UNL     1      30.819  48.689  -1.157  1.00  0.00    -0.065 NA
HETATM   14  N2  UNL     1      32.623  48.520  -2.861  1.00  0.00    -0.065 NA
ATOM     15  H3  UNL     1      30.983  46.792  -3.806  1.00  0.00     0.189 HD
ENDBRANCH   9  11
ENDBRANCH   1   9
TORSDOF 2
ENDMDL
MODEL 4
REMARK VINA RESULT: -6.520188772      0.748      1.057
REMARK  2 active torsions:
REMARK  status: ('A' for Active; 'I' for Inactive)
REMARK    1  A    between atoms: N3_4  and  N4_6 
REMARK    2  A    between atoms: N4_6  and  C2_8 
ROOT
HETATM    1  C2  UNL     1      27.843  46.740  -3.852  1.00  0.00     0.143 C 
HETATM    2  C3  UNL     1      27.534  46.527  -2.600  1.00  0.00     0.134 A 
HETATM    3  N5  UNL     1      27.869  45.560  -1.614  1.00  0.00    -0.291 N 
ATOM      4  H5  UNL     1      28.466  44.733  -1.602  1.00  0.00     0.187 HD
HETATM    5  N6  UNL     1      27.055  46.194  -0.659  1.00  0.00    -0.264 N 
ATOM      6  H6  UNL     1      26.822  46.016   0.318  1.00  0.00     0.190 HD
HETATM    7  C4  UNL     1      26.687  47.187  -1.610  1.00  0.00     0.289 A 
HETATM    8  O1  UNL     1      25.953  48.224  -1.658  1.00  0.00    -0.264 OA
ENDROOT
BRANCH   1   9
HETATM    9  N4  UNL     1      28.733  45.855  -4.519  1.00  0.00    -0.307 N 
ATOM     10  H4  UNL     1      29.155  45.067  -4.026  1.00  0.00     0.186 HD
BRANCH   9  11
HETATM   11  N3  UNL     1      29.015  46.089  -5.858  1.00  0.00    -0.276 N 
HETATM   12  C1  UNL     1      29.388  45.107  -6.597  1.00  0.00     0.215 C 
HETATM   13  N1  UNL     1      29.493  43.825  -5.991  1.00  0.00    -0.065 NA
HETATM   14  N2  UNL     1      29.689  45.301  -7.983  1.00  0.00    -0.065 NA
ATOM     15  H3  UNL     1      28.926  47.027  -6.249  1.00  0.00     0.189 HD
ENDBRANCH   9  11
ENDBRANCH   1   9
TORSDOF 2
ENDMDL
MODEL 5
REMARK VINA RESULT: -6.368569393      2.134      2.697
REMARK  2 active torsions:
REMARK  status: ('A' for Active; 'I' for Inactive)
REMARK    1  A    between atoms: N3_4  and  N4_6 
REMARK    2  A    between atoms: N4_6  and  C2_8 
ROOT
HETATM    1  C2  UNL     1      28.229  48.435  -2.065  1.00  0.00     0.143 C 
HETATM    2  C3  UNL     1      28.114  47.231  -1.570  1.00  0.00     0.134 A 
HETATM    3  N5  UNL     1      27.967  45.918  -2.095  1.00  0.00    -0.291 N 
ATOM      4  H5  UNL     1      27.907  45.532  -3.037  1.00  0.00     0.187 HD
HETATM    5  N6  UNL     1      27.936  45.363  -0.803  1.00  0.00    -0.264 N 
ATOM      6  H6  UNL     1      27.846  44.418  -0.430  1.00  0.00     0.190 HD
HETATM    7  C4  UNL     1      28.082  46.656  -0.228  1.00  0.00     0.289 A 
HETATM    8  O1  UNL     1      28.161  47.170   0.933  1.00  0.00    -0.264 OA
ENDROOT
BRANCH   1   9
HETATM    9  N4  UNL     1      28.218  48.622  -3.474  1.00  0.00    -0.307 N 
ATOM     10  H4  UNL     1      27.341  48.624  -3.994  1.00  0.00     0.186 HD
BRANCH   9  11
HETATM   11  N3  UNL     1      29.432  48.800  -4.123  1.00  0.00    -0.276 N 
HETATM   12  C1  UNL     1      29.884  47.856  -4.869  1.00  0.00     0.215 C 
HETATM   13  N1  UNL     1      29.104  46.673  -4.984  1.00  0.00    -0.065 NA
HETATM   14  N2  UNL     1      31.131  47.996  -5.558  1.00  0.00    -0.065 NA
ATOM     15  H3  UNL     1      29.957  49.667  -4.010  1.00  0.00     0.189 HD
ENDBRANCH   9  11
ENDBRANCH   1   9
TORSDOF 2
ENDMDL
