MODEL 1
REMARK VINA RESULT: -4.565916070      0.000      0.000
REMARK  3 active torsions:
REMARK  status: ('A' for Active; 'I' for Inactive)
REMARK    1  A    between atoms: O1_2  and  C2_3 
REMARK    2  A    between atoms: C2_3  and  N1_4 
REMARK    3  A    between atoms: C5_15  and  N6_16 
ROOT
HETATM    1  N1  UNL     1       7.607  11.012 124.168  1.00  0.00    -0.069 N 
HETATM    2  N2  UNL     1       8.659  11.758 124.803  1.00  0.00    -0.228 N 
ATOM      3  H2  UNL     1       9.632  11.462 124.718  1.00  0.00     0.193 HD
HETATM    4  C3  UNL     1       8.324  12.895 125.538  1.00  0.00     0.355 A 
HETATM    5  O2  UNL     1       9.192  13.614 126.132  1.00  0.00    -0.244 OA
HETATM    6  N3  UNL     1       6.980  13.304 125.657  1.00  0.00    -0.225 N 
ATOM      7  H3  UNL     1       6.737  14.134 126.196  1.00  0.00     0.193 HD
HETATM    8  N4  UNL     1       5.989  12.550 125.025  1.00  0.00    -0.024 N 
HETATM    9  C4  UNL     1       6.261  11.422 124.288  1.00  0.00     0.745 A 
HETATM   10  N5  UNL     1       5.251  10.748 123.709  1.00  0.00    -0.019 N 
ATOM     11  H5  UNL     1       5.443   9.910 123.161  1.00  0.00     0.203 HD
HETATM   12  C5  UNL     1       3.989  11.182 123.854  1.00  0.00     0.694 A 
HETATM   13  N7  UNL     1       3.679  12.280 124.566  1.00  0.00    -0.139 N 
ATOM     14  H7  UNL     1       2.714  12.596 124.666  1.00  0.00     0.189 HD
HETATM   15  C6  UNL     1       4.695  12.941 125.137  1.00  0.00     0.374 A 
HETATM   16  O3  UNL     1       4.450  13.979 125.815  1.00  0.00    -0.244 OA
ENDROOT
BRANCH   1  17
HETATM   17  C2  UNL     1       8.030   9.862 123.435  1.00  0.00     0.269 C 
BRANCH  17  18
HETATM   18  O1  UNL     1       7.731   9.692 122.146  1.00  0.00    -0.349 OA
HETATM   19  C1  UNL     1       8.805   9.815 121.286  1.00  0.00     0.211 C 
ENDBRANCH  17  18
ENDBRANCH   1  17
BRANCH  12  20
HETATM   20  N6  UNL     1       3.015  10.529 123.292  1.00  0.00    -0.234 N 
ATOM     21  H62 UNL     1       3.224   9.999 122.446  1.00  0.00     0.174 HD
ATOM     22  H61 UNL     1       2.082  10.561 123.703  1.00  0.00     0.174 HD
ENDBRANCH  12  20
TORSDOF 3
ENDMDL
MODEL 2
REMARK VINA RESULT: -4.514921074     10.181     12.449
REMARK  3 active torsions:
REMARK  status: ('A' for Active; 'I' for Inactive)
REMARK    1  A    between atoms: O1_2  and  C2_3 
REMARK    2  A    between atoms: C2_3  and  N1_4 
REMARK    3  A    between atoms: C5_15  and  N6_16 
ROOT
HETATM    1  N1  UNL     1      14.302   8.969 117.319  1.00  0.00    -0.069 N 
HETATM    2  N2  UNL     1      15.410   8.894 118.233  1.00  0.00    -0.228 N 
ATOM      3  H2  UNL     1      15.517   9.581 118.979  1.00  0.00     0.193 HD
HETATM    4  C3  UNL     1      16.336   7.863 118.078  1.00  0.00     0.355 A 
HETATM    5  O2  UNL     1      17.346   7.721 118.842  1.00  0.00    -0.244 OA
HETATM    6  N3  UNL     1      16.190   6.914 117.047  1.00  0.00    -0.225 N 
ATOM      7  H3  UNL     1      16.868   6.161 116.934  1.00  0.00     0.193 HD
HETATM    8  N4  UNL     1      15.099   7.023 116.181  1.00  0.00    -0.024 N 
HETATM    9  C4  UNL     1      14.156   8.017 116.286  1.00  0.00     0.745 A 
HETATM   10  N5  UNL     1      13.133   8.057 115.413  1.00  0.00    -0.019 N 
ATOM     11  H5  UNL     1      12.429   8.791 115.483  1.00  0.00     0.203 HD
HETATM   12  C5  UNL     1      13.041   7.128 114.450  1.00  0.00     0.694 A 
HETATM   13  N7  UNL     1      13.941   6.138 114.311  1.00  0.00    -0.139 N 
ATOM     14  H7  UNL     1      13.857   5.439 113.573  1.00  0.00     0.189 HD
HETATM   15  C6  UNL     1      14.954   6.111 115.188  1.00  0.00     0.374 A 
HETATM   16  O3  UNL     1      15.824   5.198 115.095  1.00  0.00    -0.244 OA
ENDROOT
BRANCH   1  17
HETATM   17  C2  UNL     1      13.399  10.052 117.543  1.00  0.00     0.269 C 
BRANCH  17  18
HETATM   18  O1  UNL     1      12.111   9.855 117.831  1.00  0.00    -0.349 OA
HETATM   19  C1  UNL     1      11.234  10.641 117.109  1.00  0.00     0.211 C 
ENDBRANCH  17  18
ENDBRANCH   1  17
BRANCH  12  20
HETATM   20  N6  UNL     1      12.051   7.168 113.608  1.00  0.00    -0.234 N 
ATOM     21  H62 UNL     1      11.885   8.043 113.111  1.00  0.00     0.174 HD
ATOM     22  H61 UNL     1      11.474   6.339 113.466  1.00  0.00     0.174 HD
ENDBRANCH  12  20
TORSDOF 3
ENDMDL
MODEL 3
REMARK VINA RESULT: -4.417047334      2.858      4.314
REMARK  3 active torsions:
REMARK  status: ('A' for Active; 'I' for Inactive)
REMARK    1  A    between atoms: O1_2  and  C2_3 
REMARK    2  A    between atoms: C2_3  and  N1_4 
REMARK    3  A    between atoms: C5_15  and  N6_16 
ROOT
HETATM    1  N1  UNL     1       6.702  10.321 124.048  1.00  0.00    -0.069 N 
HETATM    2  N2  UNL     1       5.440  10.893 123.666  1.00  0.00    -0.228 N 
ATOM      3  H2  UNL     1       5.303  11.274 122.729  1.00  0.00     0.193 HD
HETATM    4  C3  UNL     1       4.405  10.915 124.601  1.00  0.00     0.355 A 
HETATM    5  O2  UNL     1       3.255  11.401 124.346  1.00  0.00    -0.244 OA
HETATM    6  N3  UNL     1       4.594  10.389 125.894  1.00  0.00    -0.225 N 
ATOM      7  H3  UNL     1       3.837  10.407 126.577  1.00  0.00     0.193 HD
HETATM    8  N4  UNL     1       5.836   9.843 126.225  1.00  0.00    -0.024 N 
HETATM    9  C4  UNL     1       6.890   9.794 125.344  1.00  0.00     0.745 A 
HETATM   10  N5  UNL     1       8.058   9.253 125.737  1.00  0.00    -0.019 N 
ATOM     11  H5  UNL     1       8.846   9.213 125.091  1.00  0.00     0.203 HD
HETATM   12  C5  UNL     1       8.184   8.767 126.981  1.00  0.00     0.694 A 
HETATM   13  N7  UNL     1       7.178   8.794 127.874  1.00  0.00    -0.139 N 
ATOM     14  H7  UNL     1       7.290   8.420 128.816  1.00  0.00     0.189 HD
HETATM   15  C6  UNL     1       6.021   9.336 127.469  1.00  0.00     0.374 A 
HETATM   16  O3  UNL     1       5.049   9.384 128.275  1.00  0.00    -0.244 OA
ENDROOT
BRANCH   1  17
HETATM   17  C2  UNL     1       7.711  10.335 123.036  1.00  0.00     0.269 C 
BRANCH  17  18
HETATM   18  O1  UNL     1       8.279   9.216 122.584  1.00  0.00    -0.349 OA
HETATM   19  C1  UNL     1       9.100   9.391 121.487  1.00  0.00     0.211 C 
ENDBRANCH  17  18
ENDBRANCH   1  17
BRANCH  12  20
HETATM   20  N6  UNL     1       9.313   8.243 127.358  1.00  0.00    -0.234 N 
ATOM     21  H62 UNL     1      10.160   8.546 126.878  1.00  0.00     0.174 HD
ATOM     22  H61 UNL     1       9.325   7.555 128.110  1.00  0.00     0.174 HD
ENDBRANCH  12  20
TORSDOF 3
ENDMDL
MODEL 4
REMARK VINA RESULT: -4.385705818      3.388      5.012
REMARK  3 active torsions:
REMARK  status: ('A' for Active; 'I' for Inactive)
REMARK    1  A    between atoms: O1_2  and  C2_3 
REMARK    2  A    between atoms: C2_3  and  N1_4 
REMARK    3  A    between atoms: C5_15  and  N6_16 
ROOT
HETATM    1  N1  UNL     1       5.067   9.896 127.571  1.00  0.00    -0.069 N 
HETATM    2  N2  UNL     1       6.088   8.883 127.596  1.00  0.00    -0.228 N 
ATOM      3  H2  UNL     1       6.280   8.358 128.449  1.00  0.00     0.193 HD
HETATM    4  C3  UNL     1       6.808   8.631 126.429  1.00  0.00     0.355 A 
HETATM    5  O2  UNL     1       7.728   7.752 126.362  1.00  0.00    -0.244 OA
HETATM    6  N3  UNL     1       6.543   9.355 125.249  1.00  0.00    -0.225 N 
ATOM      7  H3  UNL     1       7.072   9.171 124.397  1.00  0.00     0.193 HD
HETATM    8  N4  UNL     1       5.544  10.331 125.269  1.00  0.00    -0.024 N 
HETATM    9  C4  UNL     1       4.802  10.621 126.389  1.00  0.00     0.745 A 
HETATM   10  N5  UNL     1       3.857  11.576 126.330  1.00  0.00    -0.019 N 
ATOM     11  H5  UNL     1       3.302  11.799 127.156  1.00  0.00     0.203 HD
HETATM   12  C5  UNL     1       3.645  12.236 125.180  1.00  0.00     0.694 A 
HETATM   13  N7  UNL     1       4.348  11.983 124.061  1.00  0.00    -0.139 N 
ATOM     14  H7  UNL     1       4.174  12.494 123.195  1.00  0.00     0.189 HD
HETATM   15  C6  UNL     1       5.286  11.029 124.135  1.00  0.00     0.374 A 
HETATM   16  O3  UNL     1       5.971  10.759 123.108  1.00  0.00    -0.244 OA
ENDROOT
BRANCH   1  17
HETATM   17  C2  UNL     1       4.374  10.095 128.804  1.00  0.00     0.269 C 
BRANCH  17  18
HETATM   18  O1  UNL     1       3.042  10.113 128.875  1.00  0.00    -0.349 OA
HETATM   19  C1  UNL     1       2.518   9.500 129.996  1.00  0.00     0.211 C 
ENDBRANCH  17  18
ENDBRANCH   1  17
BRANCH  12  20
HETATM   20  N6  UNL     1       2.730  13.158 125.125  1.00  0.00    -0.234 N 
ATOM     21  H62 UNL     1       2.608  13.755 125.943  1.00  0.00     0.174 HD
ATOM     22  H61 UNL     1       2.166  13.261 124.282  1.00  0.00     0.174 HD
ENDBRANCH  12  20
TORSDOF 3
ENDMDL
MODEL 5
REMARK VINA RESULT: -4.321512911      3.581      5.163
REMARK  3 active torsions:
REMARK  status: ('A' for Active; 'I' for Inactive)
REMARK    1  A    between atoms: O1_2  and  C2_3 
REMARK    2  A    between atoms: C2_3  and  N1_4 
REMARK    3  A    between atoms: C5_15  and  N6_16 
ROOT
HETATM    1  N1  UNL     1       4.960   9.862 127.620  1.00  0.00    -0.069 N 
HETATM    2  N2  UNL     1       5.728   9.183 128.627  1.00  0.00    -0.228 N 
ATOM      3  H2  UNL     1       5.357   9.056 129.568  1.00  0.00     0.193 HD
HETATM    4  C3  UNL     1       6.992   8.700 128.291  1.00  0.00     0.355 A 
HETATM    5  O2  UNL     1       7.740   8.086 129.120  1.00  0.00    -0.244 OA
HETATM    6  N3  UNL     1       7.507   8.875 126.991  1.00  0.00    -0.225 N 
ATOM      7  H3  UNL     1       8.433   8.523 126.747  1.00  0.00     0.193 HD
HETATM    8  N4  UNL     1       6.728   9.541 126.042  1.00  0.00    -0.024 N 
HETATM    9  C4  UNL     1       5.476  10.037 126.317  1.00  0.00     0.745 A 
HETATM   10  N5  UNL     1       4.786  10.669 125.350  1.00  0.00    -0.019 N 
ATOM     11  H5  UNL     1       3.856  11.041 125.544  1.00  0.00     0.203 HD
HETATM   12  C5  UNL     1       5.323  10.808 124.128  1.00  0.00     0.694 A 
HETATM   13  N7  UNL     1       6.544  10.338 123.817  1.00  0.00    -0.139 N 
ATOM     14  H7  UNL     1       6.938  10.452 122.883  1.00  0.00     0.189 HD
HETATM   15  C6  UNL     1       7.220   9.711 124.790  1.00  0.00     0.374 A 
HETATM   16  O3  UNL     1       8.372   9.253 124.542  1.00  0.00    -0.244 OA
ENDROOT
BRANCH   1  17
HETATM   17  C2  UNL     1       3.676  10.327 128.040  1.00  0.00     0.269 C 
BRANCH  17  18
HETATM   18  O1  UNL     1       2.608  10.283 127.242  1.00  0.00    -0.349 OA
HETATM   19  C1  UNL     1       1.405  10.520 127.879  1.00  0.00     0.211 C 
ENDBRANCH  17  18
ENDBRANCH   1  17
BRANCH  12  20
HETATM   20  N6  UNL     1       4.653  11.418 123.195  1.00  0.00    -0.234 N 
ATOM     21  H62 UNL     1       4.814  11.130 122.230  1.00  0.00     0.174 HD
ATOM     22  H61 UNL     1       3.995  12.155 123.445  1.00  0.00     0.174 HD
ENDBRANCH  12  20
TORSDOF 3
ENDMDL
