MODEL 1
REMARK VINA RESULT: -4.541141711      0.000      0.000
REMARK  3 active torsions:
REMARK  status: ('A' for Active; 'I' for Inactive)
REMARK    1  A    between atoms: N1_1  and  C1_4 
REMARK    2  A    between atoms: C2_7  and  C3_8 
REMARK    3  A    between atoms: C4_11  and  N4_12 
ROOT
HETATM    1  C1  UNL     1       7.317   9.186   6.122  1.00  0.00     0.679 A 
HETATM    2  N2  UNL     1       6.657  10.104   6.825  1.00  0.00    -0.184 N 
ATOM      3  H2  UNL     1       6.994  10.306   7.766  1.00  0.00     0.184 HD
HETATM    4  C2  UNL     1       5.577  10.786   6.394  1.00  0.00     0.152 A 
HETATM    5  C4  UNL     1       5.123  10.514   5.127  1.00  0.00     0.203 A 
HETATM    6  C5  UNL     1       5.825   9.547   4.397  1.00  0.00     0.295 A 
HETATM    7  O4  UNL     1       5.421   9.276   3.218  1.00  0.00    -0.265 OA
HETATM    8  N5  UNL     1       6.896   8.897   4.878  1.00  0.00    -0.154 N 
ATOM      9  H5  UNL     1       7.381   8.199   4.312  1.00  0.00     0.187 HD
ENDROOT
BRANCH   1  10
HETATM   10  N1  UNL     1       8.362   8.561   6.609  1.00  0.00    -0.234 N 
ATOM     11  H12 UNL     1       8.829   8.936   7.435  1.00  0.00     0.174 HD
ATOM     12  H11 UNL     1       8.724   7.707   6.185  1.00  0.00     0.174 HD
ENDBRANCH   1  10
BRANCH   4  13
HETATM   13  C3  UNL     1       4.903  11.767   7.237  1.00  0.00     0.284 C 
HETATM   14  N3  UNL     1       3.842  11.505   8.116  1.00  0.00    -0.056 NA
HETATM   15  O1  UNL     1       5.331  12.972   7.158  1.00  0.00    -0.269 OA
ENDBRANCH   4  13
BRANCH   5  16
HETATM   16  N4  UNL     1       4.006  11.135   4.514  1.00  0.00    -0.107 N 
HETATM   17  O2  UNL     1       2.879  10.584   4.576  1.00  0.00    -0.531 OA
HETATM   18  O3  UNL     1       4.132  12.342   3.879  1.00  0.00    -0.531 OA
ENDBRANCH   5  16
TORSDOF 3
ENDMDL
MODEL 2
REMARK VINA RESULT: -4.452071790      1.870      3.300
REMARK  3 active torsions:
REMARK  status: ('A' for Active; 'I' for Inactive)
REMARK    1  A    between atoms: N1_1  and  C1_4 
REMARK    2  A    between atoms: C2_7  and  C3_8 
REMARK    3  A    between atoms: C4_11  and  N4_12 
ROOT
HETATM    1  C1  UNL     1       4.321  10.076   3.875  1.00  0.00     0.679 A 
HETATM    2  N2  UNL     1       4.171  10.835   4.958  1.00  0.00    -0.184 N 
ATOM      3  H2  UNL     1       3.311  11.378   5.035  1.00  0.00     0.184 HD
HETATM    4  C2  UNL     1       5.065  10.944   5.962  1.00  0.00     0.152 A 
HETATM    5  C4  UNL     1       6.222  10.212   5.858  1.00  0.00     0.203 A 
HETATM    6  C5  UNL     1       6.369   9.418   4.714  1.00  0.00     0.295 A 
HETATM    7  O4  UNL     1       7.436   8.729   4.596  1.00  0.00    -0.265 OA
HETATM    8  N5  UNL     1       5.444   9.347   3.744  1.00  0.00    -0.154 N 
ATOM      9  H5  UNL     1       5.589   8.754   2.927  1.00  0.00     0.187 HD
ENDROOT
BRANCH   1  10
HETATM   10  N1  UNL     1       3.406  10.020   2.937  1.00  0.00    -0.234 N 
ATOM     11  H12 UNL     1       3.575  10.486   2.046  1.00  0.00     0.174 HD
ATOM     12  H11 UNL     1       2.526   9.522   3.072  1.00  0.00     0.174 HD
ENDBRANCH   1  10
BRANCH   4  13
HETATM   13  C3  UNL     1       4.827  11.812   7.109  1.00  0.00     0.284 C 
HETATM   14  N3  UNL     1       4.060  11.491   8.238  1.00  0.00    -0.056 NA
HETATM   15  O1  UNL     1       5.376  12.968   7.068  1.00  0.00    -0.269 OA
ENDBRANCH   4  13
BRANCH   5  16
HETATM   16  N4  UNL     1       7.266  10.205   6.816  1.00  0.00    -0.107 N 
HETATM   17  O2  UNL     1       7.236   9.378   7.761  1.00  0.00    -0.531 OA
HETATM   18  O3  UNL     1       8.324  11.069   6.711  1.00  0.00    -0.531 OA
ENDBRANCH   5  16
TORSDOF 3
ENDMDL
MODEL 3
REMARK VINA RESULT: -4.329024554      3.950      5.588
REMARK  3 active torsions:
REMARK  status: ('A' for Active; 'I' for Inactive)
REMARK    1  A    between atoms: N1_1  and  C1_4 
REMARK    2  A    between atoms: C2_7  and  C3_8 
REMARK    3  A    between atoms: C4_11  and  N4_12 
ROOT
HETATM    1  C1  UNL     1       3.682  14.118  10.688  1.00  0.00     0.679 A 
HETATM    2  N2  UNL     1       4.200  15.009   9.846  1.00  0.00    -0.184 N 
ATOM      3  H2  UNL     1       4.344  15.957  10.194  1.00  0.00     0.184 HD
HETATM    4  C2  UNL     1       4.551  14.760   8.568  1.00  0.00     0.152 A 
HETATM    5  C4  UNL     1       4.358  13.483   8.098  1.00  0.00     0.203 A 
HETATM    6  C5  UNL     1       3.812  12.555   8.993  1.00  0.00     0.295 A 
HETATM    7  O4  UNL     1       3.623  11.364   8.578  1.00  0.00    -0.265 OA
HETATM    8  N5  UNL     1       3.481  12.859  10.258  1.00  0.00    -0.154 N 
ATOM      9  H5  UNL     1       3.086  12.152  10.878  1.00  0.00     0.187 HD
ENDROOT
BRANCH   1  10
HETATM   10  N1  UNL     1       3.364  14.434  11.921  1.00  0.00    -0.234 N 
ATOM     11  H12 UNL     1       4.054  14.899  12.511  1.00  0.00     0.174 HD
ATOM     12  H11 UNL     1       2.444  14.227  12.309  1.00  0.00     0.174 HD
ENDBRANCH   1  10
BRANCH   4  13
HETATM   13  C3  UNL     1       5.100  15.800   7.707  1.00  0.00     0.284 C 
HETATM   14  N3  UNL     1       4.396  16.512   6.726  1.00  0.00    -0.056 NA
HETATM   15  O1  UNL     1       6.339  16.079   7.874  1.00  0.00    -0.269 OA
ENDBRANCH   4  13
BRANCH   5  16
HETATM   16  N4  UNL     1       4.669  13.046   6.787  1.00  0.00    -0.107 N 
HETATM   17  O2  UNL     1       5.820  12.609   6.535  1.00  0.00    -0.531 OA
HETATM   18  O3  UNL     1       3.724  13.067   5.795  1.00  0.00    -0.531 OA
ENDBRANCH   5  16
TORSDOF 3
ENDMDL
MODEL 4
REMARK VINA RESULT: -4.227604675      1.786      3.252
REMARK  3 active torsions:
REMARK  status: ('A' for Active; 'I' for Inactive)
REMARK    1  A    between atoms: N1_1  and  C1_4 
REMARK    2  A    between atoms: C2_7  and  C3_8 
REMARK    3  A    between atoms: C4_11  and  N4_12 
ROOT
HETATM    1  C1  UNL     1       5.731   9.399   3.412  1.00  0.00     0.679 A 
HETATM    2  N2  UNL     1       6.566   9.533   4.440  1.00  0.00    -0.184 N 
ATOM      3  H2  UNL     1       7.451   9.029   4.394  1.00  0.00     0.184 HD
HETATM    4  C2  UNL     1       6.334  10.280   5.539  1.00  0.00     0.152 A 
HETATM    5  C4  UNL     1       5.141  10.959   5.600  1.00  0.00     0.203 A 
HETATM    6  C5  UNL     1       4.272  10.810   4.513  1.00  0.00     0.295 A 
HETATM    7  O4  UNL     1       3.158  11.430   4.548  1.00  0.00    -0.265 OA
HETATM    8  N5  UNL     1       4.555  10.052   3.442  1.00  0.00    -0.154 N 
ATOM      9  H5  UNL     1       3.893   9.971   2.670  1.00  0.00     0.187 HD
ENDROOT
BRANCH   1  10
HETATM   10  N1  UNL     1       6.025   8.653   2.374  1.00  0.00    -0.234 N 
ATOM     11  H12 UNL     1       6.466   7.746   2.520  1.00  0.00     0.174 HD
ATOM     12  H11 UNL     1       5.825   8.954   1.420  1.00  0.00     0.174 HD
ENDBRANCH   1  10
BRANCH   4  13
HETATM   13  C3  UNL     1       7.299  10.359   6.629  1.00  0.00     0.284 C 
HETATM   14  N3  UNL     1       8.389  11.238   6.698  1.00  0.00    -0.056 NA
HETATM   15  O1  UNL     1       7.121   9.550   7.604  1.00  0.00    -0.269 OA
ENDBRANCH   4  13
BRANCH   5  16
HETATM   16  N4  UNL     1       4.734  11.787   6.675  1.00  0.00    -0.107 N 
HETATM   17  O2  UNL     1       4.987  13.017   6.640  1.00  0.00    -0.531 OA
HETATM   18  O3  UNL     1       4.043  11.271   7.739  1.00  0.00    -0.531 OA
ENDBRANCH   5  16
TORSDOF 3
ENDMDL
MODEL 5
REMARK VINA RESULT: -4.203440757     10.494     12.197
REMARK  3 active torsions:
REMARK  status: ('A' for Active; 'I' for Inactive)
REMARK    1  A    between atoms: N1_1  and  C1_4 
REMARK    2  A    between atoms: C2_7  and  C3_8 
REMARK    3  A    between atoms: C4_11  and  N4_12 
ROOT
HETATM    1  C1  UNL     1      -1.265  15.951  15.054  1.00  0.00     0.679 A 
HETATM    2  N2  UNL     1      -0.350  16.454  14.228  1.00  0.00    -0.184 N 
ATOM      3  H2  UNL     1      -0.669  17.120  13.524  1.00  0.00     0.184 HD
HETATM    4  C2  UNL     1       0.964  16.154  14.247  1.00  0.00     0.152 A 
HETATM    5  C4  UNL     1       1.393  15.257  15.195  1.00  0.00     0.203 A 
HETATM    6  C5  UNL     1       0.422  14.734  16.057  1.00  0.00     0.295 A 
HETATM    7  O4  UNL     1       0.797  13.899  16.945  1.00  0.00    -0.265 OA
HETATM    8  N5  UNL     1      -0.876  15.070  15.993  1.00  0.00    -0.154 N 
ATOM      9  H5  UNL     1      -1.552  14.666  16.642  1.00  0.00     0.187 HD
ENDROOT
BRANCH   1  10
HETATM   10  N1  UNL     1      -2.530  16.290  14.976  1.00  0.00    -0.234 N 
ATOM     11  H12 UNL     1      -2.826  16.952  14.259  1.00  0.00     0.174 HD
ATOM     12  H11 UNL     1      -3.229  15.911  15.614  1.00  0.00     0.174 HD
ENDBRANCH   1  10
BRANCH   4  13
HETATM   13  C3  UNL     1       1.898  16.742  13.294  1.00  0.00     0.284 C 
HETATM   14  N3  UNL     1       2.597  17.946  13.464  1.00  0.00    -0.056 NA
HETATM   15  O1  UNL     1       2.089  16.088  12.210  1.00  0.00    -0.269 OA
ENDBRANCH   4  13
BRANCH   5  16
HETATM   16  N4  UNL     1       2.734  14.829  15.358  1.00  0.00    -0.107 N 
HETATM   17  O2  UNL     1       3.161  13.858  14.684  1.00  0.00    -0.531 OA
HETATM   18  O3  UNL     1       3.580  15.475  16.219  1.00  0.00    -0.531 OA
ENDBRANCH   5  16
TORSDOF 3
ENDMDL
