MODEL 1
REMARK VINA RESULT: -6.773218713      0.000      0.000
REMARK  3 active torsions:
REMARK  status: ('A' for Active; 'I' for Inactive)
REMARK    1  A    between atoms: N1_1  and  N2_4 
REMARK    2  A    between atoms: N2_4  and  N3_5 
REMARK       I    between atoms: N3_5  and  C1_7 
REMARK    3  A    between atoms: C1_7  and  C2_9 
ROOT
HETATM    1  C2  UNL     1      28.354  46.772  -3.184  1.00  0.00     0.084 A 
HETATM    2  C3  UNL     1      27.195  47.539  -3.343  1.00  0.00     0.099 A 
HETATM    3  C4  UNL     1      26.554  48.166  -2.311  1.00  0.00     0.249 A 
HETATM    4  O2  UNL     1      25.505  48.824  -2.657  1.00  0.00    -0.268 OA
HETATM    5  N4  UNL     1      26.883  48.171  -1.027  1.00  0.00    -0.284 N 
ATOM      6  H4  UNL     1      26.277  48.701  -0.400  1.00  0.00     0.172 HD
HETATM    7  C5  UNL     1      27.930  47.553  -0.469  1.00  0.00     0.291 A 
HETATM    8  O3  UNL     1      28.166  47.617   0.783  1.00  0.00    -0.260 OA
HETATM    9  S1  UNL     1      28.898  46.689  -1.570  1.00  0.00    -0.023 SA
ENDROOT
BRANCH   1  10
HETATM   10  C1  UNL     1      29.030  46.112  -4.291  1.00  0.00     0.275 C 
HETATM   11  N3  UNL     1      28.808  44.764  -4.633  1.00  0.00    -0.250 N 
ATOM     12  H3  UNL     1      28.148  44.204  -4.095  1.00  0.00     0.187 HD
HETATM   13  O1  UNL     1      29.844  46.821  -4.943  1.00  0.00    -0.266 OA
BRANCH  11  14
HETATM   14  N2  UNL     1      29.500  44.186  -5.721  1.00  0.00    -0.027 NA
BRANCH  14  15
HETATM   15  N1  UNL     1      29.459  42.811  -5.730  1.00  0.00    -0.329 N 
ATOM     16  H12 UNL     1      29.185  42.268  -4.912  1.00  0.00     0.174 HD
ATOM     17  H11 UNL     1      29.726  42.401  -6.625  1.00  0.00     0.174 HD
ENDBRANCH  14  15
ENDBRANCH  11  14
ENDBRANCH   1  10
TORSDOF 3
ENDMDL
MODEL 2
REMARK VINA RESULT: -6.752205658      1.047      2.238
REMARK  3 active torsions:
REMARK  status: ('A' for Active; 'I' for Inactive)
REMARK    1  A    between atoms: N1_1  and  N2_4 
REMARK    2  A    between atoms: N2_4  and  N3_5 
REMARK       I    between atoms: N3_5  and  C1_7 
REMARK    3  A    between atoms: C1_7  and  C2_9 
ROOT
HETATM    1  C2  UNL     1      28.573  46.773  -3.068  1.00  0.00     0.084 A 
HETATM    2  C3  UNL     1      29.093  46.613  -1.780  1.00  0.00     0.099 A 
HETATM    3  C4  UNL     1      28.572  47.219  -0.670  1.00  0.00     0.249 A 
HETATM    4  O2  UNL     1      29.190  46.948   0.424  1.00  0.00    -0.268 OA
HETATM    5  N4  UNL     1      27.529  48.034  -0.598  1.00  0.00    -0.284 N 
ATOM      6  H4  UNL     1      27.289  48.390   0.327  1.00  0.00     0.172 HD
HETATM    7  C5  UNL     1      26.759  48.437  -1.615  1.00  0.00     0.291 A 
HETATM    8  O3  UNL     1      25.773  49.226  -1.446  1.00  0.00    -0.260 OA
HETATM    9  S1  UNL     1      27.216  47.805  -3.129  1.00  0.00    -0.023 SA
ENDROOT
BRANCH   1  10
HETATM   10  C1  UNL     1      29.134  46.120  -4.241  1.00  0.00     0.275 C 
HETATM   11  N3  UNL     1      28.860  44.780  -4.579  1.00  0.00    -0.250 N 
ATOM     12  H3  UNL     1      28.243  44.222  -3.989  1.00  0.00     0.187 HD
HETATM   13  O1  UNL     1      29.895  46.827  -4.955  1.00  0.00    -0.266 OA
BRANCH  11  14
HETATM   14  N2  UNL     1      29.439  44.208  -5.734  1.00  0.00    -0.027 NA
BRANCH  14  15
HETATM   15  N1  UNL     1      29.426  42.833  -5.731  1.00  0.00    -0.329 N 
ATOM     16  H12 UNL     1      28.570  42.295  -5.860  1.00  0.00     0.174 HD
ATOM     17  H11 UNL     1      30.346  42.417  -5.588  1.00  0.00     0.174 HD
ENDBRANCH  14  15
ENDBRANCH  11  14
ENDBRANCH   1  10
TORSDOF 3
ENDMDL
MODEL 3
REMARK VINA RESULT: -6.685754076      3.516      4.359
REMARK  3 active torsions:
REMARK  status: ('A' for Active; 'I' for Inactive)
REMARK    1  A    between atoms: N1_1  and  N2_4 
REMARK    2  A    between atoms: N2_4  and  N3_5 
REMARK       I    between atoms: N3_5  and  C1_7 
REMARK    3  A    between atoms: C1_7  and  C2_9 
ROOT
HETATM    1  C2  UNL     1      30.060  47.412  -2.460  1.00  0.00     0.084 A 
HETATM    2  C3  UNL     1      29.319  46.739  -3.437  1.00  0.00     0.099 A 
HETATM    3  C4  UNL     1      28.380  45.786  -3.154  1.00  0.00     0.249 A 
HETATM    4  O2  UNL     1      27.805  45.282  -4.187  1.00  0.00    -0.268 OA
HETATM    5  N4  UNL     1      28.006  45.336  -1.964  1.00  0.00    -0.284 N 
ATOM      6  H4  UNL     1      27.283  44.617  -1.953  1.00  0.00     0.172 HD
HETATM    7  C5  UNL     1      28.480  45.729  -0.777  1.00  0.00     0.291 A 
HETATM    8  O3  UNL     1      28.055  45.234   0.319  1.00  0.00    -0.260 OA
HETATM    9  S1  UNL     1      29.682  46.931  -0.868  1.00  0.00    -0.023 SA
ENDROOT
BRANCH   1  10
HETATM   10  C1  UNL     1      31.055  48.427  -2.774  1.00  0.00     0.275 C 
HETATM   11  N3  UNL     1      30.850  49.431  -3.740  1.00  0.00    -0.250 N 
ATOM     12  H3  UNL     1      29.972  49.469  -4.257  1.00  0.00     0.187 HD
HETATM   13  O1  UNL     1      32.134  48.362  -2.124  1.00  0.00    -0.266 OA
BRANCH  11  14
HETATM   14  N2  UNL     1      31.860  50.386  -3.994  1.00  0.00    -0.027 NA
BRANCH  14  15
HETATM   15  N1  UNL     1      32.035  51.286  -2.969  1.00  0.00    -0.329 N 
ATOM     16  H12 UNL     1      31.839  52.281  -3.075  1.00  0.00     0.174 HD
ATOM     17  H11 UNL     1      32.375  50.860  -2.107  1.00  0.00     0.174 HD
ENDBRANCH  14  15
ENDBRANCH  11  14
ENDBRANCH   1  10
TORSDOF 3
ENDMDL
MODEL 4
REMARK VINA RESULT: -6.647864599      1.592      2.377
REMARK  3 active torsions:
REMARK  status: ('A' for Active; 'I' for Inactive)
REMARK    1  A    between atoms: N1_1  and  N2_4 
REMARK    2  A    between atoms: N2_4  and  N3_5 
REMARK       I    between atoms: N3_5  and  C1_7 
REMARK    3  A    between atoms: C1_7  and  C2_9 
ROOT
HETATM    1  C2  UNL     1      29.255  46.568  -3.451  1.00  0.00     0.084 A 
HETATM    2  C3  UNL     1      30.183  47.097  -2.550  1.00  0.00     0.099 A 
HETATM    3  C4  UNL     1      29.840  47.856  -1.465  1.00  0.00     0.249 A 
HETATM    4  O2  UNL     1      30.836  48.251  -0.755  1.00  0.00    -0.268 OA
HETATM    5  N4  UNL     1      28.627  48.221  -1.075  1.00  0.00    -0.284 N 
ATOM      6  H4  UNL     1      28.570  48.793  -0.232  1.00  0.00     0.172 HD
HETATM    7  C5  UNL     1      27.470  47.916  -1.673  1.00  0.00     0.291 A 
HETATM    8  O3  UNL     1      26.348  48.316  -1.219  1.00  0.00    -0.260 OA
HETATM    9  S1  UNL     1      27.639  46.960  -3.071  1.00  0.00    -0.023 SA
ENDROOT
BRANCH   1  10
HETATM   10  C1  UNL     1      29.632  45.758  -4.600  1.00  0.00     0.275 C 
HETATM   11  N3  UNL     1      29.013  44.532  -4.913  1.00  0.00    -0.250 N 
ATOM     12  H3  UNL     1      28.264  44.175  -4.322  1.00  0.00     0.187 HD
HETATM   13  O1  UNL     1      30.562  46.217  -5.318  1.00  0.00    -0.266 OA
BRANCH  11  14
HETATM   14  N2  UNL     1      29.430  43.797  -6.045  1.00  0.00    -0.027 NA
BRANCH  14  15
HETATM   15  N1  UNL     1      29.325  42.435  -5.884  1.00  0.00    -0.329 N 
ATOM     16  H12 UNL     1      28.480  41.991  -5.525  1.00  0.00     0.174 HD
ATOM     17  H11 UNL     1      30.166  41.927  -6.156  1.00  0.00     0.174 HD
ENDBRANCH  14  15
ENDBRANCH  11  14
ENDBRANCH   1  10
TORSDOF 3
ENDMDL
MODEL 5
REMARK VINA RESULT: -6.481768121      1.638      1.770
REMARK  3 active torsions:
REMARK  status: ('A' for Active; 'I' for Inactive)
REMARK    1  A    between atoms: N1_1  and  N2_4 
REMARK    2  A    between atoms: N2_4  and  N3_5 
REMARK       I    between atoms: N3_5  and  C1_7 
REMARK    3  A    between atoms: C1_7  and  C2_9 
ROOT
HETATM    1  C2  UNL     1      29.259  46.246  -4.058  1.00  0.00     0.084 A 
HETATM    2  C3  UNL     1      27.981  46.595  -3.611  1.00  0.00     0.099 A 
HETATM    3  C4  UNL     1      27.748  47.371  -2.509  1.00  0.00     0.249 A 
HETATM    4  O2  UNL     1      26.505  47.581  -2.259  1.00  0.00    -0.268 OA
HETATM    5  N4  UNL     1      28.637  47.916  -1.691  1.00  0.00    -0.284 N 
ATOM      6  H4  UNL     1      28.269  48.468  -0.916  1.00  0.00     0.172 HD
HETATM    7  C5  UNL     1      29.968  47.816  -1.778  1.00  0.00     0.291 A 
HETATM    8  O3  UNL     1      30.745  48.380  -0.939  1.00  0.00    -0.260 OA
HETATM    9  S1  UNL     1      30.514  46.882  -3.093  1.00  0.00    -0.023 SA
ENDROOT
BRANCH   1  10
HETATM   10  C1  UNL     1      29.495  45.422  -5.234  1.00  0.00     0.275 C 
HETATM   11  N3  UNL     1      29.393  44.018  -5.221  1.00  0.00    -0.250 N 
ATOM     12  H3  UNL     1      29.143  43.533  -4.360  1.00  0.00     0.187 HD
HETATM   13  O1  UNL     1      29.804  46.041  -6.289  1.00  0.00    -0.266 OA
BRANCH  11  14
HETATM   14  N2  UNL     1      29.635  43.279  -6.401  1.00  0.00    -0.027 NA
BRANCH  14  15
HETATM   15  N1  UNL     1      29.022  42.048  -6.414  1.00  0.00    -0.329 N 
ATOM     16  H12 UNL     1      28.161  41.861  -5.902  1.00  0.00     0.174 HD
ATOM     17  H11 UNL     1      29.512  41.355  -6.979  1.00  0.00     0.174 HD
ENDBRANCH  14  15
ENDBRANCH  11  14
ENDBRANCH   1  10
TORSDOF 3
ENDMDL
