MODEL 1
REMARK VINA RESULT: -6.922828058      0.000      0.000
REMARK  7 active torsions:
REMARK  status: ('A' for Active; 'I' for Inactive)
REMARK    1  A    between atoms: N1_1  and  C1_4 
REMARK    2  A    between atoms: C4_11  and  C5_12 
REMARK    3  A    between atoms: C5_12  and  C6_13 
REMARK       I    between atoms: C6_13  and  N4_15 
REMARK    4  A    between atoms: N4_15  and  C7_17 
REMARK    5  A    between atoms: C7_17  and  C8_18 
REMARK    6  A    between atoms: C8_18  and  N5_19 
REMARK    7  A    between atoms: N5_19  and  N6_20 
ROOT
HETATM    1  C1  UNL     1      -3.045  -3.372  19.262  1.00  0.00     0.129 A 
HETATM    2  N2  UNL     1      -3.725  -2.271  19.559  1.00  0.00    -0.337 N 
ATOM      3  H2  UNL     1      -4.639  -2.363  20.003  1.00  0.00     0.168 HD
HETATM    4  C2  UNL     1      -3.247  -1.022  19.292  1.00  0.00     0.182 A 
HETATM    5  N3  UNL     1      -2.044  -0.938  18.709  1.00  0.00    -0.349 N 
ATOM      6  H3  UNL     1      -1.670  -0.012  18.501  1.00  0.00     0.167 HD
HETATM    7  C3  UNL     1      -1.301  -2.019  18.382  1.00  0.00     0.087 A 
HETATM    8  C4  UNL     1      -0.076  -1.933  17.784  1.00  0.00     0.048 A 
HETATM    9  N7  UNL     1       0.570  -3.113  17.500  1.00  0.00    -0.353 N 
ATOM     10  H7  UNL     1       1.486  -3.064  17.054  1.00  0.00     0.166 HD
HETATM   11  C9  UNL     1       0.074  -4.308  17.772  1.00  0.00     0.181 A 
HETATM   12  N8  UNL     1      -1.138  -4.420  18.365  1.00  0.00    -0.347 N 
ATOM     13  H8  UNL     1      -1.539  -5.332  18.585  1.00  0.00     0.167 HD
HETATM   14  C10 UNL     1      -1.794  -3.275  18.655  1.00  0.00     0.106 A 
ENDROOT
BRANCH   8  15
HETATM   15  C5  UNL     1       0.567  -0.647  17.494  1.00  0.00     0.162 C 
BRANCH  15  16
HETATM   16  C6  UNL     1       0.410  -0.377  16.046  1.00  0.00     0.223 C 
HETATM   17  O1  UNL     1      -0.013  -1.287  15.306  1.00  0.00    -0.273 OA
HETATM   18  N4  UNL     1       0.712   0.892  15.455  1.00  0.00    -0.360 N 
ATOM     19  H4  UNL     1       1.061   1.662  16.026  1.00  0.00     0.162 HD
BRANCH  18  20
HETATM   20  C7  UNL     1       0.510   1.057  14.037  1.00  0.00     0.140 C 
BRANCH  20  21
HETATM   21  C8  UNL     1       0.198   2.447  13.603  1.00  0.00     0.154 C 
BRANCH  21  22
HETATM   22  N5  UNL     1      -0.891   3.007  14.371  1.00  0.00    -0.147 NA
BRANCH  22  23
HETATM   23  N6  UNL     1      -1.758   3.763  13.614  1.00  0.00    -0.348 N 
ATOM     24  H62 UNL     1      -2.750   3.542  13.534  1.00  0.00     0.172 HD
ATOM     25  H61 UNL     1      -1.308   4.553  13.152  1.00  0.00     0.172 HD
ENDBRANCH  22  23
ENDBRANCH  21  22
ENDBRANCH  20  21
ENDBRANCH  18  20
ENDBRANCH  15  16
ENDBRANCH   8  15
BRANCH   1  26
HETATM   26  N1  UNL     1      -3.493  -4.564  19.526  1.00  0.00    -0.384 N 
ATOM     27  H12 UNL     1      -4.344  -4.634  20.084  1.00  0.00     0.157 HD
ATOM     28  H11 UNL     1      -3.034  -5.410  19.190  1.00  0.00     0.157 HD
ENDBRANCH   1  26
TORSDOF 7
ENDMDL
MODEL 2
REMARK VINA RESULT: -6.922441439      3.318      7.564
REMARK  7 active torsions:
REMARK  status: ('A' for Active; 'I' for Inactive)
REMARK    1  A    between atoms: N1_1  and  C1_4 
REMARK    2  A    between atoms: C4_11  and  C5_12 
REMARK    3  A    between atoms: C5_12  and  C6_13 
REMARK       I    between atoms: C6_13  and  N4_15 
REMARK    4  A    between atoms: N4_15  and  C7_17 
REMARK    5  A    between atoms: C7_17  and  C8_18 
REMARK    6  A    between atoms: C8_18  and  N5_19 
REMARK    7  A    between atoms: N5_19  and  N6_20 
ROOT
HETATM    1  C1  UNL     1       1.117  -1.802  17.648  1.00  0.00     0.129 A 
HETATM    2  N2  UNL     1       1.523  -2.992  17.223  1.00  0.00    -0.337 N 
ATOM      3  H2  UNL     1       2.460  -3.080  16.830  1.00  0.00     0.168 HD
HETATM    4  C2  UNL     1       0.733  -4.102  17.292  1.00  0.00     0.182 A 
HETATM    5  N3  UNL     1      -0.491  -3.950  17.814  1.00  0.00    -0.349 N 
ATOM      6  H3  UNL     1      -1.097  -4.769  17.874  1.00  0.00     0.167 HD
HETATM    7  C3  UNL     1      -0.965  -2.767  18.265  1.00  0.00     0.087 A 
HETATM    8  C4  UNL     1      -2.215  -2.614  18.793  1.00  0.00     0.048 A 
HETATM    9  N7  UNL     1      -2.572  -1.352  19.208  1.00  0.00    -0.353 N 
ATOM     10  H7  UNL     1      -3.502  -1.222  19.605  1.00  0.00     0.166 HD
HETATM   11  C9  UNL     1      -1.779  -0.297  19.123  1.00  0.00     0.181 A 
HETATM   12  N8  UNL     1      -0.535  -0.424  18.604  1.00  0.00    -0.347 N 
ATOM     13  H8  UNL     1       0.093   0.376  18.530  1.00  0.00     0.167 HD
HETATM   14  C10 UNL     1      -0.159  -1.653  18.189  1.00  0.00     0.106 A 
ENDROOT
BRANCH   8  15
HETATM   15  C5  UNL     1      -3.137  -3.740  18.969  1.00  0.00     0.162 C 
BRANCH  15  16
HETATM   16  C6  UNL     1      -3.717  -3.644  20.329  1.00  0.00     0.223 C 
HETATM   17  O1  UNL     1      -4.464  -2.683  20.599  1.00  0.00    -0.273 OA
HETATM   18  N4  UNL     1      -3.469  -4.617  21.350  1.00  0.00    -0.360 N 
ATOM     19  H4  UNL     1      -2.863  -5.417  21.170  1.00  0.00     0.162 HD
BRANCH  18  20
HETATM   20  C7  UNL     1      -4.094  -4.439  22.637  1.00  0.00     0.140 C 
BRANCH  20  21
HETATM   21  C8  UNL     1      -5.382  -5.164  22.816  1.00  0.00     0.154 C 
BRANCH  21  22
HETATM   22  N5  UNL     1      -5.619  -6.094  21.734  1.00  0.00    -0.147 NA
BRANCH  22  23
HETATM   23  N6  UNL     1      -5.870  -7.378  22.165  1.00  0.00    -0.348 N 
ATOM     24  H62 UNL     1      -5.449  -8.195  21.724  1.00  0.00     0.172 HD
ATOM     25  H61 UNL     1      -6.508  -7.419  22.959  1.00  0.00     0.172 HD
ENDBRANCH  22  23
ENDBRANCH  21  22
ENDBRANCH  20  21
ENDBRANCH  18  20
ENDBRANCH  15  16
ENDBRANCH   8  15
BRANCH   1  26
HETATM   26  N1  UNL     1       1.871  -0.744  17.593  1.00  0.00    -0.384 N 
ATOM     27  H12 UNL     1       2.881  -0.885  17.619  1.00  0.00     0.157 HD
ATOM     28  H11 UNL     1       1.491   0.199  17.517  1.00  0.00     0.157 HD
ENDBRANCH   1  26
TORSDOF 7
ENDMDL
MODEL 3
REMARK VINA RESULT: -6.905844505      2.787      7.140
REMARK  7 active torsions:
REMARK  status: ('A' for Active; 'I' for Inactive)
REMARK    1  A    between atoms: N1_1  and  C1_4 
REMARK    2  A    between atoms: C4_11  and  C5_12 
REMARK    3  A    between atoms: C5_12  and  C6_13 
REMARK       I    between atoms: C6_13  and  N4_15 
REMARK    4  A    between atoms: N4_15  and  C7_17 
REMARK    5  A    between atoms: C7_17  and  C8_18 
REMARK    6  A    between atoms: C8_18  and  N5_19 
REMARK    7  A    between atoms: N5_19  and  N6_20 
ROOT
HETATM    1  C1  UNL     1       1.594  -1.354  17.013  1.00  0.00     0.129 A 
HETATM    2  N2  UNL     1       1.349  -0.051  17.065  1.00  0.00    -0.337 N 
ATOM      3  H2  UNL     1       2.055   0.597  16.714  1.00  0.00     0.168 HD
HETATM    4  C2  UNL     1       0.188   0.456  17.572  1.00  0.00     0.182 A 
HETATM    5  N3  UNL     1      -0.716  -0.422  18.025  1.00  0.00    -0.349 N 
ATOM      6  H3  UNL     1      -1.591  -0.062  18.407  1.00  0.00     0.167 HD
HETATM    7  C3  UNL     1      -0.529  -1.760  18.000  1.00  0.00     0.087 A 
HETATM    8  C4  UNL     1      -1.451  -2.654  18.464  1.00  0.00     0.048 A 
HETATM    9  N7  UNL     1      -1.130  -3.989  18.384  1.00  0.00    -0.353 N 
ATOM     10  H7  UNL     1      -1.809  -4.668  18.727  1.00  0.00     0.166 HD
HETATM   11  C9  UNL     1       0.008  -4.443  17.888  1.00  0.00     0.181 A 
HETATM   12  N8  UNL     1       0.938  -3.577  17.419  1.00  0.00    -0.347 N 
ATOM     13  H8  UNL     1       1.822  -3.907  17.031  1.00  0.00     0.167 HD
HETATM   14  C10 UNL     1       0.647  -2.260  17.486  1.00  0.00     0.106 A 
ENDROOT
BRANCH   8  15
HETATM   15  C5  UNL     1      -2.757  -2.236  18.984  1.00  0.00     0.162 C 
BRANCH  15  16
HETATM   16  C6  UNL     1      -3.434  -3.436  19.529  1.00  0.00     0.223 C 
HETATM   17  O1  UNL     1      -3.904  -4.276  18.736  1.00  0.00    -0.273 OA
HETATM   18  N4  UNL     1      -3.564  -3.684  20.934  1.00  0.00    -0.360 N 
ATOM     19  H4  UNL     1      -3.194  -3.022  21.616  1.00  0.00     0.162 HD
BRANCH  18  20
HETATM   20  C7  UNL     1      -4.228  -4.890  21.362  1.00  0.00     0.140 C 
BRANCH  20  21
HETATM   21  C8  UNL     1      -4.989  -4.771  22.636  1.00  0.00     0.154 C 
BRANCH  21  22
HETATM   22  N5  UNL     1      -5.958  -5.836  22.772  1.00  0.00    -0.147 NA
BRANCH  22  23
HETATM   23  N6  UNL     1      -5.647  -6.952  22.029  1.00  0.00    -0.348 N 
ATOM     24  H62 UNL     1      -6.072  -7.142  21.122  1.00  0.00     0.172 HD
ATOM     25  H61 UNL     1      -4.959  -7.557  22.477  1.00  0.00     0.172 HD
ENDBRANCH  22  23
ENDBRANCH  21  22
ENDBRANCH  20  21
ENDBRANCH  18  20
ENDBRANCH  15  16
ENDBRANCH   8  15
BRANCH   1  26
HETATM   26  N1  UNL     1       2.695  -1.840  16.520  1.00  0.00    -0.384 N 
ATOM     27  H12 UNL     1       2.617  -2.460  15.714  1.00  0.00     0.157 HD
ATOM     28  H11 UNL     1       3.614  -1.617  16.903  1.00  0.00     0.157 HD
ENDBRANCH   1  26
TORSDOF 7
ENDMDL
MODEL 4
REMARK VINA RESULT: -6.688540716      2.740      6.729
REMARK  7 active torsions:
REMARK  status: ('A' for Active; 'I' for Inactive)
REMARK    1  A    between atoms: N1_1  and  C1_4 
REMARK    2  A    between atoms: C4_11  and  C5_12 
REMARK    3  A    between atoms: C5_12  and  C6_13 
REMARK       I    between atoms: C6_13  and  N4_15 
REMARK    4  A    between atoms: N4_15  and  C7_17 
REMARK    5  A    between atoms: C7_17  and  C8_18 
REMARK    6  A    between atoms: C8_18  and  N5_19 
REMARK    7  A    between atoms: N5_19  and  N6_20 
ROOT
HETATM    1  C1  UNL     1       1.906  -1.532  17.068  1.00  0.00     0.129 A 
HETATM    2  N2  UNL     1       1.808  -0.212  16.960  1.00  0.00    -0.337 N 
ATOM      3  H2  UNL     1       2.627   0.319  16.666  1.00  0.00     0.168 HD
HETATM    4  C2  UNL     1       0.651   0.459  17.228  1.00  0.00     0.182 A 
HETATM    5  N3  UNL     1      -0.405  -0.270  17.612  1.00  0.00    -0.349 N 
ATOM      6  H3  UNL     1      -1.279   0.215  17.817  1.00  0.00     0.167 HD
HETATM    7  C3  UNL     1      -0.371  -1.615  17.741  1.00  0.00     0.087 A 
HETATM    8  C4  UNL     1      -1.448  -2.357  18.135  1.00  0.00     0.048 A 
HETATM    9  N7  UNL     1      -1.273  -3.718  18.231  1.00  0.00    -0.353 N 
ATOM     10  H7  UNL     1      -2.069  -4.284  18.524  1.00  0.00     0.166 HD
HETATM   11  C9  UNL     1      -0.134  -4.334  17.965  1.00  0.00     0.181 A 
HETATM   12  N8  UNL     1       0.947  -3.621  17.571  1.00  0.00    -0.347 N 
ATOM     13  H8  UNL     1       1.835  -4.077  17.360  1.00  0.00     0.167 HD
HETATM   14  C10 UNL     1       0.802  -2.282  17.468  1.00  0.00     0.106 A 
ENDROOT
BRANCH   8  15
HETATM   15  C5  UNL     1      -2.759  -1.757  18.401  1.00  0.00     0.162 C 
BRANCH  15  16
HETATM   16  C6  UNL     1      -3.134  -2.086  19.796  1.00  0.00     0.223 C 
HETATM   17  O1  UNL     1      -2.867  -1.272  20.701  1.00  0.00    -0.273 OA
HETATM   18  N4  UNL     1      -3.806  -3.300  20.153  1.00  0.00    -0.360 N 
ATOM     19  H4  UNL     1      -4.041  -3.994  19.444  1.00  0.00     0.162 HD
BRANCH  18  20
HETATM   20  C7  UNL     1      -4.140  -3.520  21.538  1.00  0.00     0.140 C 
BRANCH  20  21
HETATM   21  C8  UNL     1      -4.509  -4.921  21.883  1.00  0.00     0.154 C 
BRANCH  21  22
HETATM   22  N5  UNL     1      -4.944  -5.654  20.714  1.00  0.00    -0.147 NA
BRANCH  22  23
HETATM   23  N6  UNL     1      -4.266  -6.839  20.532  1.00  0.00    -0.348 N 
ATOM     24  H62 UNL     1      -3.777  -7.312  21.291  1.00  0.00     0.172 HD
ATOM     25  H61 UNL     1      -4.308  -7.184  19.573  1.00  0.00     0.172 HD
ENDBRANCH  22  23
ENDBRANCH  21  22
ENDBRANCH  20  21
ENDBRANCH  18  20
ENDBRANCH  15  16
ENDBRANCH   8  15
BRANCH   1  26
HETATM   26  N1  UNL     1       3.005  -2.175  16.803  1.00  0.00    -0.384 N 
ATOM     27  H12 UNL     1       2.986  -3.192  16.885  1.00  0.00     0.157 HD
ATOM     28  H11 UNL     1       3.862  -1.704  16.515  1.00  0.00     0.157 HD
ENDBRANCH   1  26
TORSDOF 7
ENDMDL
MODEL 5
REMARK VINA RESULT: -6.368356978      3.064      7.175
REMARK  7 active torsions:
REMARK  status: ('A' for Active; 'I' for Inactive)
REMARK    1  A    between atoms: N1_1  and  C1_4 
REMARK    2  A    between atoms: C4_11  and  C5_12 
REMARK    3  A    between atoms: C5_12  and  C6_13 
REMARK       I    between atoms: C6_13  and  N4_15 
REMARK    4  A    between atoms: N4_15  and  C7_17 
REMARK    5  A    between atoms: C7_17  and  C8_18 
REMARK    6  A    between atoms: C8_18  and  N5_19 
REMARK    7  A    between atoms: N5_19  and  N6_20 
ROOT
HETATM    1  C1  UNL     1       1.715  -1.048  17.304  1.00  0.00     0.129 A 
HETATM    2  N2  UNL     1       2.449  -2.062  16.863  1.00  0.00    -0.337 N 
ATOM      3  H2  UNL     1       3.388  -1.873  16.512  1.00  0.00     0.168 HD
HETATM    4  C2  UNL     1       1.994  -3.349  16.862  1.00  0.00     0.182 A 
HETATM    5  N3  UNL     1       0.757  -3.561  17.329  1.00  0.00    -0.349 N 
ATOM      6  H3  UNL     1       0.400  -4.516  17.336  1.00  0.00     0.167 HD
HETATM    7  C3  UNL     1      -0.041  -2.573  17.792  1.00  0.00     0.087 A 
HETATM    8  C4  UNL     1      -1.303  -2.791  18.266  1.00  0.00     0.048 A 
HETATM    9  N7  UNL     1      -2.010  -1.694  18.702  1.00  0.00    -0.353 N 
ATOM     10  H7  UNL     1      -2.954  -1.841  19.058  1.00  0.00     0.166 HD
HETATM   11  C9  UNL     1      -1.536  -0.460  18.686  1.00  0.00     0.181 A 
HETATM   12  N8  UNL     1      -0.287  -0.218  18.223  1.00  0.00    -0.347 N 
ATOM     13  H8  UNL     1       0.098   0.726  18.202  1.00  0.00     0.167 HD
HETATM   14  C10 UNL     1       0.428  -1.279  17.789  1.00  0.00     0.106 A 
ENDROOT
BRANCH   8  15
HETATM   15  C5  UNL     1      -1.885  -4.133  18.364  1.00  0.00     0.162 C 
BRANCH  15  16
HETATM   16  C6  UNL     1      -3.095  -4.043  19.213  1.00  0.00     0.223 C 
HETATM   17  O1  UNL     1      -4.215  -4.196  18.685  1.00  0.00    -0.273 OA
HETATM   18  N4  UNL     1      -3.038  -3.798  20.623  1.00  0.00    -0.360 N 
ATOM     19  H4  UNL     1      -2.143  -3.666  21.093  1.00  0.00     0.162 HD
BRANCH  18  20
HETATM   20  C7  UNL     1      -4.275  -3.743  21.363  1.00  0.00     0.140 C 
BRANCH  20  21
HETATM   21  C8  UNL     1      -4.575  -4.953  22.177  1.00  0.00     0.154 C 
BRANCH  21  22
HETATM   22  N5  UNL     1      -5.316  -5.932  21.414  1.00  0.00    -0.147 NA
BRANCH  22  23
HETATM   23  N6  UNL     1      -4.509  -6.823  20.742  1.00  0.00    -0.348 N 
ATOM     24  H62 UNL     1      -4.573  -6.966  19.734  1.00  0.00     0.172 HD
ATOM     25  H61 UNL     1      -3.854  -7.312  21.350  1.00  0.00     0.172 HD
ENDBRANCH  22  23
ENDBRANCH  21  22
ENDBRANCH  20  21
ENDBRANCH  18  20
ENDBRANCH  15  16
ENDBRANCH   8  15
BRANCH   1  26
HETATM   26  N1  UNL     1       2.150   0.177  17.317  1.00  0.00    -0.384 N 
ATOM     27  H12 UNL     1       2.237   0.636  18.224  1.00  0.00     0.157 HD
ATOM     28  H11 UNL     1       2.408   0.677  16.466  1.00  0.00     0.157 HD
ENDBRANCH   1  26
TORSDOF 7
ENDMDL
