MODEL 1
REMARK VINA RESULT: -4.635092101      0.000      0.000
REMARK  3 active torsions:
REMARK  status: ('A' for Active; 'I' for Inactive)
REMARK    1  A    between atoms: C5_5  and  N1_6 
REMARK    2  A    between atoms: N1_6  and  C6_8 
REMARK    3  A    between atoms: C7_10  and  O1_11 
ROOT
HETATM    1  C1  UNL     1      34.998 -46.852 -10.669  1.00  0.00     0.010 C 
HETATM    2  C2  UNL     1      34.241 -45.801  -9.857  1.00  0.00    -0.016 C 
HETATM    3  C3  UNL     1      33.825 -46.331  -8.536  1.00  0.00     0.006 C 
HETATM    4  C4  UNL     1      32.611 -45.678  -7.948  1.00  0.00     0.028 C 
HETATM    5  C5  UNL     1      31.442 -45.610  -8.875  1.00  0.00     0.110 C 
HETATM    6  C7  UNL     1      31.817 -45.944 -10.284  1.00  0.00     0.141 C 
HETATM    7  C8  UNL     1      33.113 -45.316 -10.721  1.00  0.00     0.038 C 
ENDROOT
BRANCH   5   8
HETATM    8  N1  UNL     1      30.389 -46.472  -8.417  1.00  0.00    -0.383 N 
ATOM      9  H1  UNL     1      29.651 -46.769  -9.056  1.00  0.00     0.160 HD
BRANCH   8  10
HETATM   10  C6  UNL     1      30.386 -46.867  -7.188  1.00  0.00     0.166 C 
HETATM   11  S1  UNL     1      29.915 -47.840  -5.985  1.00  0.00    -0.075 SA
ENDBRANCH   8  10
ENDBRANCH   5   8
BRANCH   6  12
HETATM   12  O1  UNL     1      30.792 -45.601 -11.161  1.00  0.00    -0.394 OA
ATOM     13  H1  UNL     1      30.318 -46.375 -11.443  1.00  0.00     0.210 HD
ENDBRANCH   6  12
TORSDOF 3
ENDMDL
MODEL 2
REMARK VINA RESULT: -4.497523275      2.111      2.670
REMARK  3 active torsions:
REMARK  status: ('A' for Active; 'I' for Inactive)
REMARK    1  A    between atoms: C5_5  and  N1_6 
REMARK    2  A    between atoms: N1_6  and  C6_8 
REMARK    3  A    between atoms: C7_10  and  O1_11 
ROOT
HETATM    1  C1  UNL     1      34.510 -46.609  -7.378  1.00  0.00     0.010 C 
HETATM    2  C2  UNL     1      33.229 -46.117  -6.705  1.00  0.00    -0.016 C 
HETATM    3  C3  UNL     1      32.536 -47.215  -5.987  1.00  0.00     0.006 C 
HETATM    4  C4  UNL     1      31.055 -47.037  -5.841  1.00  0.00     0.028 C 
HETATM    5  C5  UNL     1      30.347 -46.719  -7.117  1.00  0.00     0.110 C 
HETATM    6  C7  UNL     1      31.297 -46.359  -8.216  1.00  0.00     0.141 C 
HETATM    7  C8  UNL     1      32.409 -45.448  -7.769  1.00  0.00     0.038 C 
ENDROOT
BRANCH   5   8
HETATM    8  N1  UNL     1      29.512 -47.817  -7.513  1.00  0.00    -0.383 N 
ATOM      9  H1  UNL     1      29.119 -47.853  -8.455  1.00  0.00     0.160 HD
BRANCH   8  10
HETATM   10  C6  UNL     1      29.262 -48.758  -6.666  1.00  0.00     0.166 C 
HETATM   11  S1  UNL     1      28.911 -50.286  -6.266  1.00  0.00    -0.075 SA
ENDBRANCH   8  10
ENDBRANCH   5   8
BRANCH   6  12
HETATM   12  O1  UNL     1      30.614 -45.799  -9.292  1.00  0.00    -0.394 OA
ATOM     13  H1  UNL     1      29.708 -45.630  -9.064  1.00  0.00     0.210 HD
ENDBRANCH   6  12
TORSDOF 3
ENDMDL
MODEL 3
REMARK VINA RESULT: -4.385986613      4.508      5.470
REMARK  3 active torsions:
REMARK  status: ('A' for Active; 'I' for Inactive)
REMARK    1  A    between atoms: C5_5  and  N1_6 
REMARK    2  A    between atoms: N1_6  and  C6_8 
REMARK    3  A    between atoms: C7_10  and  O1_11 
ROOT
HETATM    1  C1  UNL     1      29.614 -47.258 -16.671  1.00  0.00     0.010 C 
HETATM    2  C2  UNL     1      30.873 -46.870 -15.896  1.00  0.00    -0.016 C 
HETATM    3  C3  UNL     1      31.085 -47.754 -14.725  1.00  0.00     0.006 C 
HETATM    4  C4  UNL     1      31.855 -47.135 -13.598  1.00  0.00     0.028 C 
HETATM    5  C5  UNL     1      31.337 -45.804 -13.161  1.00  0.00     0.110 C 
HETATM    6  C7  UNL     1      30.345 -45.238 -14.126  1.00  0.00     0.141 C 
HETATM    7  C8  UNL     1      30.747 -45.411 -15.566  1.00  0.00     0.038 C 
ENDROOT
BRANCH   5   8
HETATM    8  N1  UNL     1      30.767 -45.895 -11.846  1.00  0.00    -0.383 N 
ATOM      9  H1  UNL     1      29.852 -46.327 -11.710  1.00  0.00     0.160 HD
BRANCH   8  10
HETATM   10  C6  UNL     1      31.422 -45.424 -10.840  1.00  0.00     0.166 C 
HETATM   11  S1  UNL     1      32.679 -45.396  -9.820  1.00  0.00    -0.075 SA
ENDBRANCH   8  10
ENDBRANCH   5   8
BRANCH   6  12
HETATM   12  O1  UNL     1      30.098 -43.896 -13.849  1.00  0.00    -0.394 OA
ATOM     13  H1  UNL     1      29.634 -43.485 -14.568  1.00  0.00     0.210 HD
ENDBRANCH   6  12
TORSDOF 3
ENDMDL
MODEL 4
REMARK VINA RESULT: -4.345242291      3.266      5.065
REMARK  3 active torsions:
REMARK  status: ('A' for Active; 'I' for Inactive)
REMARK    1  A    between atoms: C5_5  and  N1_6 
REMARK    2  A    between atoms: N1_6  and  C6_8 
REMARK    3  A    between atoms: C7_10  and  O1_11 
ROOT
HETATM    1  C1  UNL     1      32.962 -48.861  -4.119  1.00  0.00     0.010 C 
HETATM    2  C2  UNL     1      31.543 -49.043  -4.657  1.00  0.00    -0.016 C 
HETATM    3  C3  UNL     1      31.545 -49.323  -6.114  1.00  0.00     0.006 C 
HETATM    4  C4  UNL     1      30.300 -48.911  -6.838  1.00  0.00     0.028 C 
HETATM    5  C5  UNL     1      29.876 -47.503  -6.578  1.00  0.00     0.110 C 
HETATM    6  C7  UNL     1      30.616 -46.893  -5.429  1.00  0.00     0.141 C 
HETATM    7  C8  UNL     1      30.766 -47.823  -4.255  1.00  0.00     0.038 C 
ENDROOT
BRANCH   5   8
HETATM    8  N1  UNL     1      30.037 -46.705  -7.760  1.00  0.00    -0.383 N 
ATOM      9  H1  UNL     1      29.219 -46.352  -8.259  1.00  0.00     0.160 HD
BRANCH   8  10
HETATM   10  C6  UNL     1      31.225 -46.439  -8.186  1.00  0.00     0.166 C 
HETATM   11  S1  UNL     1      32.544 -45.509  -8.299  1.00  0.00    -0.075 SA
ENDBRANCH   8  10
ENDBRANCH   5   8
BRANCH   6  12
HETATM   12  O1  UNL     1      30.012 -45.703  -5.031  1.00  0.00    -0.394 OA
ATOM     13  H1  UNL     1      30.464 -44.956  -5.406  1.00  0.00     0.210 HD
ENDBRANCH   6  12
TORSDOF 3
ENDMDL
MODEL 5
REMARK VINA RESULT: -4.297287214      1.901      2.097
REMARK  3 active torsions:
REMARK  status: ('A' for Active; 'I' for Inactive)
REMARK    1  A    between atoms: C5_5  and  N1_6 
REMARK    2  A    between atoms: N1_6  and  C6_8 
REMARK    3  A    between atoms: C7_10  and  O1_11 
ROOT
HETATM    1  C1  UNL     1      34.485 -46.865 -10.060  1.00  0.00     0.010 C 
HETATM    2  C2  UNL     1      34.137 -45.989  -8.857  1.00  0.00    -0.016 C 
HETATM    3  C3  UNL     1      34.322 -46.722  -7.580  1.00  0.00     0.006 C 
HETATM    4  C4  UNL     1      33.468 -46.240  -6.447  1.00  0.00     0.028 C 
HETATM    5  C5  UNL     1      32.016 -46.126  -6.779  1.00  0.00     0.110 C 
HETATM    6  C7  UNL     1      31.762 -46.237  -8.249  1.00  0.00     0.141 C 
HETATM    7  C8  UNL     1      32.749 -45.468  -9.085  1.00  0.00     0.038 C 
ENDROOT
BRANCH   5   8
HETATM    8  N1  UNL     1      31.259 -47.112  -6.061  1.00  0.00    -0.383 N 
ATOM      9  H1  UNL     1      30.323 -47.372  -6.373  1.00  0.00     0.160 HD
BRANCH   8  10
HETATM   10  C6  UNL     1      31.775 -47.665  -5.016  1.00  0.00     0.166 C 
HETATM   11  S1  UNL     1      31.781 -48.735  -3.802  1.00  0.00    -0.075 SA
ENDBRANCH   8  10
ENDBRANCH   5   8
BRANCH   6  12
HETATM   12  O1  UNL     1      30.460 -45.848  -8.554  1.00  0.00    -0.394 OA
ATOM     13  H1  UNL     1      29.842 -46.527  -8.314  1.00  0.00     0.210 HD
ENDBRANCH   6  12
TORSDOF 3
ENDMDL
