MODEL 1
REMARK VINA RESULT: -4.348340297      0.000      0.000
REMARK  3 active torsions:
REMARK  status: ('A' for Active; 'I' for Inactive)
REMARK    1  A    between atoms: C2_2  and  N1_4 
REMARK    2  A    between atoms: C2_2  and  S1_8 
REMARK    3  A    between atoms: S1_8  and  C4_9 
ROOT
HETATM    1  C1  UNL     1      31.935 -47.987  -8.335  1.00  0.00     0.058 C 
HETATM    2  C2  UNL     1      31.240 -46.770  -7.785  1.00  0.00     0.164 C 
HETATM    3  C3  UNL     1      32.187 -45.861  -7.048  1.00  0.00     0.058 C 
ENDROOT
BRANCH   2   4
HETATM    4  N1  UNL     1      30.638 -46.000  -8.845  1.00  0.00    -0.062 N 
ATOM      5  H13 UNL     1      30.481 -45.032  -8.566  1.00  0.00     0.276 HD
ATOM      6  H12 UNL     1      31.292 -45.836  -9.610  1.00  0.00     0.276 HD
ATOM      7  H11 UNL     1      29.779 -46.442  -9.172  1.00  0.00     0.276 HD
ENDBRANCH   2   4
BRANCH   2   8
HETATM    8  S1  UNL     1      29.932 -47.228  -6.597  1.00  0.00    -0.127 SA
BRANCH   8   9
HETATM    9  C4  UNL     1      30.675 -48.482  -5.519  1.00  0.00     0.050 C 
HETATM   10  C5  UNL     1      30.908 -47.820  -4.166  1.00  0.00     0.015 C 
HETATM   11  C6  UNL     1      31.613 -48.909  -3.365  1.00  0.00     0.001 C 
HETATM   12  C7  UNL     1      30.518 -49.866  -2.973  1.00  0.00     0.000 C 
HETATM   13  C8  UNL     1      29.610 -50.265  -4.074  1.00  0.00     0.001 C 
HETATM   14  C9  UNL     1      29.876 -49.734  -5.427  1.00  0.00     0.015 C 
ENDBRANCH   8   9
ENDBRANCH   2   8
TORSDOF 3
ENDMDL
MODEL 2
REMARK VINA RESULT: -4.236090323      4.696      6.139
REMARK  3 active torsions:
REMARK  status: ('A' for Active; 'I' for Inactive)
REMARK    1  A    between atoms: C2_2  and  N1_4 
REMARK    2  A    between atoms: C2_2  and  S1_8 
REMARK    3  A    between atoms: S1_8  and  C4_9 
ROOT
HETATM    1  C1  UNL     1      29.955 -46.042 -14.004  1.00  0.00     0.058 C 
HETATM    2  C2  UNL     1      31.189 -46.140 -13.147  1.00  0.00     0.164 C 
HETATM    3  C3  UNL     1      31.498 -47.562 -12.760  1.00  0.00     0.058 C 
ENDROOT
BRANCH   2   4
HETATM    4  N1  UNL     1      32.340 -45.621 -13.843  1.00  0.00    -0.062 N 
ATOM      5  H13 UNL     1      33.067 -46.328 -13.948  1.00  0.00     0.276 HD
ATOM      6  H12 UNL     1      32.142 -45.456 -14.829  1.00  0.00     0.276 HD
ATOM      7  H11 UNL     1      32.695 -44.782 -13.384  1.00  0.00     0.276 HD
ENDBRANCH   2   4
BRANCH   2   8
HETATM    8  S1  UNL     1      30.995 -45.209 -11.588  1.00  0.00    -0.127 SA
BRANCH   8   9
HETATM    9  C4  UNL     1      31.990 -46.103 -10.364  1.00  0.00     0.050 C 
HETATM   10  C5  UNL     1      33.374 -45.467 -10.372  1.00  0.00     0.015 C 
HETATM   11  C6  UNL     1      34.158 -46.334  -9.392  1.00  0.00     0.001 C 
HETATM   12  C7  UNL     1      33.700 -45.883  -8.030  1.00  0.00     0.000 C 
HETATM   13  C8  UNL     1      32.231 -45.772  -7.867  1.00  0.00     0.001 C 
HETATM   14  C9  UNL     1      31.371 -46.141  -9.011  1.00  0.00     0.015 C 
ENDBRANCH   8   9
ENDBRANCH   2   8
TORSDOF 3
ENDMDL
MODEL 3
REMARK VINA RESULT: -4.188403049      5.688      7.146
REMARK  3 active torsions:
REMARK  status: ('A' for Active; 'I' for Inactive)
REMARK    1  A    between atoms: C2_2  and  N1_4 
REMARK    2  A    between atoms: C2_2  and  S1_8 
REMARK    3  A    between atoms: S1_8  and  C4_9 
ROOT
HETATM    1  C1  UNL     1      29.252 -46.272 -14.299  1.00  0.00     0.058 C 
HETATM    2  C2  UNL     1      30.572 -45.715 -13.837  1.00  0.00     0.164 C 
HETATM    3  C3  UNL     1      31.483 -45.387 -14.990  1.00  0.00     0.058 C 
ENDROOT
BRANCH   2   4
HETATM    4  N1  UNL     1      30.383 -44.505 -13.077  1.00  0.00    -0.062 N 
ATOM      5  H13 UNL     1      31.166 -44.328 -12.449  1.00  0.00     0.276 HD
ATOM      6  H12 UNL     1      30.464 -43.675 -13.663  1.00  0.00     0.276 HD
ATOM      7  H11 UNL     1      29.495 -44.527 -12.575  1.00  0.00     0.276 HD
ENDBRANCH   2   4
BRANCH   2   8
HETATM    8  S1  UNL     1      31.472 -46.913 -12.792  1.00  0.00    -0.127 SA
BRANCH   8   9
HETATM    9  C4  UNL     1      32.408 -45.912 -11.605  1.00  0.00     0.050 C 
HETATM   10  C5  UNL     1      31.870 -46.253 -10.220  1.00  0.00     0.015 C 
HETATM   11  C6  UNL     1      32.642 -45.306  -9.308  1.00  0.00     0.001 C 
HETATM   12  C7  UNL     1      34.012 -45.922  -9.187  1.00  0.00     0.000 C 
HETATM   13  C8  UNL     1      34.628 -46.337 -10.468  1.00  0.00     0.001 C 
HETATM   14  C9  UNL     1      33.882 -46.082 -11.718  1.00  0.00     0.015 C 
ENDBRANCH   8   9
ENDBRANCH   2   8
TORSDOF 3
ENDMDL
MODEL 4
REMARK VINA RESULT: -4.178352058      1.580      2.452
REMARK  3 active torsions:
REMARK  status: ('A' for Active; 'I' for Inactive)
REMARK    1  A    between atoms: C2_2  and  N1_4 
REMARK    2  A    between atoms: C2_2  and  S1_8 
REMARK    3  A    between atoms: S1_8  and  C4_9 
ROOT
HETATM    1  C1  UNL     1      31.916 -46.710  -7.234  1.00  0.00     0.058 C 
HETATM    2  C2  UNL     1      30.761 -47.417  -6.576  1.00  0.00     0.164 C 
HETATM    3  C3  UNL     1      30.170 -46.609  -5.451  1.00  0.00     0.058 C 
ENDROOT
BRANCH   2   4
HETATM    4  N1  UNL     1      29.706 -47.671  -7.526  1.00  0.00    -0.062 N 
ATOM      5  H13 UNL     1      29.152 -46.835  -7.706  1.00  0.00     0.276 HD
ATOM      6  H12 UNL     1      30.073 -47.818  -8.465  1.00  0.00     0.276 HD
ATOM      7  H11 UNL     1      29.124 -48.451  -7.222  1.00  0.00     0.276 HD
ENDBRANCH   2   4
BRANCH   2   8
HETATM    8  S1  UNL     1      31.277 -49.011  -5.853  1.00  0.00    -0.127 SA
BRANCH   8   9
HETATM    9  C4  UNL     1      31.224 -48.769  -4.057  1.00  0.00     0.050 C 
HETATM   10  C5  UNL     1      30.484 -49.966  -3.472  1.00  0.00     0.015 C 
HETATM   11  C6  UNL     1      30.407 -49.631  -1.987  1.00  0.00     0.001 C 
HETATM   12  C7  UNL     1      31.785 -49.925  -1.455  1.00  0.00     0.000 C 
HETATM   13  C8  UNL     1      32.898 -49.363  -2.256  1.00  0.00     0.001 C 
HETATM   14  C9  UNL     1      32.564 -48.555  -3.447  1.00  0.00     0.015 C 
ENDBRANCH   8   9
ENDBRANCH   2   8
TORSDOF 3
ENDMDL
MODEL 5
REMARK VINA RESULT: -4.143058595      4.440      7.640
REMARK  3 active torsions:
REMARK  status: ('A' for Active; 'I' for Inactive)
REMARK    1  A    between atoms: C2_2  and  N1_4 
REMARK    2  A    between atoms: C2_2  and  S1_8 
REMARK    3  A    between atoms: S1_8  and  C4_9 
ROOT
HETATM    1  C1  UNL     1      32.839 -45.694  -7.796  1.00  0.00     0.058 C 
HETATM    2  C2  UNL     1      32.074 -46.128  -9.018  1.00  0.00     0.164 C 
HETATM    3  C3  UNL     1      32.328 -47.571  -9.363  1.00  0.00     0.058 C 
ENDROOT
BRANCH   2   4
HETATM    4  N1  UNL     1      30.654 -45.975  -8.816  1.00  0.00    -0.062 N 
ATOM      5  H13 UNL     1      30.221 -46.846  -8.509  1.00  0.00     0.276 HD
ATOM      6  H12 UNL     1      30.450 -45.404  -7.996  1.00  0.00     0.276 HD
ATOM      7  H11 UNL     1      30.205 -45.606  -9.654  1.00  0.00     0.276 HD
ENDBRANCH   2   4
BRANCH   2   8
HETATM    8  S1  UNL     1      32.551 -45.152 -10.485  1.00  0.00    -0.127 SA
BRANCH   8   9
HETATM    9  C4  UNL     1      31.861 -46.044 -11.905  1.00  0.00     0.050 C 
HETATM   10  C5  UNL     1      30.650 -45.249 -12.378  1.00  0.00     0.015 C 
HETATM   11  C6  UNL     1      30.087 -46.115 -13.501  1.00  0.00     0.001 C 
HETATM   12  C7  UNL     1      31.002 -45.867 -14.671  1.00  0.00     0.000 C 
HETATM   13  C8  UNL     1      32.449 -45.950 -14.364  1.00  0.00     0.001 C 
HETATM   14  C9  UNL     1      32.853 -46.297 -12.985  1.00  0.00     0.015 C 
ENDBRANCH   8   9
ENDBRANCH   2   8
TORSDOF 3
ENDMDL
