MODEL 1
REMARK VINA RESULT: -4.376510699      0.000      0.000
REMARK  3 active torsions:
REMARK  status: ('A' for Active; 'I' for Inactive)
REMARK    1  A    between atoms: C2_2  and  O1_3 
REMARK    2  A    between atoms: C2_2  and  C3_5 
REMARK    3  A    between atoms: C3_5  and  S1_6 
ROOT
HETATM    1  S1  UNL     1      33.009 -48.155  -5.861  1.00  0.00    -0.038 SA
HETATM    2  C4  UNL     1      34.501 -47.303  -5.455  1.00  0.00     0.134 C 
HETATM    3  N1  UNL     1      35.489 -46.747  -5.205  1.00  0.00    -0.184 NA
ENDROOT
BRANCH   1   4
HETATM    4  C3  UNL     1      31.813 -46.985  -6.525  1.00  0.00     0.048 C 
HETATM    5  C5  UNL     1      32.456 -45.639  -6.625  1.00  0.00     0.024 C 
HETATM    6  C6  UNL     1      32.539 -45.347  -8.134  1.00  0.00     0.002 C 
HETATM    7  C7  UNL     1      31.221 -45.988  -8.562  1.00  0.00     0.002 C 
HETATM    8  C8  UNL     1      31.354 -47.345  -7.915  1.00  0.00     0.024 C 
BRANCH   4   9
HETATM    9  C2  UNL     1      30.618 -46.992  -5.578  1.00  0.00     0.133 C 
HETATM   10  C1  UNL     1      30.912 -47.871  -4.369  1.00  0.00     0.041 C 
BRANCH   9  11
HETATM   11  O1  UNL     1      30.284 -45.734  -5.128  1.00  0.00    -0.394 OA
ATOM     12  H1  UNL     1      30.476 -45.110  -5.817  1.00  0.00     0.210 HD
ENDBRANCH   9  11
ENDBRANCH   4   9
ENDBRANCH   1   4
TORSDOF 3
ENDMDL
MODEL 2
REMARK VINA RESULT: -4.303785729      7.638      8.869
REMARK  3 active torsions:
REMARK  status: ('A' for Active; 'I' for Inactive)
REMARK    1  A    between atoms: C2_2  and  O1_3 
REMARK    2  A    between atoms: C2_2  and  C3_5 
REMARK    3  A    between atoms: C3_5  and  S1_6 
ROOT
HETATM    1  S1  UNL     1      32.716 -46.146 -13.987  1.00  0.00    -0.038 SA
HETATM    2  C4  UNL     1      33.964 -45.835 -15.197  1.00  0.00     0.134 C 
HETATM    3  N1  UNL     1      34.786 -45.649 -15.995  1.00  0.00    -0.184 NA
ENDROOT
BRANCH   1   4
HETATM    4  C3  UNL     1      31.092 -45.989 -14.747  1.00  0.00     0.048 C 
HETATM    5  C5  UNL     1      31.220 -45.178 -15.998  1.00  0.00     0.024 C 
HETATM    6  C6  UNL     1      30.895 -46.153 -17.141  1.00  0.00     0.002 C 
HETATM    7  C7  UNL     1      29.806 -46.966 -16.445  1.00  0.00     0.002 C 
HETATM    8  C8  UNL     1      30.508 -47.317 -15.157  1.00  0.00     0.024 C 
BRANCH   4   9
HETATM    9  C2  UNL     1      30.185 -45.331 -13.715  1.00  0.00     0.133 C 
HETATM   10  C1  UNL     1      30.745 -45.542 -12.314  1.00  0.00     0.041 C 
BRANCH   9  11
HETATM   11  O1  UNL     1      30.031 -43.978 -13.920  1.00  0.00    -0.394 OA
ATOM     12  H1  UNL     1      30.517 -43.738 -14.700  1.00  0.00     0.210 HD
ENDBRANCH   9  11
ENDBRANCH   4   9
ENDBRANCH   1   4
TORSDOF 3
ENDMDL
MODEL 3
REMARK VINA RESULT: -4.163028773      2.273      3.556
REMARK  3 active torsions:
REMARK  status: ('A' for Active; 'I' for Inactive)
REMARK    1  A    between atoms: C2_2  and  O1_3 
REMARK    2  A    between atoms: C2_2  and  C3_5 
REMARK    3  A    between atoms: C3_5  and  S1_6 
ROOT
HETATM    1  S1  UNL     1      32.677 -45.642  -6.744  1.00  0.00    -0.038 SA
HETATM    2  C4  UNL     1      32.706 -45.395  -8.492  1.00  0.00     0.134 C 
HETATM    3  N1  UNL     1      32.740 -45.241  -9.643  1.00  0.00    -0.184 NA
ENDROOT
BRANCH   1   4
HETATM    4  C3  UNL     1      31.594 -47.026  -6.353  1.00  0.00     0.048 C 
HETATM    5  C5  UNL     1      32.420 -48.149  -5.810  1.00  0.00     0.024 C 
HETATM    6  C6  UNL     1      31.982 -48.291  -4.342  1.00  0.00     0.002 C 
HETATM    7  C7  UNL     1      30.498 -47.981  -4.515  1.00  0.00     0.002 C 
HETATM    8  C8  UNL     1      30.577 -46.691  -5.293  1.00  0.00     0.024 C 
BRANCH   4   9
HETATM    9  C2  UNL     1      30.876 -47.401  -7.644  1.00  0.00     0.133 C 
HETATM   10  C1  UNL     1      31.090 -48.878  -7.955  1.00  0.00     0.041 C 
BRANCH   9  11
HETATM   11  O1  UNL     1      29.520 -47.163  -7.593  1.00  0.00    -0.394 OA
ATOM     12  H1  UNL     1      29.157 -47.319  -8.457  1.00  0.00     0.210 HD
ENDBRANCH   9  11
ENDBRANCH   4   9
ENDBRANCH   1   4
TORSDOF 3
ENDMDL
MODEL 4
REMARK VINA RESULT: -4.110069529      1.184      1.184
REMARK  3 active torsions:
REMARK  status: ('A' for Active; 'I' for Inactive)
REMARK    1  A    between atoms: C2_2  and  O1_3 
REMARK    2  A    between atoms: C2_2  and  C3_5 
REMARK    3  A    between atoms: C3_5  and  S1_6 
ROOT
HETATM    1  S1  UNL     1      33.103 -47.995  -5.664  1.00  0.00    -0.038 SA
HETATM    2  C4  UNL     1      34.228 -48.580  -6.892  1.00  0.00     0.134 C 
HETATM    3  N1  UNL     1      34.959 -48.980  -7.701  1.00  0.00    -0.184 NA
ENDROOT
BRANCH   1   4
HETATM    4  C3  UNL     1      31.870 -46.936  -6.438  1.00  0.00     0.048 C 
HETATM    5  C5  UNL     1      32.435 -45.559  -6.582  1.00  0.00     0.024 C 
HETATM    6  C6  UNL     1      32.568 -45.339  -8.099  1.00  0.00     0.002 C 
HETATM    7  C7  UNL     1      31.311 -46.081  -8.547  1.00  0.00     0.002 C 
HETATM    8  C8  UNL     1      31.495 -47.393  -7.825  1.00  0.00     0.024 C 
BRANCH   4   9
HETATM    9  C2  UNL     1      30.637 -46.970  -5.543  1.00  0.00     0.133 C 
HETATM   10  C1  UNL     1      30.884 -47.874  -4.342  1.00  0.00     0.041 C 
BRANCH   9  11
HETATM   11  O1  UNL     1      30.277 -45.724  -5.078  1.00  0.00    -0.394 OA
ATOM     12  H1  UNL     1      29.417 -45.514  -5.423  1.00  0.00     0.210 HD
ENDBRANCH   9  11
ENDBRANCH   4   9
ENDBRANCH   1   4
TORSDOF 3
ENDMDL
MODEL 5
REMARK VINA RESULT: -4.102095528      5.262      6.599
REMARK  3 active torsions:
REMARK  status: ('A' for Active; 'I' for Inactive)
REMARK    1  A    between atoms: C2_2  and  O1_3 
REMARK    2  A    between atoms: C2_2  and  C3_5 
REMARK    3  A    between atoms: C3_5  and  S1_6 
ROOT
HETATM    1  S1  UNL     1      32.141 -46.854 -12.150  1.00  0.00    -0.038 SA
HETATM    2  C4  UNL     1      30.940 -45.618 -12.534  1.00  0.00     0.134 C 
HETATM    3  N1  UNL     1      30.139 -44.811 -12.772  1.00  0.00    -0.184 NA
ENDROOT
BRANCH   1   4
HETATM    4  C3  UNL     1      33.416 -46.143 -11.097  1.00  0.00     0.048 C 
HETATM    5  C5  UNL     1      32.851 -44.954 -10.387  1.00  0.00     0.024 C 
HETATM    6  C6  UNL     1      32.823 -45.354  -8.901  1.00  0.00     0.002 C 
HETATM    7  C7  UNL     1      34.114 -46.168  -8.860  1.00  0.00     0.002 C 
HETATM    8  C8  UNL     1      33.890 -47.095 -10.029  1.00  0.00     0.024 C 
BRANCH   4   9
HETATM    9  C2  UNL     1      34.584 -45.779 -12.006  1.00  0.00     0.133 C 
HETATM   10  C1  UNL     1      35.527 -46.967 -12.151  1.00  0.00     0.041 C 
BRANCH   9  11
HETATM   11  O1  UNL     1      34.183 -45.390 -13.265  1.00  0.00    -0.394 OA
ATOM     12  H1  UNL     1      33.919 -46.165 -13.747  1.00  0.00     0.210 HD
ENDBRANCH   9  11
ENDBRANCH   4   9
ENDBRANCH   1   4
TORSDOF 3
ENDMDL
