MODEL 1
REMARK VINA RESULT: -6.975443139      0.000      0.000
REMARK  5 active torsions:
REMARK  status: ('A' for Active; 'I' for Inactive)
REMARK       I    between atoms: N1_2  and  C2_4 
REMARK       I    between atoms: C2_4  and  N2_6 
REMARK    1  A    between atoms: N2_6  and  C3_8 
REMARK    2  A    between atoms: C3_8  and  N3_10 
REMARK    3  A    between atoms: N3_10  and  N4_12 
REMARK    4  A    between atoms: N4_12  and  S2_14 
REMARK    5  A    between atoms: S2_14  and  N5_17 
REMARK       I    between atoms: N5_17  and  C4_19 
REMARK       I    between atoms: C4_19  and  N6_21 
ROOT
HETATM    1  N4  UNL     1      27.749  48.005  -0.346  1.00  0.00    -0.207 N 
ATOM      2  H4  UNL     1      26.957  48.057   0.294  1.00  0.00     0.201 HD
ENDROOT
BRANCH   1   3
HETATM    3  N3  UNL     1      27.958  48.871  -1.395  1.00  0.00    -0.265 N 
ATOM      4  H3  UNL     1      28.665  49.595  -1.262  1.00  0.00     0.190 HD
BRANCH   3   5
HETATM    5  C3  UNL     1      27.284  48.856  -2.650  1.00  0.00     0.195 C 
HETATM    6  S1  UNL     1      25.684  49.276  -2.711  1.00  0.00    -0.039 SA
BRANCH   5   7
HETATM    7  N2  UNL     1      27.986  48.482  -3.816  1.00  0.00    -0.284 N 
HETATM    8  C2  UNL     1      28.176  47.121  -4.200  1.00  0.00     0.322 C 
HETATM    9  N1  UNL     1      28.902  46.800  -5.388  1.00  0.00    -0.347 N 
HETATM   10  O1  UNL     1      27.715  46.192  -3.508  1.00  0.00    -0.247 OA
HETATM   11  C1  UNL     1      29.086  45.425  -5.766  1.00  0.00     0.151 C 
ATOM     12  H1  UNL     1      29.289  47.545  -5.968  1.00  0.00     0.163 HD
ATOM     13  H2  UNL     1      28.374  49.215  -4.410  1.00  0.00     0.173 HD
ENDBRANCH   5   7
ENDBRANCH   3   5
ENDBRANCH   1   3
BRANCH   1  14
HETATM   14  S2  UNL     1      28.995  46.823  -0.250  1.00  0.00     0.340 S 
HETATM   15  O2  UNL     1      28.346  45.442  -0.229  1.00  0.00    -0.181 OA
HETATM   16  O3  UNL     1      29.812  47.036   1.005  1.00  0.00    -0.181 OA
BRANCH  14  17
HETATM   17  N5  UNL     1      30.062  46.955  -1.603  1.00  0.00    -0.218 N 
HETATM   18  C4  UNL     1      30.834  48.111  -1.787  1.00  0.00     0.332 C 
HETATM   19  O4  UNL     1      30.719  49.049  -0.923  1.00  0.00    -0.246 OA
HETATM   20  N6  UNL     1      31.718  48.266  -2.881  1.00  0.00    -0.342 N 
HETATM   21  C5  UNL     1      32.511  49.488  -2.979  1.00  0.00     0.154 C 
HETATM   22  C6  UNL     1      31.886  47.292  -3.919  1.00  0.00     0.154 C 
ATOM     23  H5  UNL     1      30.130  46.188  -2.272  1.00  0.00     0.185 HD
ENDBRANCH  14  17
ENDBRANCH   1  14
TORSDOF 5
ENDMDL
MODEL 2
REMARK VINA RESULT: -6.884482162      3.911      5.107
REMARK  5 active torsions:
REMARK  status: ('A' for Active; 'I' for Inactive)
REMARK       I    between atoms: N1_2  and  C2_4 
REMARK       I    between atoms: C2_4  and  N2_6 
REMARK    1  A    between atoms: N2_6  and  C3_8 
REMARK    2  A    between atoms: C3_8  and  N3_10 
REMARK    3  A    between atoms: N3_10  and  N4_12 
REMARK    4  A    between atoms: N4_12  and  S2_14 
REMARK    5  A    between atoms: S2_14  and  N5_17 
REMARK       I    between atoms: N5_17  and  C4_19 
REMARK       I    between atoms: C4_19  and  N6_21 
ROOT
HETATM    1  N4  UNL     1      30.585  49.853  -4.614  1.00  0.00    -0.207 N 
ATOM      2  H4  UNL     1      30.378  50.420  -5.438  1.00  0.00     0.201 HD
ENDROOT
BRANCH   1   3
HETATM    3  N3  UNL     1      29.714  48.941  -4.061  1.00  0.00    -0.265 N 
ATOM      4  H3  UNL     1      29.057  49.296  -3.366  1.00  0.00     0.190 HD
BRANCH   3   5
HETATM    5  C3  UNL     1      29.642  47.552  -4.364  1.00  0.00     0.195 C 
HETATM    6  S1  UNL     1      29.769  47.062  -5.939  1.00  0.00    -0.039 SA
BRANCH   5   7
HETATM    7  N2  UNL     1      29.462  46.618  -3.321  1.00  0.00    -0.284 N 
HETATM    8  C2  UNL     1      28.565  46.838  -2.233  1.00  0.00     0.322 C 
HETATM    9  N1  UNL     1      28.428  45.860  -1.200  1.00  0.00    -0.347 N 
HETATM   10  O1  UNL     1      27.889  47.883  -2.165  1.00  0.00    -0.247 OA
HETATM   11  C1  UNL     1      27.520  46.093  -0.110  1.00  0.00     0.151 C 
ATOM     12  H1  UNL     1      28.974  44.998  -1.236  1.00  0.00     0.163 HD
ATOM     13  H2  UNL     1      29.995  45.749  -3.345  1.00  0.00     0.173 HD
ENDBRANCH   5   7
ENDBRANCH   3   5
ENDBRANCH   1   3
BRANCH   1  14
HETATM   14  S2  UNL     1      32.066  49.916  -3.742  1.00  0.00     0.340 S 
HETATM   15  O2  UNL     1      33.172  49.362  -4.635  1.00  0.00    -0.181 OA
HETATM   16  O3  UNL     1      31.953  49.093  -2.477  1.00  0.00    -0.181 OA
BRANCH  14  17
HETATM   17  N5  UNL     1      32.432  51.541  -3.284  1.00  0.00    -0.218 N 
HETATM   18  C4  UNL     1      32.218  52.596  -4.182  1.00  0.00     0.332 C 
HETATM   19  O4  UNL     1      31.746  52.309  -5.337  1.00  0.00    -0.246 OA
HETATM   20  N6  UNL     1      32.505  53.942  -3.853  1.00  0.00    -0.342 N 
HETATM   21  C5  UNL     1      32.221  54.984  -4.835  1.00  0.00     0.154 C 
HETATM   22  C6  UNL     1      33.073  54.357  -2.604  1.00  0.00     0.154 C 
ATOM     23  H5  UNL     1      32.806  51.735  -2.355  1.00  0.00     0.185 HD
ENDBRANCH  14  17
ENDBRANCH   1  14
TORSDOF 5
ENDMDL
MODEL 3
REMARK VINA RESULT: -6.669484942      3.723      5.647
REMARK  5 active torsions:
REMARK  status: ('A' for Active; 'I' for Inactive)
REMARK       I    between atoms: N1_2  and  C2_4 
REMARK       I    between atoms: C2_4  and  N2_6 
REMARK    1  A    between atoms: N2_6  and  C3_8 
REMARK    2  A    between atoms: C3_8  and  N3_10 
REMARK    3  A    between atoms: N3_10  and  N4_12 
REMARK    4  A    between atoms: N4_12  and  S2_14 
REMARK    5  A    between atoms: S2_14  and  N5_17 
REMARK       I    between atoms: N5_17  and  C4_19 
REMARK       I    between atoms: C4_19  and  N6_21 
ROOT
HETATM    1  N4  UNL     1      31.217  49.553  -3.845  1.00  0.00    -0.207 N 
ATOM      2  H4  UNL     1      30.525  49.892  -4.514  1.00  0.00     0.201 HD
ENDROOT
BRANCH   1   3
HETATM    3  N3  UNL     1      32.005  50.368  -3.063  1.00  0.00    -0.265 N 
ATOM      4  H3  UNL     1      31.761  50.435  -2.075  1.00  0.00     0.190 HD
BRANCH   3   5
HETATM    5  C3  UNL     1      33.128  51.127  -3.500  1.00  0.00     0.195 C 
HETATM    6  S1  UNL     1      32.976  52.766  -3.672  1.00  0.00    -0.039 SA
BRANCH   5   7
HETATM    7  N2  UNL     1      34.347  50.473  -3.781  1.00  0.00    -0.284 N 
HETATM    8  C2  UNL     1      34.571  49.742  -4.985  1.00  0.00     0.322 C 
HETATM    9  N1  UNL     1      35.824  49.092  -5.213  1.00  0.00    -0.347 N 
HETATM   10  O1  UNL     1      33.683  49.656  -5.855  1.00  0.00    -0.247 OA
HETATM   11  C1  UNL     1      36.039  48.359  -6.431  1.00  0.00     0.151 C 
ATOM     12  H1  UNL     1      36.564  49.148  -4.513  1.00  0.00     0.163 HD
ATOM     13  H2  UNL     1      35.099  50.525  -3.094  1.00  0.00     0.173 HD
ENDBRANCH   5   7
ENDBRANCH   3   5
ENDBRANCH   1   3
BRANCH   1  14
HETATM   14  S2  UNL     1      31.546  47.891  -3.549  1.00  0.00     0.340 S 
HETATM   15  O2  UNL     1      32.837  47.794  -2.741  1.00  0.00    -0.181 OA
HETATM   16  O3  UNL     1      31.693  47.154  -4.861  1.00  0.00    -0.181 OA
BRANCH  14  17
HETATM   17  N5  UNL     1      30.245  47.161  -2.676  1.00  0.00    -0.218 N 
HETATM   18  C4  UNL     1      29.780  47.736  -1.485  1.00  0.00     0.332 C 
HETATM   19  O4  UNL     1      30.349  48.808  -1.078  1.00  0.00    -0.246 OA
HETATM   20  N6  UNL     1      28.720  47.173  -0.735  1.00  0.00    -0.342 N 
HETATM   21  C5  UNL     1      28.274  47.854   0.477  1.00  0.00     0.154 C 
HETATM   22  C6  UNL     1      28.049  45.956  -1.086  1.00  0.00     0.154 C 
ATOM     23  H5  UNL     1      29.813  46.307  -3.029  1.00  0.00     0.185 HD
ENDBRANCH  14  17
ENDBRANCH   1  14
TORSDOF 5
ENDMDL
MODEL 4
REMARK VINA RESULT: -6.654114903      3.031      4.565
REMARK  5 active torsions:
REMARK  status: ('A' for Active; 'I' for Inactive)
REMARK       I    between atoms: N1_2  and  C2_4 
REMARK       I    between atoms: C2_4  and  N2_6 
REMARK    1  A    between atoms: N2_6  and  C3_8 
REMARK    2  A    between atoms: C3_8  and  N3_10 
REMARK    3  A    between atoms: N3_10  and  N4_12 
REMARK    4  A    between atoms: N4_12  and  S2_14 
REMARK    5  A    between atoms: S2_14  and  N5_17 
REMARK       I    between atoms: N5_17  and  C4_19 
REMARK       I    between atoms: C4_19  and  N6_21 
ROOT
HETATM    1  N4  UNL     1      30.315  49.297  -4.419  1.00  0.00    -0.207 N 
ATOM      2  H4  UNL     1      30.132  50.289  -4.573  1.00  0.00     0.201 HD
ENDROOT
BRANCH   1   3
HETATM    3  N3  UNL     1      29.917  48.293  -5.274  1.00  0.00    -0.265 N 
ATOM      4  H3  UNL     1      29.160  47.689  -4.955  1.00  0.00     0.190 HD
BRANCH   3   5
HETATM    5  C3  UNL     1      30.461  48.016  -6.561  1.00  0.00     0.195 C 
HETATM    6  S1  UNL     1      31.594  49.041  -7.196  1.00  0.00    -0.039 SA
BRANCH   5   7
HETATM    7  N2  UNL     1      30.025  46.877  -7.274  1.00  0.00    -0.284 N 
HETATM    8  C2  UNL     1      29.889  45.593  -6.668  1.00  0.00     0.322 C 
HETATM    9  N1  UNL     1      29.450  44.473  -7.440  1.00  0.00    -0.347 N 
HETATM   10  O1  UNL     1      30.151  45.426  -5.460  1.00  0.00    -0.247 OA
HETATM   11  C1  UNL     1      29.315  43.183  -6.817  1.00  0.00     0.151 C 
ATOM     12  H1  UNL     1      29.232  44.588  -8.430  1.00  0.00     0.163 HD
ATOM     13  H2  UNL     1      29.798  46.977  -8.263  1.00  0.00     0.173 HD
ENDBRANCH   5   7
ENDBRANCH   3   5
ENDBRANCH   1   3
BRANCH   1  14
HETATM   14  S2  UNL     1      31.158  48.665  -3.060  1.00  0.00     0.340 S 
HETATM   15  O2  UNL     1      32.269  49.642  -2.688  1.00  0.00    -0.181 OA
HETATM   16  O3  UNL     1      31.744  47.312  -3.401  1.00  0.00    -0.181 OA
BRANCH  14  17
HETATM   17  N5  UNL     1      30.084  48.454  -1.724  1.00  0.00    -0.218 N 
HETATM   18  C4  UNL     1      28.905  47.710  -1.872  1.00  0.00     0.332 C 
HETATM   19  O4  UNL     1      28.662  47.200  -3.022  1.00  0.00    -0.246 OA
HETATM   20  N6  UNL     1      27.993  47.513  -0.808  1.00  0.00    -0.342 N 
HETATM   21  C5  UNL     1      26.805  46.697  -1.039  1.00  0.00     0.154 C 
HETATM   22  C6  UNL     1      28.156  48.076   0.500  1.00  0.00     0.154 C 
ATOM     23  H5  UNL     1      30.308  48.873  -0.821  1.00  0.00     0.185 HD
ENDBRANCH  14  17
ENDBRANCH   1  14
TORSDOF 5
ENDMDL
MODEL 5
REMARK VINA RESULT: -6.618207106      3.593      5.321
REMARK  5 active torsions:
REMARK  status: ('A' for Active; 'I' for Inactive)
REMARK       I    between atoms: N1_2  and  C2_4 
REMARK       I    between atoms: C2_4  and  N2_6 
REMARK    1  A    between atoms: N2_6  and  C3_8 
REMARK    2  A    between atoms: C3_8  and  N3_10 
REMARK    3  A    between atoms: N3_10  and  N4_12 
REMARK    4  A    between atoms: N4_12  and  S2_14 
REMARK    5  A    between atoms: S2_14  and  N5_17 
REMARK       I    between atoms: N5_17  and  C4_19 
REMARK       I    between atoms: C4_19  and  N6_21 
ROOT
HETATM    1  N4  UNL     1      30.487  46.304  -4.433  1.00  0.00    -0.207 N 
ATOM      2  H4  UNL     1      31.134  45.894  -3.759  1.00  0.00     0.201 HD
ENDROOT
BRANCH   1   3
HETATM    3  N3  UNL     1      29.641  45.575  -5.239  1.00  0.00    -0.265 N 
ATOM      4  H3  UNL     1      28.653  45.568  -4.982  1.00  0.00     0.190 HD
BRANCH   3   5
HETATM    5  C3  UNL     1      30.010  44.830  -6.396  1.00  0.00     0.195 C 
HETATM    6  S1  UNL     1      29.376  43.318  -6.616  1.00  0.00    -0.039 SA
BRANCH   5   7
HETATM    7  N2  UNL     1      30.908  45.390  -7.330  1.00  0.00    -0.284 N 
HETATM    8  C2  UNL     1      30.484  45.923  -8.584  1.00  0.00     0.322 C 
HETATM    9  N1  UNL     1      31.439  46.471  -9.495  1.00  0.00    -0.347 N 
HETATM   10  O1  UNL     1      29.280  45.919  -8.905  1.00  0.00    -0.247 OA
HETATM   11  C1  UNL     1      31.000  47.007 -10.756  1.00  0.00     0.151 C 
ATOM     12  H1  UNL     1      32.430  46.483  -9.252  1.00  0.00     0.163 HD
ATOM     13  H2  UNL     1      31.901  45.415  -7.099  1.00  0.00     0.173 HD
ENDBRANCH   5   7
ENDBRANCH   3   5
ENDBRANCH   1   3
BRANCH   1  14
HETATM   14  S2  UNL     1      30.314  47.993  -4.707  1.00  0.00     0.340 S 
HETATM   15  O2  UNL     1      30.190  48.226  -6.209  1.00  0.00    -0.181 OA
HETATM   16  O3  UNL     1      31.518  48.729  -4.161  1.00  0.00    -0.181 OA
BRANCH  14  17
HETATM   17  N5  UNL     1      28.913  48.598  -3.896  1.00  0.00    -0.218 N 
HETATM   18  C4  UNL     1      28.696  48.309  -2.542  1.00  0.00     0.332 C 
HETATM   19  O4  UNL     1      29.568  47.590  -1.939  1.00  0.00    -0.246 OA
HETATM   20  N6  UNL     1      27.563  48.780  -1.838  1.00  0.00    -0.342 N 
HETATM   21  C5  UNL     1      27.432  48.460  -0.419  1.00  0.00     0.154 C 
HETATM   22  C6  UNL     1      26.515  49.554  -2.434  1.00  0.00     0.154 C 
ATOM     23  H5  UNL     1      28.238  49.169  -4.407  1.00  0.00     0.185 HD
ENDBRANCH  14  17
ENDBRANCH   1  14
TORSDOF 5
ENDMDL
