MODEL 1
REMARK VINA RESULT: -8.458011398      0.000      0.000
REMARK  5 active torsions:
REMARK  status: ('A' for Active; 'I' for Inactive)
REMARK    1  A    between atoms: C2_2  and  N1_4 
REMARK       I    between atoms: N1_4  and  C4_6 
REMARK       I    between atoms: C4_6  and  N2_8 
REMARK       I    between atoms: N2_8  and  C5_10 
REMARK    2  A    between atoms: C5_10  and  C6_12 
REMARK    3  A    between atoms: C6_12  and  C8_14 
REMARK    4  A    between atoms: C9_15  and  C10_16 
REMARK    5  A    between atoms: C12_27  and  N7_28 
ROOT
HETATM    1  C8  UNL     1      33.029  49.461  -4.468  1.00  0.00     0.040 A 
HETATM    2  C9  UNL     1      34.303  50.039  -4.251  1.00  0.00     0.155 A 
HETATM    3  O3  UNL     1      34.087  51.319  -4.328  1.00  0.00    -0.232 OA
HETATM    4  N6  UNL     1      32.915  51.668  -4.543  1.00  0.00    -0.244 N 
ATOM      5  H6  UNL     1      32.582  52.628  -4.627  1.00  0.00     0.196 HD
HETATM    6  C12 UNL     1      32.135  50.513  -4.649  1.00  0.00     0.129 A 
ENDROOT
BRANCH   1   7
HETATM    7  C6  UNL     1      32.755  48.048  -4.478  1.00  0.00     0.114 C 
HETATM    8  C7  UNL     1      32.483  47.521  -5.928  1.00  0.00     0.025 C 
BRANCH   7   9
HETATM    9  C5  UNL     1      31.491  47.647  -3.794  1.00  0.00     0.234 C 
HETATM   10  N2  UNL     1      30.494  46.802  -4.292  1.00  0.00    -0.279 N 
HETATM   11  C4  UNL     1      29.223  46.688  -3.640  1.00  0.00     0.323 C 
ATOM     12  H2  UNL     1      30.674  46.257  -5.136  1.00  0.00     0.173 HD
HETATM   13  N1  UNL     1      28.926  47.187  -2.341  1.00  0.00    -0.339 N 
HETATM   14  O1  UNL     1      28.315  46.120  -4.279  1.00  0.00    -0.247 OA
ATOM     15  H1  UNL     1      29.628  47.585  -1.716  1.00  0.00     0.164 HD
HETATM   16  O2  UNL     1      31.341  48.165  -2.634  1.00  0.00    -0.272 OA
BRANCH  13  17
HETATM   17  C2  UNL     1      27.448  47.067  -1.977  1.00  0.00     0.078 C 
HETATM   18  C1  UNL     1      27.421  46.481  -0.574  1.00  0.00     0.032 C 
HETATM   19  C3  UNL     1      26.866  48.427  -1.980  1.00  0.00     0.032 C 
ENDBRANCH  13  17
ENDBRANCH   7   9
ENDBRANCH   1   7
BRANCH   2  20
HETATM   20  C10 UNL     1      35.554  49.344  -4.003  1.00  0.00     0.158 A 
HETATM   21  N3  UNL     1      35.910  49.035  -2.673  1.00  0.00    -0.334 N 
HETATM   22  C11 UNL     1      37.080  48.400  -2.672  1.00  0.00     0.199 A 
ATOM     23  H3  UNL     1      35.359  49.261  -1.845  1.00  0.00     0.168 HD
HETATM   24  N4  UNL     1      37.478  48.278  -3.972  1.00  0.00    -0.294 N 
HETATM   25  N5  UNL     1      36.523  48.862  -4.729  1.00  0.00    -0.282 N 
ATOM     26  H4  UNL     1      38.331  47.833  -4.307  1.00  0.00     0.187 HD
ATOM     27  H5  UNL     1      36.556  48.917  -5.747  1.00  0.00     0.188 HD
ENDBRANCH   2  20
BRANCH   6  28
HETATM   28  N7  UNL     1      30.921  50.574  -4.793  1.00  0.00    -0.384 N 
ATOM     29  H72 UNL     1      30.433  49.969  -5.453  1.00  0.00     0.157 HD
ATOM     30  H71 UNL     1      30.197  51.185  -4.415  1.00  0.00     0.157 HD
ENDBRANCH   6  28
TORSDOF 5
ENDMDL
MODEL 2
REMARK VINA RESULT: -8.370986983      2.988      6.647
REMARK  5 active torsions:
REMARK  status: ('A' for Active; 'I' for Inactive)
REMARK    1  A    between atoms: C2_2  and  N1_4 
REMARK       I    between atoms: N1_4  and  C4_6 
REMARK       I    between atoms: C4_6  and  N2_8 
REMARK       I    between atoms: N2_8  and  C5_10 
REMARK    2  A    between atoms: C5_10  and  C6_12 
REMARK    3  A    between atoms: C6_12  and  C8_14 
REMARK    4  A    between atoms: C9_15  and  C10_16 
REMARK    5  A    between atoms: C12_27  and  N7_28 
ROOT
HETATM    1  C8  UNL     1      29.882  47.467  -3.604  1.00  0.00     0.040 A 
HETATM    2  C9  UNL     1      29.001  46.618  -4.317  1.00  0.00     0.155 A 
HETATM    3  O3  UNL     1      27.958  46.526  -3.545  1.00  0.00    -0.232 OA
HETATM    4  N6  UNL     1      28.003  47.162  -2.480  1.00  0.00    -0.244 N 
ATOM      5  H6  UNL     1      27.270  47.197  -1.772  1.00  0.00     0.196 HD
HETATM    6  C12 UNL     1      29.234  47.822  -2.424  1.00  0.00     0.129 A 
ENDROOT
BRANCH   1   7
HETATM    7  C6  UNL     1      31.187  47.870  -4.058  1.00  0.00     0.114 C 
HETATM    8  C7  UNL     1      32.319  47.335  -3.116  1.00  0.00     0.025 C 
BRANCH   7   9
HETATM    9  C5  UNL     1      31.447  49.338  -4.002  1.00  0.00     0.234 C 
HETATM   10  N2  UNL     1      30.842  50.332  -4.778  1.00  0.00    -0.279 N 
HETATM   11  C4  UNL     1      31.352  51.672  -4.796  1.00  0.00     0.323 C 
ATOM     12  H2  UNL     1      30.025  50.100  -5.341  1.00  0.00     0.173 HD
HETATM   13  N1  UNL     1      32.314  52.191  -3.886  1.00  0.00    -0.339 N 
HETATM   14  O1  UNL     1      30.920  52.422  -5.694  1.00  0.00    -0.247 OA
ATOM     15  H1  UNL     1      32.654  51.677  -3.072  1.00  0.00     0.164 HD
HETATM   16  O2  UNL     1      32.336  49.675  -3.146  1.00  0.00    -0.272 OA
BRANCH  13  17
HETATM   17  C2  UNL     1      32.788  53.595  -4.251  1.00  0.00     0.078 C 
HETATM   18  C1  UNL     1      33.167  54.252  -2.934  1.00  0.00     0.032 C 
HETATM   19  C3  UNL     1      33.976  53.463  -5.123  1.00  0.00     0.032 C 
ENDBRANCH  13  17
ENDBRANCH   7   9
ENDBRANCH   1   7
BRANCH   2  20
HETATM   20  C10 UNL     1      29.228  46.000  -5.611  1.00  0.00     0.158 A 
HETATM   21  N3  UNL     1      29.672  44.662  -5.659  1.00  0.00    -0.334 N 
HETATM   22  C11 UNL     1      29.811  44.295  -6.931  1.00  0.00     0.199 A 
ATOM     23  H3  UNL     1      29.857  44.071  -4.849  1.00  0.00     0.168 HD
HETATM   24  N4  UNL     1      29.451  45.361  -7.704  1.00  0.00    -0.294 N 
HETATM   25  N5  UNL     1      29.108  46.357  -6.859  1.00  0.00    -0.282 N 
ATOM     26  H4  UNL     1      29.442  45.397  -8.723  1.00  0.00     0.187 HD
ATOM     27  H5  UNL     1      28.792  47.279  -7.161  1.00  0.00     0.188 HD
ENDBRANCH   2  20
BRANCH   6  28
HETATM   28  N7  UNL     1      29.510  48.580  -1.504  1.00  0.00    -0.384 N 
ATOM     29  H72 UNL     1      30.379  49.113  -1.498  1.00  0.00     0.157 HD
ATOM     30  H71 UNL     1      29.063  48.797  -0.613  1.00  0.00     0.157 HD
ENDBRANCH   6  28
TORSDOF 5
ENDMDL
MODEL 3
REMARK VINA RESULT: -8.027726374      1.787      7.083
REMARK  5 active torsions:
REMARK  status: ('A' for Active; 'I' for Inactive)
REMARK    1  A    between atoms: C2_2  and  N1_4 
REMARK       I    between atoms: N1_4  and  C4_6 
REMARK       I    between atoms: C4_6  and  N2_8 
REMARK       I    between atoms: N2_8  and  C5_10 
REMARK    2  A    between atoms: C5_10  and  C6_12 
REMARK    3  A    between atoms: C6_12  and  C8_14 
REMARK    4  A    between atoms: C9_15  and  C10_16 
REMARK    5  A    between atoms: C12_27  and  N7_28 
ROOT
HETATM    1  C8  UNL     1      29.676  47.346  -4.942  1.00  0.00     0.040 A 
HETATM    2  C9  UNL     1      28.617  47.129  -4.026  1.00  0.00     0.155 A 
HETATM    3  O3  UNL     1      28.343  45.865  -4.155  1.00  0.00    -0.232 OA
HETATM    4  N6  UNL     1      29.031  45.231  -4.970  1.00  0.00    -0.244 N 
ATOM      5  H6  UNL     1      28.944  44.237  -5.183  1.00  0.00     0.196 HD
HETATM    6  C12 UNL     1      29.945  46.119  -5.543  1.00  0.00     0.129 A 
ENDROOT
BRANCH   1   7
HETATM    7  C6  UNL     1      30.328  48.609  -5.165  1.00  0.00     0.114 C 
HETATM    8  C7  UNL     1      30.633  48.841  -6.684  1.00  0.00     0.025 C 
BRANCH   7   9
HETATM    9  C5  UNL     1      31.698  48.722  -4.584  1.00  0.00     0.234 C 
HETATM   10  N2  UNL     1      32.290  49.865  -4.038  1.00  0.00    -0.279 N 
HETATM   11  C4  UNL     1      33.691  49.902  -3.735  1.00  0.00     0.323 C 
ATOM     12  H2  UNL     1      31.716  50.687  -3.853  1.00  0.00     0.173 HD
HETATM   13  N1  UNL     1      34.549  48.768  -3.708  1.00  0.00    -0.339 N 
HETATM   14  O1  UNL     1      34.181  51.023  -3.495  1.00  0.00    -0.247 OA
ATOM     15  H1  UNL     1      34.217  47.808  -3.805  1.00  0.00     0.164 HD
HETATM   16  O2  UNL     1      32.369  47.634  -4.622  1.00  0.00    -0.272 OA
BRANCH  13  17
HETATM   17  C2  UNL     1      36.019  49.134  -3.518  1.00  0.00     0.078 C 
HETATM   18  C1  UNL     1      36.442  48.463  -2.221  1.00  0.00     0.032 C 
HETATM   19  C3  UNL     1      36.779  48.576  -4.659  1.00  0.00     0.032 C 
ENDBRANCH  13  17
ENDBRANCH   7   9
ENDBRANCH   1   7
BRANCH   2  20
HETATM   20  C10 UNL     1      27.994  48.109  -3.154  1.00  0.00     0.158 A 
HETATM   21  N3  UNL     1      26.814  48.751  -3.585  1.00  0.00    -0.334 N 
HETATM   22  C11 UNL     1      26.411  49.599  -2.641  1.00  0.00     0.199 A 
ATOM     23  H3  UNL     1      26.345  48.592  -4.476  1.00  0.00     0.168 HD
HETATM   24  N4  UNL     1      27.294  49.505  -1.605  1.00  0.00    -0.294 N 
HETATM   25  N5  UNL     1      28.224  48.594  -1.966  1.00  0.00    -0.282 N 
ATOM     26  H4  UNL     1      27.260  50.023  -0.728  1.00  0.00     0.187 HD
ATOM     27  H5  UNL     1      29.012  48.318  -1.380  1.00  0.00     0.188 HD
ENDBRANCH   2  20
BRANCH   6  28
HETATM   28  N7  UNL     1      30.795  45.737  -6.336  1.00  0.00    -0.384 N 
ATOM     29  H72 UNL     1      31.781  45.960  -6.208  1.00  0.00     0.157 HD
ATOM     30  H71 UNL     1      30.754  45.238  -7.226  1.00  0.00     0.157 HD
ENDBRANCH   6  28
TORSDOF 5
ENDMDL
MODEL 4
REMARK VINA RESULT: -7.928626138      1.489      1.802
REMARK  5 active torsions:
REMARK  status: ('A' for Active; 'I' for Inactive)
REMARK    1  A    between atoms: C2_2  and  N1_4 
REMARK       I    between atoms: N1_4  and  C4_6 
REMARK       I    between atoms: C4_6  and  N2_8 
REMARK       I    between atoms: N2_8  and  C5_10 
REMARK    2  A    between atoms: C5_10  and  C6_12 
REMARK    3  A    between atoms: C6_12  and  C8_14 
REMARK    4  A    between atoms: C9_15  and  C10_16 
REMARK    5  A    between atoms: C12_27  and  N7_28 
ROOT
HETATM    1  C8  UNL     1      33.428  49.530  -5.347  1.00  0.00     0.040 A 
HETATM    2  C9  UNL     1      34.755  49.968  -5.118  1.00  0.00     0.155 A 
HETATM    3  O3  UNL     1      34.816  51.118  -5.723  1.00  0.00    -0.232 OA
HETATM    4  N6  UNL     1      33.779  51.502  -6.285  1.00  0.00    -0.244 N 
ATOM      5  H6  UNL     1      33.663  52.376  -6.796  1.00  0.00     0.196 HD
HETATM    6  C12 UNL     1      32.798  50.524  -6.093  1.00  0.00     0.129 A 
ENDROOT
BRANCH   1   7
HETATM    7  C6  UNL     1      32.873  48.291  -4.869  1.00  0.00     0.114 C 
HETATM    8  C7  UNL     1      32.349  47.399  -6.045  1.00  0.00     0.025 C 
BRANCH   7   9
HETATM    9  C5  UNL     1      31.634  48.430  -4.050  1.00  0.00     0.234 C 
HETATM   10  N2  UNL     1      31.549  48.516  -2.656  1.00  0.00    -0.279 N 
HETATM   11  C4  UNL     1      30.290  48.405  -1.981  1.00  0.00     0.323 C 
ATOM     12  H2  UNL     1      32.399  48.660  -2.111  1.00  0.00     0.173 HD
HETATM   13  N1  UNL     1      29.017  48.452  -2.617  1.00  0.00    -0.339 N 
HETATM   14  O1  UNL     1      30.330  48.239  -0.746  1.00  0.00    -0.247 OA
ATOM     15  H1  UNL     1      28.889  48.672  -3.605  1.00  0.00     0.164 HD
HETATM   16  O2  UNL     1      30.557  48.458  -4.739  1.00  0.00    -0.272 OA
BRANCH  13  17
HETATM   17  C2  UNL     1      27.863  48.141  -1.668  1.00  0.00     0.078 C 
HETATM   18  C1  UNL     1      26.808  49.199  -1.949  1.00  0.00     0.032 C 
HETATM   19  C3  UNL     1      27.347  46.795  -2.004  1.00  0.00     0.032 C 
ENDBRANCH  13  17
ENDBRANCH   7   9
ENDBRANCH   1   7
BRANCH   2  20
HETATM   20  C10 UNL     1      35.794  49.276  -4.378  1.00  0.00     0.158 A 
HETATM   21  N3  UNL     1      35.683  49.181  -2.974  1.00  0.00    -0.334 N 
HETATM   22  C11 UNL     1      36.730  48.510  -2.500  1.00  0.00     0.199 A 
ATOM     23  H3  UNL     1      34.923  49.565  -2.413  1.00  0.00     0.168 HD
HETATM   24  N4  UNL     1      37.504  48.155  -3.566  1.00  0.00    -0.294 N 
HETATM   25  N5  UNL     1      36.894  48.640  -4.670  1.00  0.00    -0.282 N 
ATOM     26  H4  UNL     1      38.375  47.626  -3.536  1.00  0.00     0.187 HD
ATOM     27  H5  UNL     1      37.251  48.522  -5.618  1.00  0.00     0.188 HD
ENDBRANCH   2  20
BRANCH   6  28
HETATM   28  N7  UNL     1      31.652  50.683  -6.490  1.00  0.00    -0.384 N 
ATOM     29  H72 UNL     1      30.940  49.965  -6.359  1.00  0.00     0.157 HD
ATOM     30  H71 UNL     1      31.189  51.415  -7.028  1.00  0.00     0.157 HD
ENDBRANCH   6  28
TORSDOF 5
ENDMDL
MODEL 5
REMARK VINA RESULT: -7.763504317      2.977      6.852
REMARK  5 active torsions:
REMARK  status: ('A' for Active; 'I' for Inactive)
REMARK    1  A    between atoms: C2_2  and  N1_4 
REMARK       I    between atoms: N1_4  and  C4_6 
REMARK       I    between atoms: C4_6  and  N2_8 
REMARK       I    between atoms: N2_8  and  C5_10 
REMARK    2  A    between atoms: C5_10  and  C6_12 
REMARK    3  A    between atoms: C6_12  and  C8_14 
REMARK    4  A    between atoms: C9_15  and  C10_16 
REMARK    5  A    between atoms: C12_27  and  N7_28 
ROOT
HETATM    1  C8  UNL     1      30.174  47.158  -4.732  1.00  0.00     0.040 A 
HETATM    2  C9  UNL     1      28.774  47.348  -4.627  1.00  0.00     0.155 A 
HETATM    3  O3  UNL     1      28.295  46.746  -5.675  1.00  0.00    -0.232 OA
HETATM    4  N6  UNL     1      29.120  46.199  -6.423  1.00  0.00    -0.244 N 
ATOM      5  H6  UNL     1      28.907  45.686  -7.278  1.00  0.00     0.196 HD
HETATM    6  C12 UNL     1      30.394  46.411  -5.886  1.00  0.00     0.129 A 
ENDROOT
BRANCH   1   7
HETATM    7  C6  UNL     1      31.146  47.650  -3.792  1.00  0.00     0.114 C 
HETATM    8  C7  UNL     1      30.631  47.539  -2.316  1.00  0.00     0.025 C 
BRANCH   7   9
HETATM    9  C5  UNL     1      31.425  49.113  -3.881  1.00  0.00     0.234 C 
HETATM   10  N2  UNL     1      30.836  50.032  -4.756  1.00  0.00    -0.279 N 
HETATM   11  C4  UNL     1      31.362  51.357  -4.905  1.00  0.00     0.323 C 
ATOM     12  H2  UNL     1      30.018  49.754  -5.298  1.00  0.00     0.173 HD
HETATM   13  N1  UNL     1      32.327  51.952  -4.045  1.00  0.00    -0.339 N 
HETATM   14  O1  UNL     1      30.944  52.019  -5.875  1.00  0.00    -0.247 OA
ATOM     15  H1  UNL     1      32.656  51.518  -3.182  1.00  0.00     0.164 HD
HETATM   16  O2  UNL     1      32.313  49.523  -3.057  1.00  0.00    -0.272 OA
BRANCH  13  17
HETATM   17  C2  UNL     1      32.820  53.307  -4.546  1.00  0.00     0.078 C 
HETATM   18  C1  UNL     1      33.105  54.124  -3.296  1.00  0.00     0.032 C 
HETATM   19  C3  UNL     1      34.066  53.084  -5.312  1.00  0.00     0.032 C 
ENDBRANCH  13  17
ENDBRANCH   7   9
ENDBRANCH   1   7
BRANCH   2  20
HETATM   20  C10 UNL     1      28.059  48.058  -3.582  1.00  0.00     0.158 A 
HETATM   21  N3  UNL     1      27.426  47.315  -2.564  1.00  0.00    -0.334 N 
HETATM   22  C11 UNL     1      26.838  48.154  -1.714  1.00  0.00     0.199 A 
ATOM     23  H3  UNL     1      27.420  46.298  -2.489  1.00  0.00     0.168 HD
HETATM   24  N4  UNL     1      27.092  49.421  -2.153  1.00  0.00    -0.294 N 
HETATM   25  N5  UNL     1      27.830  49.305  -3.278  1.00  0.00    -0.282 N 
ATOM     26  H4  UNL     1      26.783  50.289  -1.715  1.00  0.00     0.187 HD
ATOM     27  H5  UNL     1      28.169  50.097  -3.823  1.00  0.00     0.188 HD
ENDBRANCH   2  20
BRANCH   6  28
HETATM   28  N7  UNL     1      31.391  45.915  -6.394  1.00  0.00    -0.384 N 
ATOM     29  H72 UNL     1      31.351  45.454  -7.303  1.00  0.00     0.157 HD
ATOM     30  H71 UNL     1      32.351  45.785  -6.077  1.00  0.00     0.157 HD
ENDBRANCH   6  28
TORSDOF 5
ENDMDL
