MODEL 1
REMARK VINA RESULT: -5.802707912      0.000      0.000
REMARK  3 active torsions:
REMARK  status: ('A' for Active; 'I' for Inactive)
REMARK    1  A    between atoms: O1_1  and  N1_3 
REMARK    2  A    between atoms: C5_8  and  C6_9 
REMARK    3  A    between atoms: N2_10  and  O2_12 
ROOT
HETATM    1  N1  UNL     1      43.296  32.474  33.595  1.00  0.00    -0.235 N 
HETATM    2  C1  UNL     1      43.090  31.700  32.510  1.00  0.00     0.123 A 
HETATM    3  C2  UNL     1      42.526  32.214  31.369  1.00  0.00     0.020 A 
HETATM    4  C3  UNL     1      42.173  33.536  31.346  1.00  0.00     0.004 A 
HETATM    5  C4  UNL     1      42.388  34.341  32.475  1.00  0.00     0.033 A 
HETATM    6  C5  UNL     1      42.956  33.779  33.594  1.00  0.00     0.079 A 
ENDROOT
BRANCH   6   7
HETATM    7  C6  UNL     1      43.209  34.553  34.801  1.00  0.00     0.145 C 
HETATM    8  N2  UNL     1      44.204  35.280  35.036  1.00  0.00    -0.278 N 
ATOM      9  H2  UNL     1      44.138  35.713  35.957  1.00  0.00     0.193 HD
BRANCH   8  10
HETATM   10  O2  UNL     1      45.307  35.635  34.420  1.00  0.00    -0.290 OA
ATOM     11  H2  UNL     1      46.188  35.296  34.314  1.00  0.00     0.244 HD
ENDBRANCH   8  10
ENDBRANCH   6   7
BRANCH   1  12
HETATM   12  O1  UNL     1      43.861  31.909  34.707  1.00  0.00    -0.283 OA
ATOM     13  H1  UNL     1      44.698  32.239  35.011  1.00  0.00     0.245 HD
ENDBRANCH   1  12
TORSDOF 3
ENDMDL
MODEL 2
REMARK VINA RESULT: -5.756891016      2.697      4.054
REMARK  3 active torsions:
REMARK  status: ('A' for Active; 'I' for Inactive)
REMARK    1  A    between atoms: O1_1  and  N1_3 
REMARK    2  A    between atoms: C5_8  and  C6_9 
REMARK    3  A    between atoms: N2_10  and  O2_12 
ROOT
HETATM    1  N1  UNL     1      43.329  32.196  32.577  1.00  0.00    -0.235 N 
HETATM    2  C1  UNL     1      43.604  32.977  33.641  1.00  0.00     0.123 A 
HETATM    3  C2  UNL     1      43.076  34.238  33.751  1.00  0.00     0.020 A 
HETATM    4  C3  UNL     1      42.257  34.699  32.756  1.00  0.00     0.004 A 
HETATM    5  C4  UNL     1      41.971  33.886  31.648  1.00  0.00     0.033 A 
HETATM    6  C5  UNL     1      42.525  32.630  31.585  1.00  0.00     0.079 A 
ENDROOT
BRANCH   6   7
HETATM    7  C6  UNL     1      42.273  31.732  30.467  1.00  0.00     0.145 C 
HETATM    8  N2  UNL     1      41.488  31.924  29.507  1.00  0.00    -0.278 N 
ATOM      9  H2  UNL     1      41.497  31.138  28.857  1.00  0.00     0.193 HD
BRANCH   8  10
HETATM   10  O2  UNL     1      40.657  32.860  29.112  1.00  0.00    -0.290 OA
ATOM     11  H2  UNL     1      40.335  33.206  28.288  1.00  0.00     0.244 HD
ENDBRANCH   8  10
ENDBRANCH   6   7
BRANCH   1  12
HETATM   12  O1  UNL     1      43.884  30.946  32.517  1.00  0.00    -0.283 OA
ATOM     13  H1  UNL     1      43.346  30.221  32.221  1.00  0.00     0.245 HD
ENDBRANCH   1  12
TORSDOF 3
ENDMDL
MODEL 3
REMARK VINA RESULT: -5.683354541      2.539      4.007
REMARK  3 active torsions:
REMARK  status: ('A' for Active; 'I' for Inactive)
REMARK    1  A    between atoms: O1_1  and  N1_3 
REMARK    2  A    between atoms: C5_8  and  C6_9 
REMARK    3  A    between atoms: N2_10  and  O2_12 
ROOT
HETATM    1  N1  UNL     1      43.126  33.676  33.281  1.00  0.00    -0.235 N 
HETATM    2  C1  UNL     1      43.646  33.154  34.410  1.00  0.00     0.123 A 
HETATM    3  C2  UNL     1      43.787  31.798  34.565  1.00  0.00     0.020 A 
HETATM    4  C3  UNL     1      43.390  30.973  33.547  1.00  0.00     0.004 A 
HETATM    5  C4  UNL     1      42.848  31.517  32.372  1.00  0.00     0.033 A 
HETATM    6  C5  UNL     1      42.728  32.882  32.266  1.00  0.00     0.079 A 
ENDROOT
BRANCH   6   7
HETATM    7  C6  UNL     1      42.176  33.517  31.078  1.00  0.00     0.145 C 
HETATM    8  N2  UNL     1      41.757  32.945  30.043  1.00  0.00    -0.278 N 
ATOM      9  H2  UNL     1      41.420  33.620  29.356  1.00  0.00     0.193 HD
BRANCH   8  10
HETATM   10  O2  UNL     1      41.634  31.715  29.602  1.00  0.00    -0.290 OA
ATOM     11  H2  UNL     1      41.153  31.262  28.919  1.00  0.00     0.244 HD
ENDBRANCH   8  10
ENDBRANCH   6   7
BRANCH   1  12
HETATM   12  O1  UNL     1      43.006  35.037  33.180  1.00  0.00    -0.283 OA
ATOM     13  H1  UNL     1      42.771  35.533  33.956  1.00  0.00     0.245 HD
ENDBRANCH   1  12
TORSDOF 3
ENDMDL
MODEL 4
REMARK VINA RESULT: -5.622025214      1.556      2.127
REMARK  3 active torsions:
REMARK  status: ('A' for Active; 'I' for Inactive)
REMARK    1  A    between atoms: O1_1  and  N1_3 
REMARK    2  A    between atoms: C5_8  and  C6_9 
REMARK    3  A    between atoms: N2_10  and  O2_12 
ROOT
HETATM    1  N1  UNL     1      42.929  33.643  32.869  1.00  0.00    -0.235 N 
HETATM    2  C1  UNL     1      42.677  32.639  32.006  1.00  0.00     0.123 A 
HETATM    3  C2  UNL     1      42.866  31.329  32.367  1.00  0.00     0.020 A 
HETATM    4  C3  UNL     1      43.317  31.051  33.629  1.00  0.00     0.004 A 
HETATM    5  C4  UNL     1      43.579  32.097  34.528  1.00  0.00     0.033 A 
HETATM    6  C5  UNL     1      43.373  33.393  34.118  1.00  0.00     0.079 A 
ENDROOT
BRANCH   6   7
HETATM    7  C6  UNL     1      43.623  34.528  34.996  1.00  0.00     0.145 C 
HETATM    8  N2  UNL     1      44.493  35.419  34.847  1.00  0.00    -0.278 N 
ATOM      9  H2  UNL     1      44.458  36.102  35.603  1.00  0.00     0.193 HD
BRANCH   8  10
HETATM   10  O2  UNL     1      45.437  35.711  33.983  1.00  0.00    -0.290 OA
ATOM     11  H2  UNL     1      46.275  36.160  33.989  1.00  0.00     0.244 HD
ENDBRANCH   8  10
ENDBRANCH   6   7
BRANCH   1  12
HETATM   12  O1  UNL     1      42.724  34.933  32.456  1.00  0.00    -0.283 OA
ATOM     13  H1  UNL     1      43.457  35.537  32.466  1.00  0.00     0.245 HD
ENDBRANCH   1  12
TORSDOF 3
ENDMDL
MODEL 5
REMARK VINA RESULT: -5.461396637      2.390      3.589
REMARK  3 active torsions:
REMARK  status: ('A' for Active; 'I' for Inactive)
REMARK    1  A    between atoms: O1_1  and  N1_3 
REMARK    2  A    between atoms: C5_8  and  C6_9 
REMARK    3  A    between atoms: N2_10  and  O2_12 
ROOT
HETATM    1  N1  UNL     1      43.387  33.447  33.414  1.00  0.00    -0.235 N 
HETATM    2  C1  UNL     1      43.926  32.990  34.562  1.00  0.00     0.123 A 
HETATM    3  C2  UNL     1      43.966  31.647  34.843  1.00  0.00     0.020 A 
HETATM    4  C3  UNL     1      43.448  30.768  33.930  1.00  0.00     0.004 A 
HETATM    5  C4  UNL     1      42.887  31.244  32.735  1.00  0.00     0.033 A 
HETATM    6  C5  UNL     1      42.870  32.598  32.502  1.00  0.00     0.079 A 
ENDROOT
BRANCH   6   7
HETATM    7  C6  UNL     1      42.306  33.164  31.285  1.00  0.00     0.145 C 
HETATM    8  N2  UNL     1      41.400  34.028  31.205  1.00  0.00    -0.278 N 
ATOM      9  H2  UNL     1      41.187  34.254  30.233  1.00  0.00     0.193 HD
BRANCH   8  10
HETATM   10  O2  UNL     1      40.651  34.721  32.030  1.00  0.00    -0.290 OA
ATOM     11  H2  UNL     1      40.400  35.629  32.151  1.00  0.00     0.244 HD
ENDBRANCH   8  10
ENDBRANCH   6   7
BRANCH   1  12
HETATM   12  O1  UNL     1      43.372  34.797  33.186  1.00  0.00    -0.283 OA
ATOM     13  H1  UNL     1      42.548  35.264  33.263  1.00  0.00     0.245 HD
ENDBRANCH   1  12
TORSDOF 3
ENDMDL
