MODEL 1
REMARK VINA RESULT: -6.284431837      0.000      0.000
REMARK  2 active torsions:
REMARK  status: ('A' for Active; 'I' for Inactive)
REMARK    1  A    between atoms: C2_5  and  N3_6 
REMARK    2  A    between atoms: N3_6  and  C3_8 
ROOT
HETATM    1  N1  UNL     1      42.846  36.064  37.833  1.00  0.00    -0.172 NA
HETATM    2  C1  UNL     1      43.648  36.052  36.999  1.00  0.00     0.182 C 
HETATM    3  N2  UNL     1      44.619  36.042  36.012  1.00  0.00    -0.290 N 
ATOM      4  H2  UNL     1      45.434  36.642  36.145  1.00  0.00     0.178 HD
HETATM    5  C2  UNL     1      44.569  35.329  34.938  1.00  0.00     0.192 C 
ENDROOT
BRANCH   5   6
HETATM    6  N3  UNL     1      43.469  34.501  34.731  1.00  0.00    -0.338 N 
ATOM      7  H3  UNL     1      42.670  34.659  35.344  1.00  0.00     0.168 HD
BRANCH   6   8
HETATM    8  C3  UNL     1      43.338  33.576  33.875  1.00  0.00     0.123 A 
HETATM    9  C4  UNL     1      43.784  32.306  34.135  1.00  0.00     0.066 A 
HETATM   10  C5  UNL     1      43.627  31.297  33.169  1.00  0.00     0.110 A 
HETATM   11  N4  UNL     1      43.040  31.563  31.987  1.00  0.00    -0.202 N 
HETATM   12  C6  UNL     1      42.613  32.815  31.763  1.00  0.00     0.677 A 
ATOM     13  H4  UNL     1      42.923  30.834  31.283  1.00  0.00     0.183 HD
HETATM   14  N5  UNL     1      42.053  33.063  30.633  1.00  0.00    -0.234 N 
HETATM   15  N6  UNL     1      42.759  33.809  32.691  1.00  0.00    -0.177 N 
ATOM     16  H52 UNL     1      41.944  32.322  29.941  1.00  0.00     0.174 HD
ATOM     17  H51 UNL     1      41.728  34.014  30.463  1.00  0.00     0.174 HD
ATOM     18  H6  UNL     1      42.420  34.747  32.477  1.00  0.00     0.185 HD
ENDBRANCH   6   8
ENDBRANCH   5   6
TORSDOF 2
ENDMDL
MODEL 2
REMARK VINA RESULT: -6.242229138      1.133      1.144
REMARK  2 active torsions:
REMARK  status: ('A' for Active; 'I' for Inactive)
REMARK    1  A    between atoms: C2_5  and  N3_6 
REMARK    2  A    between atoms: N3_6  and  C3_8 
ROOT
HETATM    1  N1  UNL     1      45.365  34.565  38.447  1.00  0.00    -0.172 NA
HETATM    2  C1  UNL     1      44.827  35.114  37.581  1.00  0.00     0.182 C 
HETATM    3  N2  UNL     1      44.191  35.785  36.551  1.00  0.00    -0.290 N 
ATOM      4  H2  UNL     1      43.997  36.778  36.682  1.00  0.00     0.178 HD
HETATM    5  C2  UNL     1      43.827  35.246  35.437  1.00  0.00     0.192 C 
ENDROOT
BRANCH   5   6
HETATM    6  N3  UNL     1      44.078  33.892  35.230  1.00  0.00    -0.338 N 
ATOM      7  H3  UNL     1      44.612  33.421  35.960  1.00  0.00     0.168 HD
BRANCH   6   8
HETATM    8  C3  UNL     1      43.726  33.173  34.248  1.00  0.00     0.123 A 
HETATM    9  C4  UNL     1      43.901  31.813  34.272  1.00  0.00     0.066 A 
HETATM   10  C5  UNL     1      43.501  31.037  33.170  1.00  0.00     0.110 A 
HETATM   11  N4  UNL     1      42.947  31.614  32.087  1.00  0.00    -0.202 N 
HETATM   12  C6  UNL     1      42.790  32.946  32.095  1.00  0.00     0.677 A 
ATOM     13  H4  UNL     1      42.656  31.056  31.285  1.00  0.00     0.183 HD
HETATM   14  N5  UNL     1      42.261  33.493  31.058  1.00  0.00    -0.234 N 
HETATM   15  N6  UNL     1      43.173  33.717  33.158  1.00  0.00    -0.177 N 
ATOM     16  H52 UNL     1      41.974  32.919  30.266  1.00  0.00     0.174 HD
ATOM     17  H51 UNL     1      42.140  34.505  31.065  1.00  0.00     0.174 HD
ATOM     18  H6  UNL     1      43.035  34.727  33.119  1.00  0.00     0.185 HD
ENDBRANCH   6   8
ENDBRANCH   5   6
TORSDOF 2
ENDMDL
MODEL 3
REMARK VINA RESULT: -6.178064789      0.960      1.791
REMARK  2 active torsions:
REMARK  status: ('A' for Active; 'I' for Inactive)
REMARK    1  A    between atoms: C2_5  and  N3_6 
REMARK    2  A    between atoms: N3_6  and  C3_8 
ROOT
HETATM    1  N1  UNL     1      42.677  36.181  38.029  1.00  0.00    -0.172 NA
HETATM    2  C1  UNL     1      43.522  36.107  37.240  1.00  0.00     0.182 C 
HETATM    3  N2  UNL     1      44.544  36.022  36.310  1.00  0.00    -0.290 N 
ATOM      4  H2  UNL     1      45.400  36.541  36.500  1.00  0.00     0.178 HD
HETATM    5  C2  UNL     1      44.490  35.332  35.221  1.00  0.00     0.192 C 
ENDROOT
BRANCH   5   6
HETATM    6  N3  UNL     1      43.333  34.613  34.936  1.00  0.00    -0.338 N 
ATOM      7  H3  UNL     1      42.553  34.748  35.579  1.00  0.00     0.168 HD
BRANCH   6   8
HETATM    8  C3  UNL     1      43.127  33.813  33.975  1.00  0.00     0.123 A 
HETATM    9  C4  UNL     1      42.783  34.276  32.731  1.00  0.00     0.066 A 
HETATM   10  C5  UNL     1      42.560  33.367  31.682  1.00  0.00     0.110 A 
HETATM   11  N4  UNL     1      42.682  32.042  31.884  1.00  0.00    -0.202 N 
HETATM   12  C6  UNL     1      43.020  31.620  33.111  1.00  0.00     0.677 A 
ATOM     13  H4  UNL     1      42.522  31.378  31.126  1.00  0.00     0.183 HD
HETATM   14  N5  UNL     1      43.135  30.353  33.299  1.00  0.00    -0.234 N 
HETATM   15  N6  UNL     1      43.239  32.490  34.144  1.00  0.00    -0.177 N 
ATOM     16  H52 UNL     1      42.971  29.704  32.529  1.00  0.00     0.174 HD
ATOM     17  H51 UNL     1      43.392  30.032  34.232  1.00  0.00     0.174 HD
ATOM     18  H6  UNL     1      43.494  32.123  35.062  1.00  0.00     0.185 HD
ENDBRANCH   6   8
ENDBRANCH   5   6
TORSDOF 2
ENDMDL
MODEL 4
REMARK VINA RESULT: -5.344720767      1.411      1.479
REMARK  2 active torsions:
REMARK  status: ('A' for Active; 'I' for Inactive)
REMARK    1  A    between atoms: C2_5  and  N3_6 
REMARK    2  A    between atoms: N3_6  and  C3_8 
ROOT
HETATM    1  N1  UNL     1      43.669  38.259  37.306  1.00  0.00    -0.172 NA
HETATM    2  C1  UNL     1      44.155  37.213  37.403  1.00  0.00     0.182 C 
HETATM    3  N2  UNL     1      44.733  35.962  37.537  1.00  0.00    -0.290 N 
ATOM      4  H2  UNL     1      45.223  35.758  38.407  1.00  0.00     0.178 HD
HETATM    5  C2  UNL     1      44.696  35.036  36.639  1.00  0.00     0.192 C 
ENDROOT
BRANCH   5   6
HETATM    6  N3  UNL     1      44.033  35.286  35.441  1.00  0.00    -0.338 N 
ATOM      7  H3  UNL     1      43.824  36.264  35.242  1.00  0.00     0.168 HD
BRANCH   6   8
HETATM    8  C3  UNL     1      43.657  34.449  34.566  1.00  0.00     0.123 A 
HETATM    9  C4  UNL     1      44.135  33.164  34.568  1.00  0.00     0.066 A 
HETATM   10  C5  UNL     1      43.703  32.254  33.587  1.00  0.00     0.110 A 
HETATM   11  N4  UNL     1      42.820  32.630  32.643  1.00  0.00    -0.202 N 
HETATM   12  C6  UNL     1      42.370  33.894  32.668  1.00  0.00     0.677 A 
ATOM     13  H4  UNL     1      42.503  31.974  31.929  1.00  0.00     0.183 HD
HETATM   14  N5  UNL     1      41.529  34.248  31.764  1.00  0.00    -0.234 N 
HETATM   15  N6  UNL     1      42.782  34.792  33.614  1.00  0.00    -0.177 N 
ATOM     16  H52 UNL     1      41.222  33.578  31.058  1.00  0.00     0.174 HD
ATOM     17  H51 UNL     1      41.186  35.208  31.783  1.00  0.00     0.174 HD
ATOM     18  H6  UNL     1      42.413  35.744  33.594  1.00  0.00     0.185 HD
ENDBRANCH   6   8
ENDBRANCH   5   6
TORSDOF 2
ENDMDL
MODEL 5
REMARK VINA RESULT: -5.253550742      1.915      5.768
REMARK  2 active torsions:
REMARK  status: ('A' for Active; 'I' for Inactive)
REMARK    1  A    between atoms: C2_5  and  N3_6 
REMARK    2  A    between atoms: N3_6  and  C3_8 
ROOT
HETATM    1  N1  UNL     1      44.043  31.191  34.661  1.00  0.00    -0.172 NA
HETATM    2  C1  UNL     1      43.572  32.208  34.372  1.00  0.00     0.182 C 
HETATM    3  N2  UNL     1      42.994  33.416  34.021  1.00  0.00    -0.290 N 
ATOM      4  H2  UNL     1      42.266  33.402  33.308  1.00  0.00     0.178 HD
HETATM    5  C2  UNL     1      43.309  34.558  34.533  1.00  0.00     0.192 C 
ENDROOT
BRANCH   5   6
HETATM    6  N3  UNL     1      44.300  34.607  35.510  1.00  0.00    -0.338 N 
ATOM      7  H3  UNL     1      45.035  33.904  35.437  1.00  0.00     0.168 HD
BRANCH   6   8
HETATM    8  C3  UNL     1      44.402  35.417  36.479  1.00  0.00     0.123 A 
HETATM    9  C4  UNL     1      44.791  34.985  37.721  1.00  0.00     0.066 A 
HETATM   10  C5  UNL     1      44.898  35.903  38.781  1.00  0.00     0.110 A 
HETATM   11  N4  UNL     1      44.621  37.207  38.590  1.00  0.00    -0.202 N 
HETATM   12  C6  UNL     1      44.244  37.598  37.364  1.00  0.00     0.677 A 
ATOM     13  H4  UNL     1      44.697  37.877  39.355  1.00  0.00     0.183 HD
HETATM   14  N5  UNL     1      43.981  38.844  37.187  1.00  0.00    -0.234 N 
HETATM   15  N6  UNL     1      44.135  36.718  36.322  1.00  0.00    -0.177 N 
ATOM     16  H52 UNL     1      44.063  39.500  37.963  1.00  0.00     0.174 HD
ATOM     17  H51 UNL     1      43.695  39.142  36.255  1.00  0.00     0.174 HD
ATOM     18  H6  UNL     1      43.843  37.061  35.406  1.00  0.00     0.185 HD
ENDBRANCH   6   8
ENDBRANCH   5   6
TORSDOF 2
ENDMDL
