MODEL 1
REMARK VINA RESULT: -7.648803687      0.000      0.000
REMARK  7 active torsions:
REMARK  status: ('A' for Active; 'I' for Inactive)
REMARK    1  A    between atoms: C2_2  and  C3_3 
REMARK    2  A    between atoms: N2_10  and  C8_11 
REMARK    3  A    between atoms: C9_14  and  N4_15 
REMARK    4  A    between atoms: C11_17  and  N5_18 
REMARK    5  A    between atoms: C13_23  and  N6_24 
REMARK    6  A    between atoms: C13_23  and  C14_28 
REMARK    7  A    between atoms: C17_33  and  N8_34 
ROOT
HETATM    1  C8  UNL     1      -5.926 -10.304   8.560  1.00  0.00     0.710 A 
HETATM    2  N3  UNL     1      -5.163 -10.477   9.616  1.00  0.00    -0.021 N 
ATOM      3  H3  UNL     1      -5.613 -10.663  10.513  1.00  0.00     0.203 HD
HETATM    4  C9  UNL     1      -3.797 -10.421   9.575  1.00  0.00     0.709 A 
HETATM    5  N7  UNL     1      -3.269 -10.174   8.368  1.00  0.00    -0.022 N 
ATOM      6  H7  UNL     1      -2.253 -10.123   8.285  1.00  0.00     0.203 HD
HETATM    7  C17 UNL     1      -4.012  -9.989   7.253  1.00  0.00     0.705 A 
HETATM    8  N9  UNL     1      -5.335 -10.060   7.378  1.00  0.00    -0.021 N 
ATOM      9  H9  UNL     1      -5.918  -9.925   6.551  1.00  0.00     0.203 HD
ENDROOT
BRANCH   4  10
HETATM   10  N4  UNL     1      -2.999 -10.612  10.732  1.00  0.00    -0.212 N 
HETATM   11  C10 UNL     1      -1.967  -9.630  10.994  1.00  0.00     0.174 C 
HETATM   12  C11 UNL     1      -1.239  -9.772  12.266  1.00  0.00     0.204 C 
HETATM   13  C12 UNL     1      -2.060 -10.252  13.423  1.00  0.00     0.074 C 
HETATM   14  C13 UNL     1      -3.067 -11.282  13.096  1.00  0.00     0.141 C 
HETATM   15  C16 UNL     1      -3.148 -11.693  11.644  1.00  0.00     0.180 C 
BRANCH  12  16
HETATM   16  N5  UNL     1      -0.050 -10.604  12.098  1.00  0.00    -0.073 N 
ATOM     17  H53 UNL     1       0.333 -10.528  11.156  1.00  0.00     0.274 HD
ATOM     18  H52 UNL     1       0.745 -10.234  12.618  1.00  0.00     0.274 HD
ATOM     19  H51 UNL     1      -0.245 -11.574  12.348  1.00  0.00     0.274 HD
ENDBRANCH  12  16
BRANCH  14  20
HETATM   20  N6  UNL     1      -4.398 -10.748  13.432  1.00  0.00    -0.069 N 
ATOM     21  H63 UNL     1      -4.358  -9.798  13.803  1.00  0.00     0.275 HD
ATOM     22  H62 UNL     1      -4.962 -10.550  12.606  1.00  0.00     0.275 HD
ATOM     23  H61 UNL     1      -4.852 -11.401  14.071  1.00  0.00     0.275 HD
ENDBRANCH  14  20
BRANCH  14  24
HETATM   24  C14 UNL     1      -2.872 -12.489  13.977  1.00  0.00     0.036 C 
HETATM   25  C15 UNL     1      -2.900 -13.787  13.235  1.00  0.00     0.007 C 
ENDBRANCH  14  24
ENDBRANCH   4  10
BRANCH   1  26
HETATM   26  N2  UNL     1      -7.349 -10.358   8.579  1.00  0.00    -0.207 N 
HETATM   27  C3  UNL     1      -8.118  -9.315   9.183  1.00  0.00     0.126 C 
HETATM   28  C4  UNL     1      -8.564  -9.872  10.542  1.00  0.00     0.049 C 
HETATM   29  C5  UNL     1      -9.315 -11.171  10.324  1.00  0.00     0.116 C 
HETATM   30  N1  UNL     1     -10.084 -11.191   9.135  1.00  0.00    -0.420 N 
HETATM   31  C6  UNL     1      -9.412 -11.419   7.910  1.00  0.00     0.134 C 
ATOM     32  H1  UNL     1     -11.093 -11.046   9.161  1.00  0.00     0.153 HD
HETATM   33  C7  UNL     1      -7.939 -11.555   7.952  1.00  0.00     0.161 C 
BRANCH  27  34
HETATM   34  C2  UNL     1      -7.473  -8.013   9.309  1.00  0.00    -0.011 C 
HETATM   35  C1  UNL     1      -7.703  -7.297  10.397  1.00  0.00     0.009 C 
ENDBRANCH  27  34
ENDBRANCH   1  26
BRANCH   7  36
HETATM   36  N8  UNL     1      -3.453  -9.755   6.117  1.00  0.00    -0.234 N 
ATOM     37  H82 UNL     1      -2.826  -8.962   5.984  1.00  0.00     0.174 HD
ATOM     38  H81 UNL     1      -3.626 -10.359   5.315  1.00  0.00     0.174 HD
ENDBRANCH   7  36
TORSDOF 7
ENDMDL
MODEL 2
REMARK VINA RESULT: -7.394534497      1.301      1.786
REMARK  7 active torsions:
REMARK  status: ('A' for Active; 'I' for Inactive)
REMARK    1  A    between atoms: C2_2  and  C3_3 
REMARK    2  A    between atoms: N2_10  and  C8_11 
REMARK    3  A    between atoms: C9_14  and  N4_15 
REMARK    4  A    between atoms: C11_17  and  N5_18 
REMARK    5  A    between atoms: C13_23  and  N6_24 
REMARK    6  A    between atoms: C13_23  and  C14_28 
REMARK    7  A    between atoms: C17_33  and  N8_34 
ROOT
HETATM    1  C8  UNL     1      -5.760 -10.150   8.467  1.00  0.00     0.710 A 
HETATM    2  N3  UNL     1      -5.243 -10.553   9.606  1.00  0.00    -0.021 N 
ATOM      3  H3  UNL     1      -5.871 -10.709  10.395  1.00  0.00     0.203 HD
HETATM    4  C9  UNL     1      -3.906 -10.775   9.788  1.00  0.00     0.709 A 
HETATM    5  N7  UNL     1      -3.135 -10.553   8.713  1.00  0.00    -0.022 N 
ATOM      6  H7  UNL     1      -2.130 -10.705   8.799  1.00  0.00     0.203 HD
HETATM    7  C17 UNL     1      -3.622 -10.138   7.521  1.00  0.00     0.705 A 
HETATM    8  N9  UNL     1      -4.934  -9.946   7.426  1.00  0.00    -0.021 N 
ATOM      9  H9  UNL     1      -5.326  -9.634   6.538  1.00  0.00     0.203 HD
ENDROOT
BRANCH   4  10
HETATM   10  N4  UNL     1      -3.375 -11.210  11.030  1.00  0.00    -0.212 N 
HETATM   11  C10 UNL     1      -4.115 -10.859  12.225  1.00  0.00     0.174 C 
HETATM   12  C11 UNL     1      -3.620 -11.430  13.489  1.00  0.00     0.204 C 
HETATM   13  C12 UNL     1      -3.064 -12.818  13.390  1.00  0.00     0.074 C 
HETATM   14  C13 UNL     1      -2.287 -13.099  12.165  1.00  0.00     0.141 C 
HETATM   15  C16 UNL     1      -2.177 -11.963  11.174  1.00  0.00     0.180 C 
BRANCH  12  16
HETATM   16  N5  UNL     1      -2.658 -10.535  14.127  1.00  0.00    -0.073 N 
ATOM     17  H53 UNL     1      -2.310  -9.831  13.476  1.00  0.00     0.274 HD
ATOM     18  H52 UNL     1      -3.109  -9.914  14.799  1.00  0.00     0.274 HD
ATOM     19  H51 UNL     1      -1.897 -11.062  14.555  1.00  0.00     0.274 HD
ENDBRANCH  12  16
BRANCH  14  20
HETATM   20  N6  UNL     1      -2.951 -14.196  11.440  1.00  0.00    -0.069 N 
ATOM     21  H63 UNL     1      -3.810 -14.505  11.896  1.00  0.00     0.275 HD
ATOM     22  H62 UNL     1      -3.364 -13.891  10.559  1.00  0.00     0.275 HD
ATOM     23  H61 UNL     1      -2.277 -14.952  11.318  1.00  0.00     0.275 HD
ENDBRANCH  14  20
BRANCH  14  24
HETATM   24  C14 UNL     1      -0.920 -13.614  12.532  1.00  0.00     0.036 C 
HETATM   25  C15 UNL     1      -0.666 -13.656  14.005  1.00  0.00     0.007 C 
ENDBRANCH  14  24
ENDBRANCH   4  10
BRANCH   1  26
HETATM   26  N2  UNL     1      -7.149  -9.913   8.254  1.00  0.00    -0.207 N 
HETATM   27  C3  UNL     1      -7.868  -8.977   9.061  1.00  0.00     0.126 C 
HETATM   28  C4  UNL     1      -8.665  -9.829  10.061  1.00  0.00     0.049 C 
HETATM   29  C5  UNL     1      -9.532 -10.809   9.296  1.00  0.00     0.116 C 
HETATM   30  N1  UNL     1     -10.030 -10.296   8.075  1.00  0.00    -0.420 N 
HETATM   31  C6  UNL     1      -9.157 -10.260   6.960  1.00  0.00     0.134 C 
ATOM     32  H1  UNL     1     -10.991  -9.961   7.999  1.00  0.00     0.153 HD
HETATM   33  C7  UNL     1      -7.761 -10.704   7.171  1.00  0.00     0.161 C 
BRANCH  27  34
HETATM   34  C2  UNL     1      -7.083  -7.943   9.726  1.00  0.00    -0.011 C 
HETATM   35  C1  UNL     1      -7.715  -7.054  10.475  1.00  0.00     0.009 C 
ENDBRANCH  27  34
ENDBRANCH   1  26
BRANCH   7  36
HETATM   36  N8  UNL     1      -2.837  -9.940   6.520  1.00  0.00    -0.234 N 
ATOM     37  H82 UNL     1      -1.945 -10.427   6.436  1.00  0.00     0.174 HD
ATOM     38  H81 UNL     1      -3.088  -9.285   5.780  1.00  0.00     0.174 HD
ENDBRANCH   7  36
TORSDOF 7
ENDMDL
MODEL 3
REMARK VINA RESULT: -7.355156365      1.826      6.969
REMARK  7 active torsions:
REMARK  status: ('A' for Active; 'I' for Inactive)
REMARK    1  A    between atoms: C2_2  and  C3_3 
REMARK    2  A    between atoms: N2_10  and  C8_11 
REMARK    3  A    between atoms: C9_14  and  N4_15 
REMARK    4  A    between atoms: C11_17  and  N5_18 
REMARK    5  A    between atoms: C13_23  and  N6_24 
REMARK    6  A    between atoms: C13_23  and  C14_28 
REMARK    7  A    between atoms: C17_33  and  N8_34 
ROOT
HETATM    1  C8  UNL     1      -2.894 -11.645  10.406  1.00  0.00     0.710 A 
HETATM    2  N3  UNL     1      -4.049 -11.018  10.364  1.00  0.00    -0.021 N 
ATOM      3  H3  UNL     1      -4.261 -10.346  11.102  1.00  0.00     0.203 HD
HETATM    4  C9  UNL     1      -4.979 -11.220   9.383  1.00  0.00     0.709 A 
HETATM    5  N7  UNL     1      -4.638 -12.115   8.444  1.00  0.00    -0.022 N 
ATOM      6  H7  UNL     1      -5.300 -12.300   7.690  1.00  0.00     0.203 HD
HETATM    7  C17 UNL     1      -3.463 -12.784   8.445  1.00  0.00     0.705 A 
HETATM    8  N9  UNL     1      -2.611 -12.529   9.434  1.00  0.00    -0.021 N 
ATOM      9  H9  UNL     1      -1.717 -13.020   9.457  1.00  0.00     0.203 HD
ENDROOT
BRANCH   4  10
HETATM   10  N4  UNL     1      -6.218 -10.529   9.364  1.00  0.00    -0.212 N 
HETATM   11  C10 UNL     1      -6.244  -9.200   9.939  1.00  0.00     0.174 C 
HETATM   12  C11 UNL     1      -7.502  -8.450   9.791  1.00  0.00     0.204 C 
HETATM   13  C12 UNL     1      -8.232  -8.671   8.501  1.00  0.00     0.074 C 
HETATM   14  C13 UNL     1      -8.201 -10.056   7.990  1.00  0.00     0.141 C 
HETATM   15  C16 UNL     1      -7.424 -11.052   8.820  1.00  0.00     0.180 C 
BRANCH  12  16
HETATM   16  N5  UNL     1      -8.387  -8.684  10.930  1.00  0.00    -0.073 N 
ATOM     17  H53 UNL     1      -9.180  -9.273  10.675  1.00  0.00     0.274 HD
ATOM     18  H52 UNL     1      -7.957  -9.296  11.622  1.00  0.00     0.274 HD
ATOM     19  H51 UNL     1      -8.690  -7.802  11.343  1.00  0.00     0.274 HD
ENDBRANCH  12  16
BRANCH  14  20
HETATM   20  N6  UNL     1      -7.548 -10.045   6.669  1.00  0.00    -0.069 N 
ATOM     21  H63 UNL     1      -6.981  -9.211   6.519  1.00  0.00     0.275 HD
ATOM     22  H62 UNL     1      -6.801 -10.735   6.594  1.00  0.00     0.275 HD
ATOM     23  H61 UNL     1      -8.268 -10.165   5.957  1.00  0.00     0.275 HD
ENDBRANCH  14  20
BRANCH  14  24
HETATM   24  C14 UNL     1      -9.605 -10.547   7.752  1.00  0.00     0.036 C 
HETATM   25  C15 UNL     1      -9.914 -10.819   6.314  1.00  0.00     0.007 C 
ENDBRANCH  14  24
ENDBRANCH   4  10
BRANCH   1  26
HETATM   26  N2  UNL     1      -1.910 -11.450  11.417  1.00  0.00    -0.207 N 
HETATM   27  C3  UNL     1      -2.044 -12.060  12.703  1.00  0.00     0.126 C 
HETATM   28  C4  UNL     1      -2.524 -10.941  13.638  1.00  0.00     0.049 C 
HETATM   29  C5  UNL     1      -1.539  -9.790  13.579  1.00  0.00     0.116 C 
HETATM   30  N1  UNL     1      -0.194 -10.199  13.411  1.00  0.00    -0.420 N 
HETATM   31  C6  UNL     1       0.231 -10.577  12.114  1.00  0.00     0.134 C 
ATOM     32  H1  UNL     1       0.450 -10.222  14.201  1.00  0.00     0.153 HD
HETATM   33  C7  UNL     1      -0.783 -10.579  11.035  1.00  0.00     0.161 C 
BRANCH  27  34
HETATM   34  C2  UNL     1      -2.894 -13.243  12.783  1.00  0.00    -0.011 C 
HETATM   35  C1  UNL     1      -2.942 -13.910  13.924  1.00  0.00     0.009 C 
ENDBRANCH  27  34
ENDBRANCH   1  26
BRANCH   7  36
HETATM   36  N8  UNL     1      -3.186 -13.633   7.518  1.00  0.00    -0.234 N 
ATOM     37  H82 UNL     1      -3.919 -14.125   7.008  1.00  0.00     0.174 HD
ATOM     38  H81 UNL     1      -2.218 -13.838   7.268  1.00  0.00     0.174 HD
ENDBRANCH   7  36
TORSDOF 7
ENDMDL
MODEL 4
REMARK VINA RESULT: -7.346340478      1.452      6.907
REMARK  7 active torsions:
REMARK  status: ('A' for Active; 'I' for Inactive)
REMARK    1  A    between atoms: C2_2  and  C3_3 
REMARK    2  A    between atoms: N2_10  and  C8_11 
REMARK    3  A    between atoms: C9_14  and  N4_15 
REMARK    4  A    between atoms: C11_17  and  N5_18 
REMARK    5  A    between atoms: C13_23  and  N6_24 
REMARK    6  A    between atoms: C13_23  and  C14_28 
REMARK    7  A    between atoms: C17_33  and  N8_34 
ROOT
HETATM    1  C8  UNL     1      -3.007 -10.685  10.211  1.00  0.00     0.710 A 
HETATM    2  N3  UNL     1      -4.320 -10.739  10.226  1.00  0.00    -0.021 N 
ATOM      3  H3  UNL     1      -4.788 -10.920  11.115  1.00  0.00     0.203 HD
HETATM    4  C9  UNL     1      -5.093 -10.564   9.111  1.00  0.00     0.709 A 
HETATM    5  N7  UNL     1      -4.418 -10.328   7.976  1.00  0.00    -0.022 N 
ATOM      6  H7  UNL     1      -4.950 -10.190   7.117  1.00  0.00     0.203 HD
HETATM    7  C17 UNL     1      -3.069 -10.264   7.912  1.00  0.00     0.705 A 
HETATM    8  N9  UNL     1      -2.390 -10.445   9.042  1.00  0.00    -0.021 N 
ATOM      9  H9  UNL     1      -1.371 -10.400   9.020  1.00  0.00     0.203 HD
ENDROOT
BRANCH   4  10
HETATM   10  N4  UNL     1      -6.509 -10.627   9.157  1.00  0.00    -0.212 N 
HETATM   11  C10 UNL     1      -7.171  -9.894  10.217  1.00  0.00     0.174 C 
HETATM   12  C11 UNL     1      -8.642  -9.865  10.168  1.00  0.00     0.204 C 
HETATM   13  C12 UNL     1      -9.237  -9.803   8.795  1.00  0.00     0.074 C 
HETATM   14  C13 UNL     1      -8.538 -10.604   7.769  1.00  0.00     0.141 C 
HETATM   15  C16 UNL     1      -7.313 -11.356   8.237  1.00  0.00     0.180 C 
BRANCH  12  16
HETATM   16  N5  UNL     1      -9.213 -10.976  10.926  1.00  0.00    -0.073 N 
ATOM     17  H53 UNL     1      -8.510 -11.682  11.146  1.00  0.00     0.274 HD
ATOM     18  H52 UNL     1      -9.456 -10.698  11.877  1.00  0.00     0.274 HD
ATOM     19  H51 UNL     1     -10.011 -11.380  10.437  1.00  0.00     0.274 HD
ENDBRANCH  12  16
BRANCH  14  20
HETATM   20  N6  UNL     1      -8.065  -9.691   6.715  1.00  0.00    -0.069 N 
ATOM     21  H63 UNL     1      -7.424 -10.143   6.062  1.00  0.00     0.275 HD
ATOM     22  H62 UNL     1      -8.797  -9.451   6.046  1.00  0.00     0.275 HD
ATOM     23  H61 UNL     1      -7.658  -8.870   7.163  1.00  0.00     0.275 HD
ENDBRANCH  14  20
BRANCH  14  24
HETATM   24  C14 UNL     1      -9.509 -11.541   7.100  1.00  0.00     0.036 C 
HETATM   25  C15 UNL     1     -10.051 -11.024   5.805  1.00  0.00     0.007 C 
ENDBRANCH  14  24
ENDBRANCH   4  10
BRANCH   1  26
HETATM   26  N2  UNL     1      -2.183 -10.864  11.359  1.00  0.00    -0.207 N 
HETATM   27  C3  UNL     1      -1.901 -12.171  11.868  1.00  0.00     0.126 C 
HETATM   28  C4  UNL     1      -2.808 -12.335  13.096  1.00  0.00     0.049 C 
HETATM   29  C5  UNL     1      -2.538 -11.202  14.066  1.00  0.00     0.116 C 
HETATM   30  N1  UNL     1      -1.185 -10.787  14.094  1.00  0.00    -0.420 N 
HETATM   31  C6  UNL     1      -0.722  -9.949  13.050  1.00  0.00     0.134 C 
ATOM     32  H1  UNL     1      -0.561 -11.082  14.845  1.00  0.00     0.153 HD
HETATM   33  C7  UNL     1      -1.673  -9.620  11.965  1.00  0.00     0.161 C 
BRANCH  27  34
HETATM   34  C2  UNL     1      -2.037 -13.282  10.933  1.00  0.00    -0.011 C 
HETATM   35  C1  UNL     1      -2.781 -14.317  11.287  1.00  0.00     0.009 C 
ENDBRANCH  27  34
ENDBRANCH   1  26
BRANCH   7  36
HETATM   36  N8  UNL     1      -2.471 -10.035   6.795  1.00  0.00    -0.234 N 
ATOM     37  H82 UNL     1      -2.146 -10.794   6.197  1.00  0.00     0.174 HD
ATOM     38  H81 UNL     1      -2.304  -9.080   6.478  1.00  0.00     0.174 HD
ENDBRANCH   7  36
TORSDOF 7
ENDMDL
MODEL 5
REMARK VINA RESULT: -7.201060656      1.528      6.684
REMARK  7 active torsions:
REMARK  status: ('A' for Active; 'I' for Inactive)
REMARK    1  A    between atoms: C2_2  and  C3_3 
REMARK    2  A    between atoms: N2_10  and  C8_11 
REMARK    3  A    between atoms: C9_14  and  N4_15 
REMARK    4  A    between atoms: C11_17  and  N5_18 
REMARK    5  A    between atoms: C13_23  and  N6_24 
REMARK    6  A    between atoms: C13_23  and  C14_28 
REMARK    7  A    between atoms: C17_33  and  N8_34 
ROOT
HETATM    1  C8  UNL     1      -3.005 -11.356   9.641  1.00  0.00     0.710 A 
HETATM    2  N3  UNL     1      -4.221 -10.861   9.563  1.00  0.00    -0.021 N 
ATOM      3  H3  UNL     1      -4.579 -10.330  10.356  1.00  0.00     0.203 HD
HETATM    4  C9  UNL     1      -5.030 -11.023   8.472  1.00  0.00     0.709 A 
HETATM    5  N7  UNL     1      -4.499 -11.730   7.463  1.00  0.00    -0.022 N 
ATOM      6  H7  UNL     1      -5.064 -11.878   6.627  1.00  0.00     0.203 HD
HETATM    7  C17 UNL     1      -3.254 -12.258   7.498  1.00  0.00     0.705 A 
HETATM    8  N9  UNL     1      -2.531 -12.055   8.596  1.00  0.00    -0.021 N 
ATOM      9  H9  UNL     1      -1.588 -12.442   8.646  1.00  0.00     0.203 HD
ENDROOT
BRANCH   4  10
HETATM   10  N4  UNL     1      -6.338 -10.478   8.416  1.00  0.00    -0.212 N 
HETATM   11  C10 UNL     1      -7.285 -11.120   7.526  1.00  0.00     0.174 C 
HETATM   12  C11 UNL     1      -8.670 -10.623   7.581  1.00  0.00     0.204 C 
HETATM   13  C12 UNL     1      -9.151 -10.213   8.939  1.00  0.00     0.074 C 
HETATM   14  C13 UNL     1      -8.148  -9.529   9.781  1.00  0.00     0.141 C 
HETATM   15  C16 UNL     1      -6.776  -9.355   9.171  1.00  0.00     0.180 C 
BRANCH  12  16
HETATM   16  N5  UNL     1      -8.878  -9.547   6.615  1.00  0.00    -0.073 N 
ATOM     17  H53 UNL     1      -8.212  -8.787   6.749  1.00  0.00     0.274 HD
ATOM     18  H52 UNL     1      -8.605  -9.828   5.673  1.00  0.00     0.274 HD
ATOM     19  H51 UNL     1      -9.842  -9.213   6.643  1.00  0.00     0.274 HD
ENDBRANCH  12  16
BRANCH  14  20
HETATM   20  N6  UNL     1      -7.943 -10.333  10.998  1.00  0.00    -0.069 N 
ATOM     21  H63 UNL     1      -8.260  -9.856  11.843  1.00  0.00     0.275 HD
ATOM     22  H62 UNL     1      -8.569 -11.136  11.049  1.00  0.00     0.275 HD
ATOM     23  H61 UNL     1      -6.959 -10.599  11.042  1.00  0.00     0.275 HD
ENDBRANCH  14  20
BRANCH  14  24
HETATM   24  C14 UNL     1      -8.690  -8.203  10.249  1.00  0.00     0.036 C 
HETATM   25  C15 UNL     1      -7.678  -7.101  10.239  1.00  0.00     0.007 C 
ENDBRANCH  14  24
ENDBRANCH   4  10
BRANCH   1  26
HETATM   26  N2  UNL     1      -2.145 -11.199  10.766  1.00  0.00    -0.207 N 
HETATM   27  C3  UNL     1      -2.383 -11.917  11.979  1.00  0.00     0.126 C 
HETATM   28  C4  UNL     1      -3.017 -10.899  12.938  1.00  0.00     0.049 C 
HETATM   29  C5  UNL     1      -2.093  -9.705  13.074  1.00  0.00     0.116 C 
HETATM   30  N1  UNL     1      -0.719 -10.040  13.024  1.00  0.00    -0.420 N 
HETATM   31  C6  UNL     1      -0.139 -10.292  11.757  1.00  0.00     0.134 C 
ATOM     32  H1  UNL     1      -0.161 -10.097  13.876  1.00  0.00     0.153 HD
HETATM   33  C7  UNL     1      -1.032 -10.252  10.577  1.00  0.00     0.161 C 
BRANCH  27  34
HETATM   34  C2  UNL     1      -3.172 -13.139  11.876  1.00  0.00    -0.011 C 
HETATM   35  C1  UNL     1      -2.803 -14.192  12.586  1.00  0.00     0.009 C 
ENDBRANCH  27  34
ENDBRANCH   1  26
BRANCH   7  36
HETATM   36  N8  UNL     1      -2.794 -12.930   6.501  1.00  0.00    -0.234 N 
ATOM     37  H82 UNL     1      -3.222 -13.806   6.204  1.00  0.00     0.174 HD
ATOM     38  H81 UNL     1      -1.982 -12.600   5.979  1.00  0.00     0.174 HD
ENDBRANCH   7  36
TORSDOF 7
ENDMDL
