MODEL 1
REMARK VINA RESULT: -7.357633610      0.000      0.000
REMARK  11 active torsions:
REMARK  status: ('A' for Active; 'I' for Inactive)
REMARK    1  A    between atoms: N1_2  and  C2_3 
REMARK    2  A    between atoms: N1_2  and  C23_33 
REMARK    3  A    between atoms: C2_3  and  C3_4 
REMARK    4  A    between atoms: C3_4  and  C4_5 
REMARK    5  A    between atoms: C4_5  and  N2_6 
REMARK    6  A    between atoms: C6_11  and  C8_13 
REMARK    7  A    between atoms: C11_17  and  O3_18 
REMARK    8  A    between atoms: C12_20  and  O4_21 
REMARK    9  A    between atoms: C14_24  and  C15_25 
REMARK   10  A    between atoms: C16_26  and  C17_27 
REMARK   11  A    between atoms: C23_33  and  C24_34 
ROOT
HETATM    1  N2  UNL     1      -5.299  12.181  18.026  1.00  0.00    -0.320 N 
HETATM    2  C5  UNL     1      -4.418  12.158  16.826  1.00  0.00     0.320 C 
HETATM    3  O1  UNL     1      -4.860  12.019  15.667  1.00  0.00    -0.247 OA
HETATM    4  N3  UNL     1      -3.086  12.319  17.233  1.00  0.00    -0.325 N 
ATOM      5  H3  UNL     1      -2.246  12.288  16.655  1.00  0.00     0.165 HD
HETATM    6  C6  UNL     1      -3.175  12.541  18.685  1.00  0.00     0.110 C 
HETATM    7  C7  UNL     1      -3.382  14.045  18.833  1.00  0.00     0.049 C 
HETATM    8  C9  UNL     1      -4.425  11.747  19.061  1.00  0.00     0.085 C 
HETATM    9  C10 UNL     1      -4.798  12.278  20.447  1.00  0.00     0.070 C 
HETATM   10  C11 UNL     1      -5.348  11.228  21.348  1.00  0.00     0.149 C 
HETATM   11  C12 UNL     1      -4.358  10.138  21.568  1.00  0.00     0.148 C 
HETATM   12  C13 UNL     1      -3.611   9.717  20.367  1.00  0.00     0.054 C 
HETATM   13  C14 UNL     1      -4.085  10.327  19.056  1.00  0.00     0.099 C 
ENDROOT
BRANCH   1  14
HETATM   14  C4  UNL     1      -6.653  12.607  17.803  1.00  0.00     0.130 C 
BRANCH  14  15
HETATM   15  C3  UNL     1      -7.698  11.790  18.544  1.00  0.00     0.050 C 
BRANCH  15  16
HETATM   16  C2  UNL     1      -8.531  12.651  19.460  1.00  0.00     0.273 C 
BRANCH  16  17
HETATM   17  N1  UNL     1      -9.494  11.747  20.172  1.00  0.00     0.092 N 
HETATM   18  C1  UNL     1     -10.639  11.535  19.247  1.00  0.00     0.310 C 
BRANCH  17  19
HETATM   19  C23 UNL     1      -8.843  10.406  20.175  1.00  0.00     0.388 C 
BRANCH  19  20
HETATM   20  C24 UNL     1      -8.753   9.706  21.466  1.00  0.00     0.413 C 
HETATM   21  F1  UNL     1      -7.994   8.612  21.592  1.00  0.00    -0.169 F 
HETATM   22  F2  UNL     1     -10.059   9.354  21.886  1.00  0.00    -0.169 F 
HETATM   23  F3  UNL     1      -8.371  10.630  22.460  1.00  0.00    -0.169 F 
ENDBRANCH  19  20
ENDBRANCH  17  19
ENDBRANCH  16  17
ENDBRANCH  15  16
ENDBRANCH  14  15
ENDBRANCH   1  14
BRANCH   6  24
HETATM   24  C8  UNL     1      -1.911  12.176  19.311  1.00  0.00     0.264 C 
HETATM   25  O2  UNL     1      -0.943  11.793  18.692  1.00  0.00    -0.304 OA
ENDBRANCH   6  24
BRANCH  13  26
HETATM   26  C15 UNL     1      -5.087   9.444  18.486  1.00  0.00    -0.099 C 
HETATM   27  C16 UNL     1      -5.899   8.677  18.116  1.00  0.00    -0.101 C 
BRANCH  27  28
HETATM   28  C17 UNL     1      -6.934   7.649  17.740  1.00  0.00     0.065 C 
HETATM   29  C18 UNL     1      -6.598   7.193  16.384  1.00  0.00     0.017 C 
HETATM   30  C19 UNL     1      -6.739   5.729  16.136  1.00  0.00     0.001 C 
HETATM   31  C20 UNL     1      -5.875   5.010  17.175  1.00  0.00     0.000 C 
HETATM   32  C21 UNL     1      -6.636   5.220  18.463  1.00  0.00     0.001 C 
HETATM   33  C22 UNL     1      -6.837   6.603  18.845  1.00  0.00     0.017 C 
ENDBRANCH  27  28
ENDBRANCH  13  26
BRANCH  10  34
HETATM   34  O3  UNL     1      -5.556  11.839  22.611  1.00  0.00    -0.393 OA
ATOM     35  H3  UNL     1      -6.257  12.470  22.498  1.00  0.00     0.210 HD
ENDBRANCH  10  34
BRANCH  11  36
HETATM   36  O4  UNL     1      -3.420  10.578  22.528  1.00  0.00    -0.393 OA
ATOM     37  H4  UNL     1      -2.567  10.236  22.289  1.00  0.00     0.210 HD
ENDBRANCH  11  36
TORSDOF 11
ENDMDL
MODEL 2
REMARK VINA RESULT: -7.347893904      3.146      3.884
REMARK  11 active torsions:
REMARK  status: ('A' for Active; 'I' for Inactive)
REMARK    1  A    between atoms: N1_2  and  C2_3 
REMARK    2  A    between atoms: N1_2  and  C23_33 
REMARK    3  A    between atoms: C2_3  and  C3_4 
REMARK    4  A    between atoms: C3_4  and  C4_5 
REMARK    5  A    between atoms: C4_5  and  N2_6 
REMARK    6  A    between atoms: C6_11  and  C8_13 
REMARK    7  A    between atoms: C11_17  and  O3_18 
REMARK    8  A    between atoms: C12_20  and  O4_21 
REMARK    9  A    between atoms: C14_24  and  C15_25 
REMARK   10  A    between atoms: C16_26  and  C17_27 
REMARK   11  A    between atoms: C23_33  and  C24_34 
ROOT
HETATM    1  N2  UNL     1      -5.037  12.433  20.236  1.00  0.00    -0.320 N 
HETATM    2  C5  UNL     1      -4.885  13.162  18.946  1.00  0.00     0.320 C 
HETATM    3  O1  UNL     1      -5.832  13.330  18.151  1.00  0.00    -0.247 OA
HETATM    4  N3  UNL     1      -3.558  13.595  18.819  1.00  0.00    -0.325 N 
ATOM      5  H3  UNL     1      -3.127  14.069  18.025  1.00  0.00     0.165 HD
HETATM    6  C6  UNL     1      -2.927  13.209  20.091  1.00  0.00     0.110 C 
HETATM    7  C7  UNL     1      -3.199  14.382  21.028  1.00  0.00     0.049 C 
HETATM    8  C9  UNL     1      -3.717  11.962  20.483  1.00  0.00     0.085 C 
HETATM    9  C10 UNL     1      -3.398  11.773  21.968  1.00  0.00     0.070 C 
HETATM   10  C11 UNL     1      -3.295  10.342  22.367  1.00  0.00     0.149 C 
HETATM   11  C12 UNL     1      -2.214   9.650  21.613  1.00  0.00     0.148 C 
HETATM   12  C13 UNL     1      -2.133   9.991  20.180  1.00  0.00     0.054 C 
HETATM   13  C14 UNL     1      -3.269  10.853  19.647  1.00  0.00     0.099 C 
ENDROOT
BRANCH   1  14
HETATM   14  C4  UNL     1      -6.356  12.430  20.805  1.00  0.00     0.130 C 
BRANCH  14  15
HETATM   15  C3  UNL     1      -6.653  13.615  21.708  1.00  0.00     0.050 C 
BRANCH  15  16
HETATM   16  C2  UNL     1      -6.762  13.199  23.153  1.00  0.00     0.273 C 
BRANCH  16  17
HETATM   17  N1  UNL     1      -6.017  14.214  23.970  1.00  0.00     0.092 N 
HETATM   18  C1  UNL     1      -6.994  14.778  24.939  1.00  0.00     0.310 C 
BRANCH  17  19
HETATM   19  C23 UNL     1      -5.120  13.419  24.858  1.00  0.00     0.388 C 
BRANCH  19  20
HETATM   20  C24 UNL     1      -3.784  13.970  25.130  1.00  0.00     0.413 C 
HETATM   21  F1  UNL     1      -2.722  13.162  25.216  1.00  0.00    -0.169 F 
HETATM   22  F2  UNL     1      -3.834  14.716  26.333  1.00  0.00    -0.169 F 
HETATM   23  F3  UNL     1      -3.503  14.975  24.180  1.00  0.00    -0.169 F 
ENDBRANCH  19  20
ENDBRANCH  17  19
ENDBRANCH  16  17
ENDBRANCH  15  16
ENDBRANCH  14  15
ENDBRANCH   1  14
BRANCH   6  24
HETATM   24  C8  UNL     1      -1.488  13.083  19.901  1.00  0.00     0.264 C 
HETATM   25  O2  UNL     1      -0.715  14.009  20.001  1.00  0.00    -0.304 OA
ENDBRANCH   6  24
BRANCH  13  26
HETATM   26  C15 UNL     1      -4.314   9.969  19.163  1.00  0.00    -0.099 C 
HETATM   27  C16 UNL     1      -5.229   9.334  18.781  1.00  0.00    -0.101 C 
BRANCH  27  28
HETATM   28  C17 UNL     1      -6.459   8.609  18.303  1.00  0.00     0.065 C 
HETATM   29  C18 UNL     1      -6.181   8.175  16.926  1.00  0.00     0.017 C 
HETATM   30  C19 UNL     1      -6.652   6.806  16.568  1.00  0.00     0.001 C 
HETATM   31  C20 UNL     1      -6.026   5.837  17.573  1.00  0.00     0.000 C 
HETATM   32  C21 UNL     1      -6.772   6.137  18.853  1.00  0.00     0.001 C 
HETATM   33  C22 UNL     1      -6.659   7.499  19.330  1.00  0.00     0.017 C 
ENDBRANCH  27  28
ENDBRANCH  13  26
BRANCH  10  34
HETATM   34  O3  UNL     1      -2.905  10.324  23.730  1.00  0.00    -0.393 OA
ATOM     35  H3  UNL     1      -3.503   9.736  24.179  1.00  0.00     0.210 HD
ENDBRANCH  10  34
BRANCH  11  36
HETATM   36  O4  UNL     1      -0.976   9.984  22.206  1.00  0.00    -0.393 OA
ATOM     37  H4  UNL     1      -0.418  10.364  21.538  1.00  0.00     0.210 HD
ENDBRANCH  11  36
TORSDOF 11
ENDMDL
MODEL 3
REMARK VINA RESULT: -7.208655342      3.273      4.152
REMARK  11 active torsions:
REMARK  status: ('A' for Active; 'I' for Inactive)
REMARK    1  A    between atoms: N1_2  and  C2_3 
REMARK    2  A    between atoms: N1_2  and  C23_33 
REMARK    3  A    between atoms: C2_3  and  C3_4 
REMARK    4  A    between atoms: C3_4  and  C4_5 
REMARK    5  A    between atoms: C4_5  and  N2_6 
REMARK    6  A    between atoms: C6_11  and  C8_13 
REMARK    7  A    between atoms: C11_17  and  O3_18 
REMARK    8  A    between atoms: C12_20  and  O4_21 
REMARK    9  A    between atoms: C14_24  and  C15_25 
REMARK   10  A    between atoms: C16_26  and  C17_27 
REMARK   11  A    between atoms: C23_33  and  C24_34 
ROOT
HETATM    1  N2  UNL     1      -4.658  12.422  20.379  1.00  0.00    -0.320 N 
HETATM    2  C5  UNL     1      -4.464  13.182  19.112  1.00  0.00     0.320 C 
HETATM    3  O1  UNL     1      -5.337  13.244  18.223  1.00  0.00    -0.247 OA
HETATM    4  N3  UNL     1      -3.194  13.775  19.125  1.00  0.00    -0.325 N 
ATOM      5  H3  UNL     1      -2.744  14.309  18.381  1.00  0.00     0.165 HD
HETATM    6  C6  UNL     1      -2.655  13.452  20.456  1.00  0.00     0.110 C 
HETATM    7  C7  UNL     1      -3.165  14.570  21.360  1.00  0.00     0.049 C 
HETATM    8  C9  UNL     1      -3.323  12.112  20.762  1.00  0.00     0.085 C 
HETATM    9  C10 UNL     1      -3.138  11.943  22.272  1.00  0.00     0.070 C 
HETATM   10  C11 UNL     1      -2.903  10.530  22.679  1.00  0.00     0.149 C 
HETATM   11  C12 UNL     1      -1.672   9.986  22.041  1.00  0.00     0.148 C 
HETATM   12  C13 UNL     1      -1.486  10.354  20.624  1.00  0.00     0.054 C 
HETATM   13  C14 UNL     1      -2.658  11.078  19.976  1.00  0.00     0.099 C 
ENDROOT
BRANCH   1  14
HETATM   14  C4  UNL     1      -6.018  12.250  20.806  1.00  0.00     0.130 C 
BRANCH  14  15
HETATM   15  C3  UNL     1      -6.566  13.400  21.635  1.00  0.00     0.050 C 
BRANCH  15  16
HETATM   16  C2  UNL     1      -6.698  13.024  23.089  1.00  0.00     0.273 C 
BRANCH  16  17
HETATM   17  N1  UNL     1      -6.024  14.096  23.894  1.00  0.00     0.092 N 
HETATM   18  C1  UNL     1      -7.075  14.708  24.749  1.00  0.00     0.310 C 
BRANCH  17  19
HETATM   19  C23 UNL     1      -5.192  13.367  24.895  1.00  0.00     0.388 C 
BRANCH  19  20
HETATM   20  C24 UNL     1      -3.956  14.024  25.346  1.00  0.00     0.413 C 
HETATM   21  F1  UNL     1      -2.867  13.300  25.626  1.00  0.00    -0.169 F 
HETATM   22  F2  UNL     1      -4.244  14.798  26.496  1.00  0.00    -0.169 F 
HETATM   23  F3  UNL     1      -3.601  15.020  24.411  1.00  0.00    -0.169 F 
ENDBRANCH  19  20
ENDBRANCH  17  19
ENDBRANCH  16  17
ENDBRANCH  15  16
ENDBRANCH  14  15
ENDBRANCH   1  14
BRANCH   6  24
HETATM   24  C8  UNL     1      -1.200  13.504  20.418  1.00  0.00     0.264 C 
HETATM   25  O2  UNL     1      -0.574  14.458  20.011  1.00  0.00    -0.304 OA
ENDBRANCH   6  24
BRANCH  13  26
HETATM   26  C15 UNL     1      -3.530  10.080  19.385  1.00  0.00    -0.099 C 
HETATM   27  C16 UNL     1      -4.291   9.351  18.860  1.00  0.00    -0.101 C 
BRANCH  27  28
HETATM   28  C17 UNL     1      -5.310   8.504  18.144  1.00  0.00     0.065 C 
HETATM   29  C18 UNL     1      -5.218   7.157  18.726  1.00  0.00     0.017 C 
HETATM   30  C19 UNL     1      -6.516   6.461  18.962  1.00  0.00     0.001 C 
HETATM   31  C20 UNL     1      -7.362   7.374  19.852  1.00  0.00     0.000 C 
HETATM   32  C21 UNL     1      -7.739   8.506  18.925  1.00  0.00     0.001 C 
HETATM   33  C22 UNL     1      -6.626   9.242  18.363  1.00  0.00     0.017 C 
ENDBRANCH  27  28
ENDBRANCH  13  26
BRANCH  10  34
HETATM   34  O3  UNL     1      -2.657  10.541  24.075  1.00  0.00    -0.393 OA
ATOM     35  H3  UNL     1      -2.184   9.742  24.276  1.00  0.00     0.210 HD
ENDBRANCH  10  34
BRANCH  11  36
HETATM   36  O4  UNL     1      -0.554  10.460  22.761  1.00  0.00    -0.393 OA
ATOM     37  H4  UNL     1       0.216  10.364  22.213  1.00  0.00     0.210 HD
ENDBRANCH  11  36
TORSDOF 11
ENDMDL
MODEL 4
REMARK VINA RESULT: -7.117825422      1.303      1.546
REMARK  11 active torsions:
REMARK  status: ('A' for Active; 'I' for Inactive)
REMARK    1  A    between atoms: N1_2  and  C2_3 
REMARK    2  A    between atoms: N1_2  and  C23_33 
REMARK    3  A    between atoms: C2_3  and  C3_4 
REMARK    4  A    between atoms: C3_4  and  C4_5 
REMARK    5  A    between atoms: C4_5  and  N2_6 
REMARK    6  A    between atoms: C6_11  and  C8_13 
REMARK    7  A    between atoms: C11_17  and  O3_18 
REMARK    8  A    between atoms: C12_20  and  O4_21 
REMARK    9  A    between atoms: C14_24  and  C15_25 
REMARK   10  A    between atoms: C16_26  and  C17_27 
REMARK   11  A    between atoms: C23_33  and  C24_34 
ROOT
HETATM    1  N2  UNL     1      -4.473  12.636  18.857  1.00  0.00    -0.320 N 
HETATM    2  C5  UNL     1      -3.747  12.715  17.559  1.00  0.00     0.320 C 
HETATM    3  O1  UNL     1      -4.335  12.815  16.463  1.00  0.00    -0.247 OA
HETATM    4  N3  UNL     1      -2.368  12.665  17.802  1.00  0.00    -0.325 N 
ATOM      5  H3  UNL     1      -1.611  12.640  17.118  1.00  0.00     0.165 HD
HETATM    6  C6  UNL     1      -2.258  12.655  19.270  1.00  0.00     0.110 C 
HETATM    7  C7  UNL     1      -2.254  14.128  19.665  1.00  0.00     0.049 C 
HETATM    8  C9  UNL     1      -3.546  11.948  19.689  1.00  0.00     0.085 C 
HETATM    9  C10 UNL     1      -3.685  12.283  21.176  1.00  0.00     0.070 C 
HETATM   10  C11 UNL     1      -4.254  11.164  21.977  1.00  0.00     0.149 C 
HETATM   11  C12 UNL     1      -3.391   9.953  21.897  1.00  0.00     0.148 C 
HETATM   12  C13 UNL     1      -2.849   9.657  20.558  1.00  0.00     0.054 C 
HETATM   13  C14 UNL     1      -3.392  10.521  19.427  1.00  0.00     0.099 C 
ENDROOT
BRANCH   1  14
HETATM   14  C4  UNL     1      -5.778  13.235  18.885  1.00  0.00     0.130 C 
BRANCH  14  15
HETATM   15  C3  UNL     1      -6.877  12.321  19.400  1.00  0.00     0.050 C 
BRANCH  15  16
HETATM   16  C2  UNL     1      -7.630  12.948  20.546  1.00  0.00     0.273 C 
BRANCH  16  17
HETATM   17  N1  UNL     1      -7.520  12.019  21.719  1.00  0.00     0.092 N 
HETATM   18  C1  UNL     1      -7.487  12.874  22.935  1.00  0.00     0.310 C 
BRANCH  17  19
HETATM   19  C23 UNL     1      -8.858  11.370  21.830  1.00  0.00     0.388 C 
BRANCH  19  20
HETATM   20  C24 UNL     1      -8.954   9.957  21.433  1.00  0.00     0.413 C 
HETATM   21  F1  UNL     1      -8.008   9.085  21.799  1.00  0.00    -0.169 F 
HETATM   22  F2  UNL     1      -9.060   9.885  20.023  1.00  0.00    -0.169 F 
HETATM   23  F3  UNL     1     -10.207   9.453  21.842  1.00  0.00    -0.169 F 
ENDBRANCH  19  20
ENDBRANCH  17  19
ENDBRANCH  16  17
ENDBRANCH  15  16
ENDBRANCH  14  15
ENDBRANCH   1  14
BRANCH   6  24
HETATM   24  C8  UNL     1      -0.986  12.060  19.658  1.00  0.00     0.264 C 
HETATM   25  O2  UNL     1      -0.181  12.608  20.378  1.00  0.00    -0.304 OA
ENDBRANCH   6  24
BRANCH  13  26
HETATM   26  C15 UNL     1      -4.556   9.854  18.873  1.00  0.00    -0.099 C 
HETATM   27  C16 UNL     1      -5.491   9.243  18.501  1.00  0.00    -0.101 C 
BRANCH  27  28
HETATM   28  C17 UNL     1      -6.673   8.396  18.109  1.00  0.00     0.065 C 
HETATM   29  C18 UNL     1      -6.420   7.935  16.736  1.00  0.00     0.017 C 
HETATM   30  C19 UNL     1      -6.784   6.517  16.449  1.00  0.00     0.001 C 
HETATM   31  C20 UNL     1      -6.029   5.645  17.456  1.00  0.00     0.000 C 
HETATM   32  C21 UNL     1      -6.740   5.929  18.759  1.00  0.00     0.001 C 
HETATM   33  C22 UNL     1      -6.726   7.314  19.182  1.00  0.00     0.017 C 
ENDBRANCH  27  28
ENDBRANCH  13  26
BRANCH  10  34
HETATM   34  O3  UNL     1      -4.235  11.580  23.332  1.00  0.00    -0.393 OA
ATOM     35  H3  UNL     1      -5.141  11.679  23.602  1.00  0.00     0.210 HD
ENDBRANCH  10  34
BRANCH  11  36
HETATM   36  O4  UNL     1      -2.300  10.128  22.776  1.00  0.00    -0.393 OA
ATOM     37  H4  UNL     1      -2.407  10.960  23.222  1.00  0.00     0.210 HD
ENDBRANCH  11  36
TORSDOF 11
ENDMDL
MODEL 5
REMARK VINA RESULT: -6.942450645      3.975      5.929
REMARK  11 active torsions:
REMARK  status: ('A' for Active; 'I' for Inactive)
REMARK    1  A    between atoms: N1_2  and  C2_3 
REMARK    2  A    between atoms: N1_2  and  C23_33 
REMARK    3  A    between atoms: C2_3  and  C3_4 
REMARK    4  A    between atoms: C3_4  and  C4_5 
REMARK    5  A    between atoms: C4_5  and  N2_6 
REMARK    6  A    between atoms: C6_11  and  C8_13 
REMARK    7  A    between atoms: C11_17  and  O3_18 
REMARK    8  A    between atoms: C12_20  and  O4_21 
REMARK    9  A    between atoms: C14_24  and  C15_25 
REMARK   10  A    between atoms: C16_26  and  C17_27 
REMARK   11  A    between atoms: C23_33  and  C24_34 
ROOT
HETATM    1  N2  UNL     1      -4.841  13.246  21.969  1.00  0.00    -0.320 N 
HETATM    2  C5  UNL     1      -6.220  13.738  21.697  1.00  0.00     0.320 C 
HETATM    3  O1  UNL     1      -7.229  13.252  22.248  1.00  0.00    -0.247 OA
HETATM    4  N3  UNL     1      -6.158  14.785  20.768  1.00  0.00    -0.325 N 
ATOM      5  H3  UNL     1      -6.934  15.289  20.338  1.00  0.00     0.165 HD
HETATM    6  C6  UNL     1      -4.717  14.994  20.553  1.00  0.00     0.110 C 
HETATM    7  C7  UNL     1      -4.301  15.968  21.650  1.00  0.00     0.049 C 
HETATM    8  C9  UNL     1      -4.147  13.594  20.776  1.00  0.00     0.085 C 
HETATM    9  C10 UNL     1      -2.649  13.833  20.981  1.00  0.00     0.070 C 
HETATM   10  C11 UNL     1      -1.800  12.757  20.400  1.00  0.00     0.149 C 
HETATM   11  C12 UNL     1      -2.011  12.643  18.930  1.00  0.00     0.148 C 
HETATM   12  C13 UNL     1      -3.414  12.751  18.488  1.00  0.00     0.054 C 
HETATM   13  C14 UNL     1      -4.451  12.782  19.602  1.00  0.00     0.099 C 
ENDROOT
BRANCH   1  14
HETATM   14  C4  UNL     1      -4.635  12.628  23.249  1.00  0.00     0.130 C 
BRANCH  14  15
HETATM   15  C3  UNL     1      -3.546  11.569  23.266  1.00  0.00     0.050 C 
BRANCH  15  16
HETATM   16  C2  UNL     1      -3.154  11.196  24.674  1.00  0.00     0.273 C 
BRANCH  16  17
HETATM   17  N1  UNL     1      -1.933  10.328  24.586  1.00  0.00     0.092 N 
HETATM   18  C1  UNL     1      -0.772  11.244  24.439  1.00  0.00     0.310 C 
BRANCH  17  19
HETATM   19  C23 UNL     1      -1.736   9.792  25.963  1.00  0.00     0.388 C 
BRANCH  19  20
HETATM   20  C24 UNL     1      -0.785   8.681  26.122  1.00  0.00     0.413 C 
HETATM   21  F1  UNL     1      -0.154   8.172  25.058  1.00  0.00    -0.169 F 
HETATM   22  F2  UNL     1      -1.443   7.605  26.765  1.00  0.00    -0.169 F 
HETATM   23  F3  UNL     1       0.183   9.042  27.083  1.00  0.00    -0.169 F 
ENDBRANCH  19  20
ENDBRANCH  17  19
ENDBRANCH  16  17
ENDBRANCH  15  16
ENDBRANCH  14  15
ENDBRANCH   1  14
BRANCH   6  24
HETATM   24  C8  UNL     1      -4.506  15.626  19.257  1.00  0.00     0.264 C 
HETATM   25  O2  UNL     1      -5.405  16.035  18.557  1.00  0.00    -0.304 OA
ENDBRANCH   6  24
BRANCH  13  26
HETATM   26  C15 UNL     1      -4.861  11.417  19.872  1.00  0.00    -0.099 C 
HETATM   27  C16 UNL     1      -5.091  10.284  20.096  1.00  0.00    -0.101 C 
BRANCH  27  28
HETATM   28  C17 UNL     1      -5.280   8.818  20.387  1.00  0.00     0.065 C 
HETATM   29  C18 UNL     1      -6.728   8.599  20.508  1.00  0.00     0.017 C 
HETATM   30  C19 UNL     1      -7.251   7.351  19.879  1.00  0.00     0.001 C 
HETATM   31  C20 UNL     1      -6.832   7.378  18.407  1.00  0.00     0.000 C 
HETATM   32  C21 UNL     1      -5.341   7.138  18.468  1.00  0.00     0.001 C 
HETATM   33  C22 UNL     1      -4.587   8.116  19.224  1.00  0.00     0.017 C 
ENDBRANCH  27  28
ENDBRANCH  13  26
BRANCH  10  34
HETATM   34  O3  UNL     1      -0.452  13.157  20.579  1.00  0.00    -0.393 OA
ATOM     35  H3  UNL     1       0.068  12.658  19.959  1.00  0.00     0.210 HD
ENDBRANCH  10  34
BRANCH  11  36
HETATM   36  O4  UNL     1      -1.278  13.669  18.296  1.00  0.00    -0.393 OA
ATOM     37  H4  UNL     1      -1.706  13.877  17.474  1.00  0.00     0.210 HD
ENDBRANCH  11  36
TORSDOF 11
ENDMDL
