MODEL 1
REMARK VINA RESULT: -6.614995165      0.000      0.000
REMARK  9 active torsions:
REMARK  status: ('A' for Active; 'I' for Inactive)
REMARK       I    between atoms: C2_4  and  N3_6 
REMARK    1  A    between atoms: C3_8  and  C4_9 
REMARK    2  A    between atoms: C3_8  and  N4_13 
REMARK    3  A    between atoms: C4_9  and  C5_10 
REMARK    4  A    between atoms: C5_10  and  O1_11 
REMARK    5  A    between atoms: N4_13  and  N5_15 
REMARK    6  A    between atoms: C7_17  and  C8_18 
REMARK    7  A    between atoms: C10_20  and  C11_21 
REMARK    8  A    between atoms: C11_21  and  N6_22 
REMARK    9  A    between atoms: C12_26  and  O2_27 
ROOT
HETATM    1  N5  UNL     1      -4.630   9.745  20.670  1.00  0.00    -0.310 N 
ATOM      2  H5  UNL     1      -3.869   9.260  20.194  1.00  0.00     0.186 HD
HETATM    3  C7  UNL     1      -5.765   9.547  20.188  1.00  0.00     0.120 C 
ENDROOT
BRANCH   1   4
HETATM    4  N4  UNL     1      -4.254  10.504  21.727  1.00  0.00    -0.289 N 
ATOM      5  H4  UNL     1      -4.902  11.207  22.081  1.00  0.00     0.188 HD
BRANCH   4   6
HETATM    6  C3  UNL     1      -2.990  10.358  22.360  1.00  0.00     0.100 C 
HETATM    7  N3  UNL     1      -2.864  10.491  23.614  1.00  0.00    -0.319 N 
HETATM    8  C2  UNL     1      -1.826  10.410  24.523  1.00  0.00     0.189 C 
ATOM      9  H3  UNL     1      -3.752  10.713  24.066  1.00  0.00     0.169 HD
HETATM   10  N1  UNL     1      -1.218   9.326  24.842  1.00  0.00    -0.369 N 
HETATM   11  N2  UNL     1      -1.450  11.652  25.173  1.00  0.00    -0.064 NA
HETATM   12  C1  UNL     1      -0.170   9.380  25.839  1.00  0.00     0.148 C 
ATOM     13  H1  UNL     1      -1.469   8.441  24.401  1.00  0.00     0.161 HD
BRANCH   6  14
HETATM   14  C4  UNL     1      -1.810  10.034  21.485  1.00  0.00     0.104 C 
BRANCH  14  15
HETATM   15  C5  UNL     1      -1.504  11.218  20.622  1.00  0.00     0.174 C 
BRANCH  15  16
HETATM   16  O1  UNL     1      -2.228  11.150  19.383  1.00  0.00    -0.396 OA
HETATM   17  C6  UNL     1      -2.577  12.493  19.096  1.00  0.00     0.201 C 
ENDBRANCH  15  16
ENDBRANCH  14  15
ENDBRANCH   6  14
ENDBRANCH   4   6
ENDBRANCH   1   4
BRANCH   3  18
HETATM   18  C8  UNL     1      -5.884   8.633  19.020  1.00  0.00     0.000 A 
HETATM   19  C9  UNL     1      -6.005   7.240  19.182  1.00  0.00     0.026 A 
HETATM   20  C10 UNL     1      -6.256   6.459  18.096  1.00  0.00     0.003 A 
HETATM   21  C12 UNL     1      -6.371   7.080  16.861  1.00  0.00     0.095 A 
HETATM   22  C14 UNL     1      -6.245   8.426  16.670  1.00  0.00     0.063 A 
HETATM   23 BR1  UNL     1      -6.413   9.198  14.928  1.00  0.00    -0.047 Br
HETATM   24  C15 UNL     1      -5.994   9.217  17.783  1.00  0.00     0.042 A 
HETATM   25 BR2  UNL     1      -5.795  11.111  17.499  1.00  0.00    -0.049 Br
BRANCH  20  26
HETATM   26  C11 UNL     1      -6.599   4.989  18.190  1.00  0.00     0.271 C 
BRANCH  26  27
HETATM   27  N6  UNL     1      -5.596   4.135  17.675  1.00  0.00    -0.075 N 
ATOM     28  H63 UNL     1      -4.679   4.396  18.039  1.00  0.00     0.274 HD
ATOM     29  H62 UNL     1      -5.679   3.200  18.074  1.00  0.00     0.274 HD
ATOM     30  H61 UNL     1      -5.576   4.090  16.656  1.00  0.00     0.274 HD
ENDBRANCH  26  27
ENDBRANCH  20  26
BRANCH  21  31
HETATM   31  O2  UNL     1      -6.632   6.216  15.779  1.00  0.00    -0.354 OA
HETATM   32  C13 UNL     1      -7.939   6.275  15.183  1.00  0.00     0.210 C 
ENDBRANCH  21  31
ENDBRANCH   3  18
TORSDOF 9
ENDMDL
MODEL 2
REMARK VINA RESULT: -6.530158221      1.749      2.783
REMARK  9 active torsions:
REMARK  status: ('A' for Active; 'I' for Inactive)
REMARK       I    between atoms: C2_4  and  N3_6 
REMARK    1  A    between atoms: C3_8  and  C4_9 
REMARK    2  A    between atoms: C3_8  and  N4_13 
REMARK    3  A    between atoms: C4_9  and  C5_10 
REMARK    4  A    between atoms: C5_10  and  O1_11 
REMARK    5  A    between atoms: N4_13  and  N5_15 
REMARK    6  A    between atoms: C7_17  and  C8_18 
REMARK    7  A    between atoms: C10_20  and  C11_21 
REMARK    8  A    between atoms: C11_21  and  N6_22 
REMARK    9  A    between atoms: C12_26  and  O2_27 
ROOT
HETATM    1  N5  UNL     1      -5.031   9.982  20.918  1.00  0.00    -0.310 N 
ATOM      2  H5  UNL     1      -4.216   9.535  20.496  1.00  0.00     0.186 HD
HETATM    3  C7  UNL     1      -6.121   9.720  20.367  1.00  0.00     0.120 C 
ENDROOT
BRANCH   1   4
HETATM    4  N4  UNL     1      -4.763  10.766  21.989  1.00  0.00    -0.289 N 
ATOM      5  H4  UNL     1      -5.523  10.999  22.629  1.00  0.00     0.188 HD
BRANCH   4   6
HETATM    6  C3  UNL     1      -3.464  11.276  22.256  1.00  0.00     0.100 C 
HETATM    7  N3  UNL     1      -2.503  11.078  21.453  1.00  0.00    -0.319 N 
HETATM    8  C2  UNL     1      -1.166  11.425  21.399  1.00  0.00     0.189 C 
ATOM      9  H3  UNL     1      -2.788  10.525  20.645  1.00  0.00     0.169 HD
HETATM   10  N1  UNL     1      -0.727  12.616  21.215  1.00  0.00    -0.369 N 
HETATM   11  N2  UNL     1      -0.219  10.330  21.521  1.00  0.00    -0.064 NA
HETATM   12  C1  UNL     1       0.702  12.831  21.142  1.00  0.00     0.148 C 
ATOM     13  H1  UNL     1      -1.374  13.398  21.121  1.00  0.00     0.161 HD
BRANCH   6  14
HETATM   14  C4  UNL     1      -3.275  12.065  23.523  1.00  0.00     0.104 C 
BRANCH  14  15
HETATM   15  C5  UNL     1      -3.186  11.117  24.678  1.00  0.00     0.174 C 
BRANCH  15  16
HETATM   16  O1  UNL     1      -2.534   9.897  24.288  1.00  0.00    -0.396 OA
HETATM   17  C6  UNL     1      -1.331   9.878  25.035  1.00  0.00     0.201 C 
ENDBRANCH  15  16
ENDBRANCH  14  15
ENDBRANCH   6  14
ENDBRANCH   4   6
ENDBRANCH   1   4
BRANCH   3  18
HETATM   18  C8  UNL     1      -6.116   8.795  19.203  1.00  0.00     0.000 A 
HETATM   19  C9  UNL     1      -6.199   7.400  19.368  1.00  0.00     0.026 A 
HETATM   20  C10 UNL     1      -6.338   6.602  18.274  1.00  0.00     0.003 A 
HETATM   21  C12 UNL     1      -6.381   7.210  17.028  1.00  0.00     0.095 A 
HETATM   22  C14 UNL     1      -6.289   8.558  16.834  1.00  0.00     0.063 A 
HETATM   23 BR1  UNL     1      -6.352   9.311  15.077  1.00  0.00    -0.047 Br
HETATM   24  C15 UNL     1      -6.154   9.366  17.955  1.00  0.00     0.042 A 
HETATM   25 BR2  UNL     1      -6.002  11.263  17.669  1.00  0.00    -0.049 Br
BRANCH  20  26
HETATM   26  C11 UNL     1      -6.633   5.122  18.356  1.00  0.00     0.271 C 
BRANCH  26  27
HETATM   27  N6  UNL     1      -5.639   4.308  17.763  1.00  0.00    -0.075 N 
ATOM     28  H63 UNL     1      -5.456   3.487  18.339  1.00  0.00     0.274 HD
ATOM     29  H62 UNL     1      -6.001   3.852  16.925  1.00  0.00     0.274 HD
ATOM     30  H61 UNL     1      -4.772   4.802  17.557  1.00  0.00     0.274 HD
ENDBRANCH  26  27
ENDBRANCH  20  26
BRANCH  21  31
HETATM   31  O2  UNL     1      -6.527   6.329  15.938  1.00  0.00    -0.354 OA
HETATM   32  C13 UNL     1      -7.789   6.329  15.249  1.00  0.00     0.210 C 
ENDBRANCH  21  31
ENDBRANCH   3  18
TORSDOF 9
ENDMDL
MODEL 3
REMARK VINA RESULT: -6.526673804      2.073      2.653
REMARK  9 active torsions:
REMARK  status: ('A' for Active; 'I' for Inactive)
REMARK       I    between atoms: C2_4  and  N3_6 
REMARK    1  A    between atoms: C3_8  and  C4_9 
REMARK    2  A    between atoms: C3_8  and  N4_13 
REMARK    3  A    between atoms: C4_9  and  C5_10 
REMARK    4  A    between atoms: C5_10  and  O1_11 
REMARK    5  A    between atoms: N4_13  and  N5_15 
REMARK    6  A    between atoms: C7_17  and  C8_18 
REMARK    7  A    between atoms: C10_20  and  C11_21 
REMARK    8  A    between atoms: C11_21  and  N6_22 
REMARK    9  A    between atoms: C12_26  and  O2_27 
ROOT
HETATM    1  N5  UNL     1      -4.419   9.528  21.206  1.00  0.00    -0.310 N 
ATOM      2  H5  UNL     1      -5.384   9.211  21.296  1.00  0.00     0.186 HD
HETATM    3  C7  UNL     1      -3.909   9.356  20.079  1.00  0.00     0.120 C 
ENDROOT
BRANCH   1   4
HETATM    4  N4  UNL     1      -3.888  10.072  22.328  1.00  0.00    -0.289 N 
ATOM      5  H4  UNL     1      -4.234   9.761  23.235  1.00  0.00     0.188 HD
BRANCH   4   6
HETATM    6  C3  UNL     1      -2.866  11.059  22.287  1.00  0.00     0.100 C 
HETATM    7  N3  UNL     1      -1.650  10.754  22.471  1.00  0.00    -0.319 N 
HETATM    8  C2  UNL     1      -0.446  11.434  22.490  1.00  0.00     0.189 C 
ATOM      9  H3  UNL     1      -1.529   9.757  22.649  1.00  0.00     0.169 HD
HETATM   10  N1  UNL     1       0.114  11.955  21.461  1.00  0.00    -0.369 N 
HETATM   11  N2  UNL     1       0.223  11.508  23.777  1.00  0.00    -0.064 NA
HETATM   12  C1  UNL     1       1.396  12.608  21.619  1.00  0.00     0.148 C 
ATOM     13  H1  UNL     1      -0.336  11.911  20.547  1.00  0.00     0.161 HD
BRANCH   6  14
HETATM   14  C4  UNL     1      -3.284  12.478  22.012  1.00  0.00     0.104 C 
BRANCH  14  15
HETATM   15  C5  UNL     1      -3.827  13.079  23.271  1.00  0.00     0.174 C 
BRANCH  15  16
HETATM   16  O1  UNL     1      -3.658  12.181  24.380  1.00  0.00    -0.396 OA
HETATM   17  C6  UNL     1      -3.099  12.979  25.408  1.00  0.00     0.201 C 
ENDBRANCH  15  16
ENDBRANCH  14  15
ENDBRANCH   6  14
ENDBRANCH   4   6
ENDBRANCH   1   4
BRANCH   3  18
HETATM   18  C8  UNL     1      -4.748   8.745  19.014  1.00  0.00     0.000 A 
HETATM   19  C9  UNL     1      -5.061   7.373  19.016  1.00  0.00     0.026 A 
HETATM   20  C10 UNL     1      -5.948   6.887  18.106  1.00  0.00     0.003 A 
HETATM   21  C12 UNL     1      -6.502   7.777  17.197  1.00  0.00     0.095 A 
HETATM   22  C14 UNL     1      -6.208   9.109  17.161  1.00  0.00     0.063 A 
HETATM   23 BR1  UNL     1      -7.015  10.265  15.868  1.00  0.00    -0.047 Br
HETATM   24  C15 UNL     1      -5.307   9.600  18.096  1.00  0.00     0.042 A 
HETATM   25 BR2  UNL     1      -4.882  11.476  18.021  1.00  0.00    -0.049 Br
BRANCH  20  26
HETATM   26  C11 UNL     1      -6.499   5.479  18.151  1.00  0.00     0.271 C 
BRANCH  26  27
HETATM   27  N6  UNL     1      -5.982   4.631  17.143  1.00  0.00    -0.075 N 
ATOM     28  H63 UNL     1      -5.091   4.986  16.796  1.00  0.00     0.274 HD
ATOM     29  H62 UNL     1      -5.670   3.746  17.543  1.00  0.00     0.274 HD
ATOM     30  H61 UNL     1      -6.628   4.469  16.371  1.00  0.00     0.274 HD
ENDBRANCH  26  27
ENDBRANCH  20  26
BRANCH  21  31
HETATM   31  O2  UNL     1      -7.412   7.210  16.284  1.00  0.00    -0.354 OA
HETATM   32  C13 UNL     1      -7.012   7.141  14.904  1.00  0.00     0.210 C 
ENDBRANCH  21  31
ENDBRANCH   3  18
TORSDOF 9
ENDMDL
MODEL 4
REMARK VINA RESULT: -6.388628043      2.499      2.972
REMARK  9 active torsions:
REMARK  status: ('A' for Active; 'I' for Inactive)
REMARK       I    between atoms: C2_4  and  N3_6 
REMARK    1  A    between atoms: C3_8  and  C4_9 
REMARK    2  A    between atoms: C3_8  and  N4_13 
REMARK    3  A    between atoms: C4_9  and  C5_10 
REMARK    4  A    between atoms: C5_10  and  O1_11 
REMARK    5  A    between atoms: N4_13  and  N5_15 
REMARK    6  A    between atoms: C7_17  and  C8_18 
REMARK    7  A    between atoms: C10_20  and  C11_21 
REMARK    8  A    between atoms: C11_21  and  N6_22 
REMARK    9  A    between atoms: C12_26  and  O2_27 
ROOT
HETATM    1  N5  UNL     1      -4.170   9.781  21.260  1.00  0.00    -0.310 N 
ATOM      2  H5  UNL     1      -5.076   9.345  21.430  1.00  0.00     0.186 HD
HETATM    3  C7  UNL     1      -3.760   9.706  20.084  1.00  0.00     0.120 C 
ENDROOT
BRANCH   1   4
HETATM    4  N4  UNL     1      -3.597  10.352  22.348  1.00  0.00    -0.289 N 
ATOM      5  H4  UNL     1      -2.901   9.821  22.871  1.00  0.00     0.188 HD
BRANCH   4   6
HETATM    6  C3  UNL     1      -3.929  11.663  22.785  1.00  0.00     0.100 C 
HETATM    7  N3  UNL     1      -4.776  11.852  23.708  1.00  0.00    -0.319 N 
HETATM    8  C2  UNL     1      -5.307  12.950  24.360  1.00  0.00     0.189 C 
ATOM      9  H3  UNL     1      -5.162  10.975  24.058  1.00  0.00     0.169 HD
HETATM   10  N1  UNL     1      -4.656  13.708  25.163  1.00  0.00    -0.369 N 
HETATM   11  N2  UNL     1      -6.717  13.208  24.127  1.00  0.00    -0.064 NA
HETATM   12  C1  UNL     1      -5.348  14.803  25.807  1.00  0.00     0.148 C 
ATOM     13  H1  UNL     1      -3.666  13.541  25.346  1.00  0.00     0.161 HD
BRANCH   6  14
HETATM   14  C4  UNL     1      -3.231  12.815  22.114  1.00  0.00     0.104 C 
BRANCH  14  15
HETATM   15  C5  UNL     1      -4.151  13.415  21.097  1.00  0.00     0.174 C 
BRANCH  15  16
HETATM   16  O1  UNL     1      -5.349  12.632  20.966  1.00  0.00    -0.396 OA
HETATM   17  C6  UNL     1      -6.334  13.552  20.529  1.00  0.00     0.201 C 
ENDBRANCH  15  16
ENDBRANCH  14  15
ENDBRANCH   6  14
ENDBRANCH   4   6
ENDBRANCH   1   4
BRANCH   3  18
HETATM   18  C8  UNL     1      -4.623   9.029  19.080  1.00  0.00     0.000 A 
HETATM   19  C9  UNL     1      -5.046   7.697  19.248  1.00  0.00     0.026 A 
HETATM   20  C10 UNL     1      -5.950   7.167  18.380  1.00  0.00     0.003 A 
HETATM   21  C12 UNL     1      -6.411   7.972  17.348  1.00  0.00     0.095 A 
HETATM   22  C14 UNL     1      -6.009   9.261  17.151  1.00  0.00     0.063 A 
HETATM   23 BR1  UNL     1      -6.692  10.298  15.695  1.00  0.00    -0.047 Br
HETATM   24  C15 UNL     1      -5.091   9.798  18.043  1.00  0.00     0.042 A 
HETATM   25 BR2  UNL     1      -4.513  11.609  17.741  1.00  0.00    -0.049 Br
BRANCH  20  26
HETATM   26  C11 UNL     1      -6.615   5.825  18.588  1.00  0.00     0.271 C 
BRANCH  26  27
HETATM   27  N6  UNL     1      -5.943   4.752  17.956  1.00  0.00    -0.075 N 
ATOM     28  H63 UNL     1      -6.504   4.375  17.192  1.00  0.00     0.274 HD
ATOM     29  H62 UNL     1      -5.140   5.092  17.427  1.00  0.00     0.274 HD
ATOM     30  H61 UNL     1      -5.663   4.008  18.595  1.00  0.00     0.274 HD
ENDBRANCH  26  27
ENDBRANCH  20  26
BRANCH  21  31
HETATM   31  O2  UNL     1      -7.345   7.364  16.487  1.00  0.00    -0.354 OA
HETATM   32  C13 UNL     1      -6.860   6.865  15.228  1.00  0.00     0.210 C 
ENDBRANCH  21  31
ENDBRANCH   3  18
TORSDOF 9
ENDMDL
MODEL 5
REMARK VINA RESULT: -6.371065161      2.525      3.583
REMARK  9 active torsions:
REMARK  status: ('A' for Active; 'I' for Inactive)
REMARK       I    between atoms: C2_4  and  N3_6 
REMARK    1  A    between atoms: C3_8  and  C4_9 
REMARK    2  A    between atoms: C3_8  and  N4_13 
REMARK    3  A    between atoms: C4_9  and  C5_10 
REMARK    4  A    between atoms: C5_10  and  O1_11 
REMARK    5  A    between atoms: N4_13  and  N5_15 
REMARK    6  A    between atoms: C7_17  and  C8_18 
REMARK    7  A    between atoms: C10_20  and  C11_21 
REMARK    8  A    between atoms: C11_21  and  N6_22 
REMARK    9  A    between atoms: C12_26  and  O2_27 
ROOT
HETATM    1  N5  UNL     1      -3.995   9.627  21.387  1.00  0.00    -0.310 N 
ATOM      2  H5  UNL     1      -4.863   9.121  21.562  1.00  0.00     0.186 HD
HETATM    3  C7  UNL     1      -3.657   9.697  20.187  1.00  0.00     0.120 C 
ENDROOT
BRANCH   1   4
HETATM    4  N4  UNL     1      -3.386  10.120  22.493  1.00  0.00    -0.289 N 
ATOM      5  H4  UNL     1      -2.686   9.548  22.963  1.00  0.00     0.188 HD
BRANCH   4   6
HETATM    6  C3  UNL     1      -3.688  11.404  23.021  1.00  0.00     0.100 C 
HETATM    7  N3  UNL     1      -4.858  11.885  22.951  1.00  0.00    -0.319 N 
HETATM    8  C2  UNL     1      -5.480  13.053  23.353  1.00  0.00     0.189 C 
ATOM      9  H3  UNL     1      -5.504  11.251  22.478  1.00  0.00     0.169 HD
HETATM   10  N1  UNL     1      -5.705  13.376  24.574  1.00  0.00    -0.369 N 
HETATM   11  N2  UNL     1      -5.932  13.932  22.290  1.00  0.00    -0.064 NA
HETATM   12  C1  UNL     1      -6.400  14.615  24.851  1.00  0.00     0.148 C 
ATOM     13  H1  UNL     1      -5.401  12.770  25.336  1.00  0.00     0.161 HD
BRANCH   6  14
HETATM   14  C4  UNL     1      -2.567  12.166  23.673  1.00  0.00     0.104 C 
BRANCH  14  15
HETATM   15  C5  UNL     1      -2.435  11.717  25.095  1.00  0.00     0.174 C 
BRANCH  15  16
HETATM   16  O1  UNL     1      -3.041  10.427  25.282  1.00  0.00    -0.396 OA
HETATM   17  C6  UNL     1      -2.318   9.841  26.349  1.00  0.00     0.201 C 
ENDBRANCH  15  16
ENDBRANCH  14  15
ENDBRANCH   6  14
ENDBRANCH   4   6
ENDBRANCH   1   4
BRANCH   3  18
HETATM   18  C8  UNL     1      -4.543   9.072  19.169  1.00  0.00     0.000 A 
HETATM   19  C9  UNL     1      -4.975   7.738  19.285  1.00  0.00     0.026 A 
HETATM   20  C10 UNL     1      -5.899   7.254  18.410  1.00  0.00     0.003 A 
HETATM   21  C12 UNL     1      -6.370   8.108  17.424  1.00  0.00     0.095 A 
HETATM   22  C14 UNL     1      -5.960   9.402  17.277  1.00  0.00     0.063 A 
HETATM   23 BR1  UNL     1      -6.660  10.508  15.882  1.00  0.00    -0.047 Br
HETATM   24  C15 UNL     1      -5.023   9.890  18.176  1.00  0.00     0.042 A 
HETATM   25 BR2  UNL     1      -4.434  11.709  17.946  1.00  0.00    -0.049 Br
BRANCH  20  26
HETATM   26  C11 UNL     1      -6.571   5.909  18.570  1.00  0.00     0.271 C 
BRANCH  26  27
HETATM   27  N6  UNL     1      -5.880   4.847  17.940  1.00  0.00    -0.075 N 
ATOM     28  H63 UNL     1      -4.873   4.949  18.066  1.00  0.00     0.274 HD
ATOM     29  H62 UNL     1      -6.029   3.973  18.444  1.00  0.00     0.274 HD
ATOM     30  H61 UNL     1      -6.108   4.736  16.952  1.00  0.00     0.274 HD
ENDBRANCH  26  27
ENDBRANCH  20  26
BRANCH  21  31
HETATM   31  O2  UNL     1      -7.324   7.547  16.553  1.00  0.00    -0.354 OA
HETATM   32  C13 UNL     1      -6.855   7.041  15.291  1.00  0.00     0.210 C 
ENDBRANCH  21  31
ENDBRANCH   3  18
TORSDOF 9
ENDMDL
