MODEL 1
REMARK VINA RESULT: -9.197899263      0.000      0.000
REMARK  7 active torsions:
REMARK  status: ('A' for Active; 'I' for Inactive)
REMARK    1  A    between atoms: O1_2  and  C2_3 
REMARK    2  A    between atoms: C4_5  and  C5_6 
REMARK    3  A    between atoms: C6_9  and  C7_10 
REMARK    4  A    between atoms: C7_10  and  N2_12 
REMARK    5  A    between atoms: C15_26  and  N6_27 
REMARK    6  A    between atoms: C18_32  and  C19_33 
REMARK    7  A    between atoms: C22_37  and  O2_38 
ROOT
HETATM    1  C19 UNL     1      -6.230   7.687  19.176  1.00  0.00     0.031 C 
HETATM    2  C20 UNL     1      -7.231   7.805  20.293  1.00  0.00     0.061 C 
HETATM    3  C21 UNL     1      -5.980   6.352  18.737  1.00  0.00     0.095 C 
HETATM    4  N7  UNL     1      -5.818   5.246  18.327  1.00  0.00    -0.192 NA
ENDROOT
BRANCH   1   5
HETATM    5  C18 UNL     1      -5.291   8.774  18.981  1.00  0.00     0.017 A 
HETATM    6  C17 UNL     1      -4.394   9.098  20.023  1.00  0.00     0.029 A 
HETATM    7  C4  UNL     1      -3.645  10.210  20.092  1.00  0.00    -0.003 A 
HETATM    8  C3  UNL     1      -3.775  11.096  19.018  1.00  0.00     0.053 A 
HETATM    9  C2  UNL     1      -4.594  10.899  17.944  1.00  0.00     0.103 A 
HETATM   10  C22 UNL     1      -5.358   9.696  17.963  1.00  0.00     0.113 A 
BRANCH   7  11
HETATM   11  C5  UNL     1      -2.772  10.653  21.160  1.00  0.00     0.077 A 
HETATM   12  N1  UNL     1      -3.067  10.497  22.487  1.00  0.00    -0.340 N 
HETATM   13  C6  UNL     1      -2.127  11.058  23.297  1.00  0.00     0.138 A 
ATOM     14  H1  UNL     1      -3.898  10.015  22.831  1.00  0.00     0.167 HD
HETATM   15  N3  UNL     1      -1.195  11.607  22.520  1.00  0.00    -0.235 N 
HETATM   16  N4  UNL     1      -0.105  12.291  22.760  1.00  0.00    -0.288 N 
HETATM   17  C16 UNL     1      -1.572  11.357  21.210  1.00  0.00     0.129 A 
HETATM   18  C14 UNL     1       0.668  12.760  21.789  1.00  0.00     0.199 A 
ATOM     19  H4  UNL     1       0.159  12.470  23.728  1.00  0.00     0.188 HD
HETATM   20  N5  UNL     1       0.365  12.548  20.519  1.00  0.00    -0.336 N 
HETATM   21  C15 UNL     1      -0.761  11.835  20.222  1.00  0.00     0.131 A 
ATOM     22  H5  UNL     1       0.962  12.911  19.776  1.00  0.00     0.168 HD
BRANCH  13  23
HETATM   23  C7  UNL     1      -2.196  10.952  24.781  1.00  0.00     0.287 C 
HETATM   24  C8  UNL     1      -3.716  11.059  25.126  1.00  0.00     0.051 C 
BRANCH  23  25
HETATM   25  N2  UNL     1      -1.743   9.683  25.352  1.00  0.00     0.100 N 
HETATM   26  C9  UNL     1      -2.423   9.608  26.654  1.00  0.00     0.279 C 
HETATM   27  C10 UNL     1      -2.063   8.427  27.476  1.00  0.00     0.109 C 
HETATM   28  C11 UNL     1      -0.761   7.778  27.130  1.00  0.00     0.246 C 
HETATM   29  F1  UNL     1      -0.208   7.266  28.325  1.00  0.00    -0.206 F 
HETATM   30  F2  UNL     1      -0.867   6.739  26.250  1.00  0.00    -0.206 F 
HETATM   31  C12 UNL     1       0.210   8.838  26.684  1.00  0.00     0.109 C 
HETATM   32  C13 UNL     1      -0.338   9.723  25.574  1.00  0.00     0.279 C 
ENDBRANCH  23  25
ENDBRANCH  13  23
BRANCH  21  33
HETATM   33  N6  UNL     1      -0.947  11.542  18.998  1.00  0.00    -0.383 N 
ATOM     34  H62 UNL     1      -0.386  11.954  18.253  1.00  0.00     0.157 HD
ATOM     35  H61 UNL     1      -1.749  10.949  18.784  1.00  0.00     0.157 HD
ENDBRANCH  21  33
ENDBRANCH   7  11
BRANCH   9  36
HETATM   36  O1  UNL     1      -4.735  11.719  16.832  1.00  0.00    -0.353 OA
HETATM   37  C1  UNL     1      -3.813  11.916  15.825  1.00  0.00     0.210 C 
ENDBRANCH   9  36
BRANCH  10  38
HETATM   38  O2  UNL     1      -6.151   9.515  16.862  1.00  0.00    -0.352 OA
HETATM   39  C23 UNL     1      -6.085   8.716  15.777  1.00  0.00     0.210 C 
ENDBRANCH  10  38
ENDBRANCH   1   5
TORSDOF 7
ENDMDL
MODEL 2
REMARK VINA RESULT: -9.150632334      1.918      2.447
REMARK  7 active torsions:
REMARK  status: ('A' for Active; 'I' for Inactive)
REMARK    1  A    between atoms: O1_2  and  C2_3 
REMARK    2  A    between atoms: C4_5  and  C5_6 
REMARK    3  A    between atoms: C6_9  and  C7_10 
REMARK    4  A    between atoms: C7_10  and  N2_12 
REMARK    5  A    between atoms: C15_26  and  N6_27 
REMARK    6  A    between atoms: C18_32  and  C19_33 
REMARK    7  A    between atoms: C22_37  and  O2_38 
ROOT
HETATM    1  C19 UNL     1      -6.013   8.105  18.421  1.00  0.00     0.031 C 
HETATM    2  C20 UNL     1      -5.419   6.799  18.876  1.00  0.00     0.061 C 
HETATM    3  C21 UNL     1      -6.100   8.258  17.004  1.00  0.00     0.095 C 
HETATM    4  N7  UNL     1      -6.233   8.362  15.826  1.00  0.00    -0.192 NA
ENDROOT
BRANCH   1   5
HETATM    5  C18 UNL     1      -5.987   9.226  19.340  1.00  0.00     0.017 A 
HETATM    6  C17 UNL     1      -4.790   9.515  20.031  1.00  0.00     0.029 A 
HETATM    7  C4  UNL     1      -4.673  10.350  21.076  1.00  0.00    -0.003 A 
HETATM    8  C3  UNL     1      -5.853  10.983  21.481  1.00  0.00     0.053 A 
HETATM    9  C2  UNL     1      -7.071  10.803  20.892  1.00  0.00     0.103 A 
HETATM   10  C22 UNL     1      -7.099   9.891  19.798  1.00  0.00     0.113 A 
BRANCH   7  11
HETATM   11  C5  UNL     1      -3.507  10.632  21.889  1.00  0.00     0.077 A 
HETATM   12  N1  UNL     1      -3.482  10.478  23.249  1.00  0.00    -0.340 N 
HETATM   13  C6  UNL     1      -2.300  10.876  23.795  1.00  0.00     0.138 A 
ATOM     14  H1  UNL     1      -4.262  10.107  23.792  1.00  0.00     0.167 HD
HETATM   15  N3  UNL     1      -1.522  11.312  22.805  1.00  0.00    -0.235 N 
HETATM   16  N4  UNL     1      -0.320  11.829  22.761  1.00  0.00    -0.288 N 
HETATM   17  C16 UNL     1      -2.244  11.158  21.634  1.00  0.00     0.129 A 
HETATM   18  C14 UNL     1       0.246  12.214  21.626  1.00  0.00     0.199 A 
ATOM     19  H4  UNL     1       0.200  11.939  23.632  1.00  0.00     0.188 HD
HETATM   20  N5  UNL     1      -0.390  12.087  20.473  1.00  0.00    -0.336 N 
HETATM   21  C15 UNL     1      -1.645  11.549  20.471  1.00  0.00     0.131 A 
ATOM     22  H5  UNL     1       0.049  12.385  19.602  1.00  0.00     0.168 HD
BRANCH  13  23
HETATM   23  C7  UNL     1      -2.012  10.735  25.249  1.00  0.00     0.287 C 
HETATM   24  C8  UNL     1      -3.377  11.001  25.961  1.00  0.00     0.051 C 
BRANCH  23  25
HETATM   25  N2  UNL     1      -1.583   9.407  25.689  1.00  0.00     0.100 N 
HETATM   26  C9  UNL     1      -2.328   9.179  26.936  1.00  0.00     0.279 C 
HETATM   27  C10 UNL     1      -2.004   7.909  27.630  1.00  0.00     0.109 C 
HETATM   28  C11 UNL     1      -0.683   7.303  27.277  1.00  0.00     0.246 C 
HETATM   29  F1  UNL     1      -0.189   6.653  28.429  1.00  0.00    -0.206 F 
HETATM   30  F2  UNL     1      -0.740   6.375  26.276  1.00  0.00    -0.206 F 
HETATM   31  C12 UNL     1       0.304   8.407  27.009  1.00  0.00     0.109 C 
HETATM   32  C13 UNL     1      -0.191   9.418  25.984  1.00  0.00     0.279 C 
ENDBRANCH  23  25
ENDBRANCH  13  23
BRANCH  21  33
HETATM   33  N6  UNL     1      -2.170  11.323  19.335  1.00  0.00    -0.383 N 
ATOM     34  H62 UNL     1      -1.744  10.686  18.661  1.00  0.00     0.157 HD
ATOM     35  H61 UNL     1      -2.986  11.882  19.086  1.00  0.00     0.157 HD
ENDBRANCH  21  33
ENDBRANCH   7  11
BRANCH   9  36
HETATM   36  O1  UNL     1      -8.264  11.432  21.221  1.00  0.00    -0.353 OA
HETATM   37  C1  UNL     1      -8.896  11.425  22.448  1.00  0.00     0.210 C 
ENDBRANCH   9  36
BRANCH  10  38
HETATM   38  O2  UNL     1      -8.329   9.750  19.214  1.00  0.00    -0.352 OA
HETATM   39  C23 UNL     1      -8.935  10.317  18.150  1.00  0.00     0.210 C 
ENDBRANCH  10  38
ENDBRANCH   1   5
TORSDOF 7
ENDMDL
MODEL 3
REMARK VINA RESULT: -8.628976626      2.082      2.737
REMARK  7 active torsions:
REMARK  status: ('A' for Active; 'I' for Inactive)
REMARK    1  A    between atoms: O1_2  and  C2_3 
REMARK    2  A    between atoms: C4_5  and  C5_6 
REMARK    3  A    between atoms: C6_9  and  C7_10 
REMARK    4  A    between atoms: C7_10  and  N2_12 
REMARK    5  A    between atoms: C15_26  and  N6_27 
REMARK    6  A    between atoms: C18_32  and  C19_33 
REMARK    7  A    between atoms: C22_37  and  O2_38 
ROOT
HETATM    1  C19 UNL     1      -8.147  11.010  20.329  1.00  0.00     0.031 C 
HETATM    2  C20 UNL     1      -7.969  12.478  20.052  1.00  0.00     0.061 C 
HETATM    3  C21 UNL     1      -9.370  10.670  20.983  1.00  0.00     0.095 C 
HETATM    4  N7  UNL     1     -10.415  10.378  21.471  1.00  0.00    -0.192 NA
ENDROOT
BRANCH   1   5
HETATM    5  C18 UNL     1      -6.963  10.174  20.377  1.00  0.00     0.017 A 
HETATM    6  C17 UNL     1      -5.904  10.538  21.237  1.00  0.00     0.029 A 
HETATM    7  C4  UNL     1      -4.667  10.017  21.217  1.00  0.00    -0.003 A 
HETATM    8  C3  UNL     1      -4.445   9.019  20.261  1.00  0.00     0.053 A 
HETATM    9  C2  UNL     1      -5.383   8.566  19.380  1.00  0.00     0.103 A 
HETATM   10  C22 UNL     1      -6.663   9.186  19.470  1.00  0.00     0.113 A 
BRANCH   7  11
HETATM   11  C5  UNL     1      -3.508  10.393  22.001  1.00  0.00     0.077 A 
HETATM   12  N1  UNL     1      -3.444  10.256  23.362  1.00  0.00    -0.340 N 
HETATM   13  C6  UNL     1      -2.284  10.745  23.879  1.00  0.00     0.138 A 
ATOM     14  H1  UNL     1      -4.183   9.835  23.925  1.00  0.00     0.167 HD
HETATM   15  N3  UNL     1      -1.560  11.227  22.869  1.00  0.00    -0.235 N 
HETATM   16  N4  UNL     1      -0.400  11.829  22.794  1.00  0.00    -0.288 N 
HETATM   17  C16 UNL     1      -2.293  11.007  21.714  1.00  0.00     0.129 A 
HETATM   18  C14 UNL     1       0.113  12.243  21.643  1.00  0.00     0.199 A 
ATOM     19  H4  UNL     1       0.128  11.987  23.652  1.00  0.00     0.188 HD
HETATM   20  N5  UNL     1      -0.536  12.056  20.506  1.00  0.00    -0.336 N 
HETATM   21  C15 UNL     1      -1.748  11.428  20.535  1.00  0.00     0.131 A 
ATOM     22  H5  UNL     1      -0.139  12.376  19.622  1.00  0.00     0.168 HD
BRANCH  13  23
HETATM   23  C7  UNL     1      -1.956  10.642  25.328  1.00  0.00     0.287 C 
HETATM   24  C8  UNL     1      -3.274  11.029  26.071  1.00  0.00     0.051 C 
BRANCH  23  25
HETATM   25  N2  UNL     1      -1.603   9.305  25.808  1.00  0.00     0.100 N 
HETATM   26  C9  UNL     1      -2.390   9.142  27.040  1.00  0.00     0.279 C 
HETATM   27  C10 UNL     1      -2.145   7.875  27.770  1.00  0.00     0.109 C 
HETATM   28  C11 UNL     1      -0.846   7.199  27.467  1.00  0.00     0.246 C 
HETATM   29  F1  UNL     1      -0.414   6.554  28.646  1.00  0.00    -0.206 F 
HETATM   30  F2  UNL     1      -0.921   6.252  26.485  1.00  0.00    -0.206 F 
HETATM   31  C12 UNL     1       0.199   8.249  27.201  1.00  0.00     0.109 C 
HETATM   32  C13 UNL     1      -0.220   9.258  26.141  1.00  0.00     0.279 C 
ENDBRANCH  23  25
ENDBRANCH  13  23
BRANCH  21  33
HETATM   33  N6  UNL     1      -2.278  11.152  19.413  1.00  0.00    -0.383 N 
ATOM     34  H62 UNL     1      -2.050  11.673  18.566  1.00  0.00     0.157 HD
ATOM     35  H61 UNL     1      -3.017  10.448  19.414  1.00  0.00     0.157 HD
ENDBRANCH  21  33
ENDBRANCH   7  11
BRANCH   9  36
HETATM   36  O1  UNL     1      -5.235   7.555  18.441  1.00  0.00    -0.353 OA
HETATM   37  C1  UNL     1      -5.470   6.208  18.628  1.00  0.00     0.210 C 
ENDBRANCH   9  36
BRANCH  10  38
HETATM   38  O2  UNL     1      -7.590   8.693  18.590  1.00  0.00    -0.352 OA
HETATM   39  C23 UNL     1      -8.020   9.072  17.368  1.00  0.00     0.210 C 
ENDBRANCH  10  38
ENDBRANCH   1   5
TORSDOF 7
ENDMDL
MODEL 4
REMARK VINA RESULT: -8.430725246      3.776      8.034
REMARK  7 active torsions:
REMARK  status: ('A' for Active; 'I' for Inactive)
REMARK    1  A    between atoms: O1_2  and  C2_3 
REMARK    2  A    between atoms: C4_5  and  C5_6 
REMARK    3  A    between atoms: C6_9  and  C7_10 
REMARK    4  A    between atoms: C7_10  and  N2_12 
REMARK    5  A    between atoms: C15_26  and  N6_27 
REMARK    6  A    between atoms: C18_32  and  C19_33 
REMARK    7  A    between atoms: C22_37  and  O2_38 
ROOT
HETATM    1  C19 UNL     1      -1.148  10.589  24.119  1.00  0.00     0.031 C 
HETATM    2  C20 UNL     1      -0.124   9.491  24.011  1.00  0.00     0.061 C 
HETATM    3  C21 UNL     1      -1.900  10.585  25.332  1.00  0.00     0.095 C 
HETATM    4  N7  UNL     1      -2.484  10.622  26.368  1.00  0.00    -0.192 NA
ENDROOT
BRANCH   1   5
HETATM    5  C18 UNL     1      -1.619  11.207  22.895  1.00  0.00     0.017 A 
HETATM    6  C17 UNL     1      -2.898  10.866  22.405  1.00  0.00     0.029 A 
HETATM    7  C4  UNL     1      -3.371  11.158  21.183  1.00  0.00    -0.003 A 
HETATM    8  C3  UNL     1      -2.503  11.878  20.354  1.00  0.00     0.053 A 
HETATM    9  C2  UNL     1      -1.249  12.281  20.708  1.00  0.00     0.103 A 
HETATM   10  C22 UNL     1      -0.830  11.916  22.020  1.00  0.00     0.113 A 
BRANCH   7  11
HETATM   11  C5  UNL     1      -4.629  10.771  20.577  1.00  0.00     0.077 A 
HETATM   12  N1  UNL     1      -4.715  10.036  19.425  1.00  0.00    -0.340 N 
HETATM   13  C6  UNL     1      -6.002   9.862  19.017  1.00  0.00     0.138 A 
ATOM     14  H1  UNL     1      -3.907   9.662  18.929  1.00  0.00     0.167 HD
HETATM   15  N3  UNL     1      -6.794  10.489  19.886  1.00  0.00    -0.235 N 
HETATM   16  N4  UNL     1      -8.088  10.671  19.962  1.00  0.00    -0.288 N 
HETATM   17  C16 UNL     1      -5.967  11.040  20.851  1.00  0.00     0.129 A 
HETATM   18  C14 UNL     1      -8.651  11.368  20.940  1.00  0.00     0.199 A 
ATOM     19  H4  UNL     1      -8.685  10.263  19.244  1.00  0.00     0.188 HD
HETATM   20  N5  UNL     1      -7.915  11.913  21.895  1.00  0.00    -0.336 N 
HETATM   21  C15 UNL     1      -6.560  11.745  21.858  1.00  0.00     0.131 A 
ATOM     22  H5  UNL     1      -8.351  12.449  22.645  1.00  0.00     0.168 HD
BRANCH  13  23
HETATM   23  C7  UNL     1      -6.350   9.035  17.828  1.00  0.00     0.287 C 
HETATM   24  C8  UNL     1      -5.452   9.584  16.674  1.00  0.00     0.051 C 
BRANCH  23  25
HETATM   25  N2  UNL     1      -6.043   7.608  17.931  1.00  0.00     0.100 N 
HETATM   26  C9  UNL     1      -6.548   7.036  16.674  1.00  0.00     0.279 C 
HETATM   27  C10 UNL     1      -6.421   5.562  16.568  1.00  0.00     0.109 C 
HETATM   28  C11 UNL     1      -6.282   4.834  17.866  1.00  0.00     0.246 C 
HETATM   29  F1  UNL     1      -6.914   3.579  17.722  1.00  0.00    -0.206 F 
HETATM   30  F2  UNL     1      -4.991   4.602  18.244  1.00  0.00    -0.206 F 
HETATM   31  C12 UNL     1      -7.090   5.549  18.915  1.00  0.00     0.109 C 
HETATM   32  C13 UNL     1      -6.762   7.032  19.016  1.00  0.00     0.279 C 
ENDBRANCH  23  25
ENDBRANCH  13  23
BRANCH  21  33
HETATM   33  N6  UNL     1      -5.902  12.171  22.859  1.00  0.00    -0.383 N 
ATOM     34  H62 UNL     1      -6.299  12.839  23.521  1.00  0.00     0.157 HD
ATOM     35  H61 UNL     1      -4.924  11.890  22.920  1.00  0.00     0.157 HD
ENDBRANCH  21  33
ENDBRANCH   7  11
BRANCH   9  36
HETATM   36  O1  UNL     1      -0.361  13.030  19.948  1.00  0.00    -0.353 OA
HETATM   37  C1  UNL     1      -0.574  14.288  19.423  1.00  0.00     0.210 C 
ENDBRANCH   9  36
BRANCH  10  38
HETATM   38  O2  UNL     1       0.423  12.355  22.354  1.00  0.00    -0.352 OA
HETATM   39  C23 UNL     1       0.975  13.573  22.530  1.00  0.00     0.210 C 
ENDBRANCH  10  38
ENDBRANCH   1   5
TORSDOF 7
ENDMDL
MODEL 5
REMARK VINA RESULT: -8.322752708      4.650      8.886
REMARK  7 active torsions:
REMARK  status: ('A' for Active; 'I' for Inactive)
REMARK    1  A    between atoms: O1_2  and  C2_3 
REMARK    2  A    between atoms: C4_5  and  C5_6 
REMARK    3  A    between atoms: C6_9  and  C7_10 
REMARK    4  A    between atoms: C7_10  and  N2_12 
REMARK    5  A    between atoms: C15_26  and  N6_27 
REMARK    6  A    between atoms: C18_32  and  C19_33 
REMARK    7  A    between atoms: C22_37  and  O2_38 
ROOT
HETATM    1  C19 UNL     1      -1.251  10.439  24.149  1.00  0.00     0.031 C 
HETATM    2  C20 UNL     1      -0.181   9.383  24.218  1.00  0.00     0.061 C 
HETATM    3  C21 UNL     1      -2.017  10.591  25.345  1.00  0.00     0.095 C 
HETATM    4  N7  UNL     1      -2.614  10.762  26.359  1.00  0.00    -0.192 NA
ENDROOT
BRANCH   1   5
HETATM    5  C18 UNL     1      -1.733  10.840  22.842  1.00  0.00     0.017 A 
HETATM    6  C17 UNL     1      -2.960  10.319  22.376  1.00  0.00     0.029 A 
HETATM    7  C4  UNL     1      -3.414  10.398  21.115  1.00  0.00    -0.003 A 
HETATM    8  C3  UNL     1      -2.586  11.075  20.214  1.00  0.00     0.053 A 
HETATM    9  C2  UNL     1      -1.384  11.637  20.536  1.00  0.00     0.103 A 
HETATM   10  C22 UNL     1      -0.980  11.493  21.895  1.00  0.00     0.113 A 
BRANCH   7  11
HETATM   11  C5  UNL     1      -4.612   9.818  20.541  1.00  0.00     0.077 A 
HETATM   12  N1  UNL     1      -4.590   8.843  19.580  1.00  0.00    -0.340 N 
HETATM   13  C6  UNL     1      -5.838   8.512  19.149  1.00  0.00     0.138 A 
ATOM     14  H1  UNL     1      -3.735   8.414  19.228  1.00  0.00     0.167 HD
HETATM   15  N3  UNL     1      -6.712   9.271  19.810  1.00  0.00    -0.235 N 
HETATM   16  N4  UNL     1      -8.014   9.394  19.770  1.00  0.00    -0.288 N 
HETATM   17  C16 UNL     1      -5.975  10.066  20.672  1.00  0.00     0.129 A 
HETATM   18  C14 UNL     1      -8.670  10.258  20.534  1.00  0.00     0.199 A 
ATOM     19  H4  UNL     1      -8.544   8.805  19.129  1.00  0.00     0.188 HD
HETATM   20  N5  UNL     1      -8.023  11.040  21.382  1.00  0.00    -0.336 N 
HETATM   21  C15 UNL     1      -6.663  10.943  21.460  1.00  0.00     0.131 A 
ATOM     22  H5  UNL     1      -8.531  11.704  21.967  1.00  0.00     0.168 HD
BRANCH  13  23
HETATM   23  C7  UNL     1      -6.071   7.425  18.158  1.00  0.00     0.287 C 
HETATM   24  C8  UNL     1      -6.708   6.258  18.978  1.00  0.00     0.051 C 
BRANCH  23  25
HETATM   25  N2  UNL     1      -7.024   7.730  17.089  1.00  0.00     0.100 N 
HETATM   26  C9  UNL     1      -7.222   6.445  16.403  1.00  0.00     0.279 C 
HETATM   27  C10 UNL     1      -8.103   6.507  15.211  1.00  0.00     0.109 C 
HETATM   28  C11 UNL     1      -8.255   7.861  14.594  1.00  0.00     0.246 C 
HETATM   29  F1  UNL     1      -8.411   7.681  13.203  1.00  0.00    -0.206 F 
HETATM   30  F2  UNL     1      -9.337   8.563  15.041  1.00  0.00    -0.206 F 
HETATM   31  C12 UNL     1      -6.958   8.611  14.739  1.00  0.00     0.109 C 
HETATM   32  C13 UNL     1      -6.447   8.653  16.172  1.00  0.00     0.279 C 
ENDBRANCH  23  25
ENDBRANCH  13  23
BRANCH  21  33
HETATM   33  N6  UNL     1      -6.092  11.615  22.377  1.00  0.00    -0.383 N 
ATOM     34  H62 UNL     1      -6.516  12.454  22.774  1.00  0.00     0.157 HD
ATOM     35  H61 UNL     1      -5.145  11.334  22.630  1.00  0.00     0.157 HD
ENDBRANCH  21  33
ENDBRANCH   7  11
BRANCH   9  36
HETATM   36  O1  UNL     1      -0.541  12.355  19.699  1.00  0.00    -0.353 OA
HETATM   37  C1  UNL     1      -0.853  13.492  18.984  1.00  0.00     0.210 C 
ENDBRANCH   9  36
BRANCH  10  38
HETATM   38  O2  UNL     1       0.217  12.087  22.193  1.00  0.00    -0.352 OA
HETATM   39  C23 UNL     1       0.622  13.366  22.330  1.00  0.00     0.210 C 
ENDBRANCH  10  38
ENDBRANCH   1   5
TORSDOF 7
ENDMDL
