MODEL 1
REMARK VINA RESULT: -6.735361477      0.000      0.000
REMARK  2 active torsions:
REMARK  status: ('A' for Active; 'I' for Inactive)
REMARK    1  A    between atoms: N1_1  and  C1_4 
REMARK    2  A    between atoms: C2_7  and  C3_8 
ROOT
HETATM    1  C3  UNL     1       7.330 -11.118  12.910  1.00  0.00     0.099 C 
HETATM    2  C4  UNL     1       7.466 -11.622  11.479  1.00  0.00     0.023 C 
HETATM    3  C5  UNL     1       8.469 -10.700  10.866  1.00  0.00     0.027 C 
HETATM    4  C6  UNL     1       9.745 -10.815  11.668  1.00  0.00     0.040 C 
HETATM    5  C7  UNL     1      10.618 -11.941  11.198  1.00  0.00     0.027 C 
HETATM    6  C8  UNL     1      11.267 -11.506   9.901  1.00  0.00     0.021 C 
HETATM    7  C9  UNL     1      12.127 -10.321  10.216  1.00  0.00     0.119 C 
HETATM    8  N3  UNL     1      11.361  -9.232  10.689  1.00  0.00    -0.401 N 
ATOM      9  H3  UNL     1      11.486  -8.293  10.312  1.00  0.00     0.158 HD
HETATM   10  C10 UNL     1      10.417  -9.494  11.702  1.00  0.00     0.076 C 
HETATM   11  S1  UNL     1       9.096 -11.138  13.349  1.00  0.00    -0.142 SA
ENDROOT
BRANCH   1  12
HETATM   12  C2  UNL     1       6.555 -12.100  13.742  1.00  0.00     0.031 A 
HETATM   13  N2  UNL     1       5.271 -11.955  13.996  1.00  0.00    -0.339 N 
HETATM   14  C1  UNL     1       4.674 -12.881  14.745  1.00  0.00     0.142 A 
ATOM     15  H2  UNL     1       4.750 -11.158  13.630  1.00  0.00     0.168 HD
HETATM   16  S2  UNL     1       5.921 -13.979  15.105  1.00  0.00    -0.064 SA
HETATM   17  C11 UNL     1       7.182 -13.195  14.267  1.00  0.00     0.079 A 
BRANCH  14  18
HETATM   18  N1  UNL     1       3.409 -12.921  15.110  1.00  0.00    -0.380 N 
ATOM     19  H12 UNL     1       2.987 -12.603  15.983  1.00  0.00     0.158 HD
ATOM     20  H11 UNL     1       2.620 -13.284  14.574  1.00  0.00     0.158 HD
ENDBRANCH  14  18
ENDBRANCH   1  12
TORSDOF 2
ENDMDL
MODEL 2
REMARK VINA RESULT: -6.696020484      1.965      2.406
REMARK  2 active torsions:
REMARK  status: ('A' for Active; 'I' for Inactive)
REMARK    1  A    between atoms: N1_1  and  C1_4 
REMARK    2  A    between atoms: C2_7  and  C3_8 
ROOT
HETATM    1  C3  UNL     1       8.803 -10.436  11.776  1.00  0.00     0.099 C 
HETATM    2  C4  UNL     1       9.117 -10.102  10.322  1.00  0.00     0.023 C 
HETATM    3  C5  UNL     1      10.539  -9.646  10.357  1.00  0.00     0.027 C 
HETATM    4  C6  UNL     1      11.371 -10.784  10.906  1.00  0.00     0.040 C 
HETATM    5  C7  UNL     1      11.794 -11.750   9.839  1.00  0.00     0.027 C 
HETATM    6  C8  UNL     1      12.902 -11.094   9.042  1.00  0.00     0.021 C 
HETATM    7  C9  UNL     1      14.047 -10.872   9.982  1.00  0.00     0.119 C 
HETATM    8  N3  UNL     1      13.700  -9.987  11.026  1.00  0.00    -0.401 N 
ATOM      9  H3  UNL     1      14.302  -9.204  11.279  1.00  0.00     0.158 HD
HETATM   10  C10 UNL     1      12.488 -10.226  11.704  1.00  0.00     0.076 C 
HETATM   11  S1  UNL     1      10.200 -11.562  12.078  1.00  0.00    -0.142 SA
ENDROOT
BRANCH   1  12
HETATM   12  C2  UNL     1       7.492 -11.162  11.876  1.00  0.00     0.031 A 
HETATM   13  N2  UNL     1       6.466 -10.682  12.548  1.00  0.00    -0.339 N 
HETATM   14  C1  UNL     1       5.346 -11.403  12.577  1.00  0.00     0.142 A 
ATOM     15  H2  UNL     1       6.527  -9.786  13.031  1.00  0.00     0.168 HD
HETATM   16  S2  UNL     1       5.723 -12.778  11.651  1.00  0.00    -0.064 SA
HETATM   17  C11 UNL     1       7.331 -12.369  11.255  1.00  0.00     0.079 A 
BRANCH  14  18
HETATM   18  N1  UNL     1       4.218 -11.103  13.187  1.00  0.00    -0.380 N 
ATOM     19  H12 UNL     1       4.019 -11.080  14.187  1.00  0.00     0.158 HD
ATOM     20  H11 UNL     1       3.331 -10.839  12.755  1.00  0.00     0.158 HD
ENDBRANCH  14  18
ENDBRANCH   1  12
TORSDOF 2
ENDMDL
MODEL 3
REMARK VINA RESULT: -6.569161471      2.252      2.590
REMARK  2 active torsions:
REMARK  status: ('A' for Active; 'I' for Inactive)
REMARK    1  A    between atoms: N1_1  and  C1_4 
REMARK    2  A    between atoms: C2_7  and  C3_8 
ROOT
HETATM    1  C3  UNL     1       8.766 -10.093  11.986  1.00  0.00     0.099 C 
HETATM    2  C4  UNL     1       9.019  -9.830  10.507  1.00  0.00     0.023 C 
HETATM    3  C5  UNL     1      10.471  -9.482  10.447  1.00  0.00     0.027 C 
HETATM    4  C6  UNL     1      11.246 -10.663  10.988  1.00  0.00     0.040 C 
HETATM    5  C7  UNL     1      11.534 -11.691   9.935  1.00  0.00     0.027 C 
HETATM    6  C8  UNL     1      12.639 -11.147   9.055  1.00  0.00     0.021 C 
HETATM    7  C9  UNL     1      13.850 -10.984   9.921  1.00  0.00     0.119 C 
HETATM    8  N3  UNL     1      13.630 -10.042  10.951  1.00  0.00    -0.401 N 
ATOM      9  H3  UNL     1      14.303  -9.300  11.142  1.00  0.00     0.158 HD
HETATM   10  C10 UNL     1      12.445 -10.167  11.703  1.00  0.00     0.076 C 
HETATM   11  S1  UNL     1      10.090 -11.313  12.250  1.00  0.00    -0.142 SA
ENDROOT
BRANCH   1  12
HETATM   12  C2  UNL     1       7.412 -10.714  12.185  1.00  0.00     0.031 A 
HETATM   13  N2  UNL     1       7.054 -11.837  11.597  1.00  0.00    -0.339 N 
HETATM   14  C1  UNL     1       5.831 -12.305  11.837  1.00  0.00     0.142 A 
ATOM     15  H2  UNL     1       7.695 -12.332  10.977  1.00  0.00     0.168 HD
HETATM   16  S2  UNL     1       5.159 -11.163  12.903  1.00  0.00    -0.064 SA
HETATM   17  C11 UNL     1       6.497 -10.110  13.001  1.00  0.00     0.079 A 
BRANCH  14  18
HETATM   18  N1  UNL     1       5.285 -13.402  11.353  1.00  0.00    -0.380 N 
ATOM     19  H12 UNL     1       5.742 -14.263  11.053  1.00  0.00     0.158 HD
ATOM     20  H11 UNL     1       4.294 -13.581  11.190  1.00  0.00     0.158 HD
ENDBRANCH  14  18
ENDBRANCH   1  12
TORSDOF 2
ENDMDL
MODEL 4
REMARK VINA RESULT: -6.562411796      1.350      1.557
REMARK  2 active torsions:
REMARK  status: ('A' for Active; 'I' for Inactive)
REMARK    1  A    between atoms: N1_1  and  C1_4 
REMARK    2  A    between atoms: C2_7  and  C3_8 
ROOT
HETATM    1  C3  UNL     1       5.900 -11.888  12.566  1.00  0.00     0.099 C 
HETATM    2  C4  UNL     1       6.752 -12.741  11.633  1.00  0.00     0.023 C 
HETATM    3  C5  UNL     1       7.376 -11.747  10.708  1.00  0.00     0.027 C 
HETATM    4  C6  UNL     1       8.184 -10.785  11.549  1.00  0.00     0.040 C 
HETATM    5  C7  UNL     1       9.574 -11.283  11.816  1.00  0.00     0.027 C 
HETATM    6  C8  UNL     1      10.373 -11.114  10.542  1.00  0.00     0.021 C 
HETATM    7  C9  UNL     1      10.430  -9.645  10.252  1.00  0.00     0.119 C 
HETATM    8  N3  UNL     1       9.143  -9.111  10.015  1.00  0.00    -0.401 N 
ATOM      9  H3  UNL     1       8.958  -8.513   9.210  1.00  0.00     0.158 HD
HETATM   10  C10 UNL     1       8.126  -9.438  10.934  1.00  0.00     0.076 C 
HETATM   11  S1  UNL     1       7.196 -10.722  13.089  1.00  0.00    -0.142 SA
ENDROOT
BRANCH   1  12
HETATM   12  C2  UNL     1       5.411 -12.709  13.726  1.00  0.00     0.031 A 
HETATM   13  N2  UNL     1       4.315 -12.409  14.393  1.00  0.00    -0.339 N 
HETATM   14  C1  UNL     1       3.966 -13.200  15.407  1.00  0.00     0.142 A 
ATOM     15  H2  UNL     1       3.752 -11.598  14.141  1.00  0.00     0.168 HD
HETATM   16  S2  UNL     1       5.184 -14.386  15.437  1.00  0.00    -0.064 SA
HETATM   17  C11 UNL     1       6.111 -13.813  14.125  1.00  0.00     0.079 A 
BRANCH  14  18
HETATM   18  N1  UNL     1       2.917 -13.075  16.193  1.00  0.00    -0.380 N 
ATOM     19  H12 UNL     1       2.188 -12.361  16.177  1.00  0.00     0.158 HD
ATOM     20  H11 UNL     1       2.647 -13.683  16.967  1.00  0.00     0.158 HD
ENDBRANCH  14  18
ENDBRANCH   1  12
TORSDOF 2
ENDMDL
MODEL 5
REMARK VINA RESULT: -6.529244773      1.173      1.386
REMARK  2 active torsions:
REMARK  status: ('A' for Active; 'I' for Inactive)
REMARK    1  A    between atoms: N1_1  and  C1_4 
REMARK    2  A    between atoms: C2_7  and  C3_8 
ROOT
HETATM    1  C3  UNL     1       8.198 -11.734  14.325  1.00  0.00     0.099 C 
HETATM    2  C4  UNL     1       7.771 -10.597  13.404  1.00  0.00     0.023 C 
HETATM    3  C5  UNL     1       9.059  -9.955  13.005  1.00  0.00     0.027 C 
HETATM    4  C6  UNL     1       9.899 -11.005  12.314  1.00  0.00     0.040 C 
HETATM    5  C7  UNL     1       9.595 -11.110  10.849  1.00  0.00     0.027 C 
HETATM    6  C8  UNL     1      10.218  -9.912  10.165  1.00  0.00     0.021 C 
HETATM    7  C9  UNL     1      11.700 -10.015  10.364  1.00  0.00     0.119 C 
HETATM    8  N3  UNL     1      12.047  -9.947  11.731  1.00  0.00    -0.401 N 
ATOM      9  H3  UNL     1      12.790  -9.330  12.059  1.00  0.00     0.158 HD
HETATM   10  C10 UNL     1      11.328 -10.765  12.625  1.00  0.00     0.076 C 
HETATM   11  S1  UNL     1       9.396 -12.522  13.206  1.00  0.00    -0.142 SA
ENDROOT
BRANCH   1  12
HETATM   12  C2  UNL     1       7.038 -12.646  14.605  1.00  0.00     0.031 A 
HETATM   13  N2  UNL     1       5.796 -12.212  14.679  1.00  0.00    -0.339 N 
HETATM   14  C1  UNL     1       4.838 -13.101  14.933  1.00  0.00     0.142 A 
ATOM     15  H2  UNL     1       5.577 -11.225  14.546  1.00  0.00     0.168 HD
HETATM   16  S2  UNL     1       5.675 -14.574  15.071  1.00  0.00    -0.064 SA
HETATM   17  C11 UNL     1       7.251 -13.983  14.794  1.00  0.00     0.079 A 
BRANCH  14  18
HETATM   18  N1  UNL     1       3.545 -12.873  15.046  1.00  0.00    -0.380 N 
ATOM     19  H12 UNL     1       2.984 -12.146  14.602  1.00  0.00     0.158 HD
ATOM     20  H11 UNL     1       2.871 -13.393  15.608  1.00  0.00     0.158 HD
ENDBRANCH  14  18
ENDBRANCH   1  12
TORSDOF 2
ENDMDL
