MODEL 1
REMARK VINA RESULT: -5.030489666      0.000      0.000
REMARK  2 active torsions:
REMARK  status: ('A' for Active; 'I' for Inactive)
REMARK    1  A    between atoms: C3_5  and  N2_6 
REMARK    2  A    between atoms: N6_16  and  N7_17 
ROOT
HETATM    1  C1  UNL     1      16.339   7.325  56.024  1.00  0.00     0.071 C 
HETATM    2  C2  UNL     1      16.376   8.067  54.755  1.00  0.00     0.049 C 
HETATM    3  N1  UNL     1      15.530   9.103  54.576  1.00  0.00    -0.194 N 
ATOM      4  H1  UNL     1      15.028   9.402  55.412  1.00  0.00     0.184 HD
HETATM    5  C3  UNL     1      15.246   9.807  53.448  1.00  0.00     0.677 C 
HETATM    6  N3  UNL     1      15.482   9.402  52.187  1.00  0.00    -0.173 N 
ATOM      7  H3  UNL     1      14.840   9.768  51.484  1.00  0.00     0.186 HD
HETATM    8  C4  UNL     1      16.452   8.577  51.714  1.00  0.00     0.169 A 
HETATM    9  N4  UNL     1      16.788   8.398  50.429  1.00  0.00    -0.267 N 
ATOM     10  H4  UNL     1      16.367   8.853  49.619  1.00  0.00     0.190 HD
HETATM   11  N5  UNL     1      17.763   7.522  50.417  1.00  0.00    -0.220 N 
ATOM     12  H5  UNL     1      18.222   7.190  49.569  1.00  0.00     0.210 HD
HETATM   13  N6  UNL     1      18.080   7.123  51.629  1.00  0.00    -0.183 N 
HETATM   14  C5  UNL     1      17.272   7.767  52.468  1.00  0.00     0.147 A 
HETATM   15  C6  UNL     1      17.308   7.603  53.856  1.00  0.00     0.103 C 
HETATM   16  N8  UNL     1      18.401   6.892  54.389  1.00  0.00    -0.098 NA
ENDROOT
BRANCH   5  17
HETATM   17  N2  UNL     1      14.700  10.971  53.608  1.00  0.00    -0.234 N 
ATOM     18  H22 UNL     1      13.884  11.027  54.218  1.00  0.00     0.174 HD
ATOM     19  H21 UNL     1      15.127  11.752  53.110  1.00  0.00     0.174 HD
ENDBRANCH   5  17
BRANCH  13  20
HETATM   20  N7  UNL     1      19.069   6.197  52.014  1.00  0.00    -0.322 N 
ATOM     21  H72 UNL     1      19.011   5.188  51.873  1.00  0.00     0.179 HD
ATOM     22  H71 UNL     1      19.962   6.378  52.473  1.00  0.00     0.179 HD
ENDBRANCH  13  20
TORSDOF 2
ENDMDL
MODEL 2
REMARK VINA RESULT: -4.933823300      1.384      3.727
REMARK  2 active torsions:
REMARK  status: ('A' for Active; 'I' for Inactive)
REMARK    1  A    between atoms: C3_5  and  N2_6 
REMARK    2  A    between atoms: N6_16  and  N7_17 
ROOT
HETATM    1  C1  UNL     1      19.925   6.945  51.980  1.00  0.00     0.071 C 
HETATM    2  C2  UNL     1      18.505   7.310  51.866  1.00  0.00     0.049 C 
HETATM    3  N1  UNL     1      17.962   7.457  50.640  1.00  0.00    -0.194 N 
ATOM      4  H1  UNL     1      18.546   7.140  49.866  1.00  0.00     0.184 HD
HETATM    5  C3  UNL     1      16.752   7.963  50.281  1.00  0.00     0.677 C 
HETATM    6  N3  UNL     1      15.973   8.753  51.041  1.00  0.00    -0.173 N 
ATOM      7  H3  UNL     1      15.379   9.404  50.527  1.00  0.00     0.186 HD
HETATM    8  C4  UNL     1      15.862   8.810  52.394  1.00  0.00     0.169 A 
HETATM    9  N4  UNL     1      14.905   9.441  53.088  1.00  0.00    -0.267 N 
ATOM     10  H4  UNL     1      14.121   9.968  52.705  1.00  0.00     0.190 HD
HETATM   11  N5  UNL     1      15.174   9.246  54.356  1.00  0.00    -0.220 N 
ATOM     12  H5  UNL     1      14.611   9.613  55.123  1.00  0.00     0.210 HD
HETATM   13  N6  UNL     1      16.259   8.520  54.522  1.00  0.00    -0.183 N 
HETATM   14  C5  UNL     1      16.716   8.231  53.306  1.00  0.00     0.147 A 
HETATM   15  C6  UNL     1      17.864   7.467  53.073  1.00  0.00     0.103 C 
HETATM   16  N8  UNL     1      18.421   6.794  54.177  1.00  0.00    -0.098 NA
ENDROOT
BRANCH   5  17
HETATM   17  N2  UNL     1      16.316   7.654  49.100  1.00  0.00    -0.234 N 
ATOM     18  H22 UNL     1      16.030   6.688  48.944  1.00  0.00     0.174 HD
ATOM     19  H21 UNL     1      16.292   8.403  48.408  1.00  0.00     0.174 HD
ENDBRANCH   5  17
BRANCH  13  20
HETATM   20  N7  UNL     1      16.857   8.106  55.728  1.00  0.00    -0.322 N 
ATOM     21  H72 UNL     1      16.754   8.582  56.625  1.00  0.00     0.179 HD
ATOM     22  H71 UNL     1      17.461   7.301  55.891  1.00  0.00     0.179 HD
ENDBRANCH  13  20
TORSDOF 2
ENDMDL
MODEL 3
REMARK VINA RESULT: -4.742402355      1.195      3.131
REMARK  2 active torsions:
REMARK  status: ('A' for Active; 'I' for Inactive)
REMARK    1  A    between atoms: C3_5  and  N2_6 
REMARK    2  A    between atoms: N6_16  and  N7_17 
ROOT
HETATM    1  C1  UNL     1      14.923  10.056  53.816  1.00  0.00     0.071 C 
HETATM    2  C2  UNL     1      15.866   8.929  53.838  1.00  0.00     0.049 C 
HETATM    3  N1  UNL     1      16.320   8.476  55.026  1.00  0.00    -0.194 N 
ATOM      4  H1  UNL     1      15.841   8.852  55.845  1.00  0.00     0.184 HD
HETATM    5  C3  UNL     1      17.319   7.594  55.295  1.00  0.00     0.677 C 
HETATM    6  N3  UNL     1      18.308   7.245  54.453  1.00  0.00    -0.173 N 
ATOM      7  H3  UNL     1      19.186   6.977  54.899  1.00  0.00     0.186 HD
HETATM    8  C4  UNL     1      18.309   7.196  53.096  1.00  0.00     0.169 A 
HETATM    9  N4  UNL     1      19.235   6.617  52.320  1.00  0.00    -0.267 N 
ATOM     10  H4  UNL     1      20.073   6.128  52.633  1.00  0.00     0.190 HD
HETATM   11  N5  UNL     1      18.852   6.802  51.080  1.00  0.00    -0.220 N 
ATOM     12  H5  UNL     1      19.368   6.467  50.267  1.00  0.00     0.210 HD
HETATM   13  N6  UNL     1      17.723   7.473  51.010  1.00  0.00    -0.183 N 
HETATM   14  C5  UNL     1      17.355   7.737  52.261  1.00  0.00     0.147 A 
HETATM   15  C6  UNL     1      16.194   8.441  52.594  1.00  0.00     0.103 C 
HETATM   16  N8  UNL     1      15.269   8.678  51.559  1.00  0.00    -0.098 NA
ENDROOT
BRANCH   5  17
HETATM   17  N2  UNL     1      17.312   7.044  56.469  1.00  0.00    -0.234 N 
ATOM     18  H22 UNL     1      17.607   6.069  56.531  1.00  0.00     0.174 HD
ATOM     19  H21 UNL     1      17.010   7.627  57.249  1.00  0.00     0.174 HD
ENDBRANCH   5  17
BRANCH  13  20
HETATM   20  N7  UNL     1      17.006   7.860  49.860  1.00  0.00    -0.322 N 
ATOM     21  H72 UNL     1      17.381   8.434  49.104  1.00  0.00     0.179 HD
ATOM     22  H71 UNL     1      16.043   7.639  49.610  1.00  0.00     0.179 HD
ENDBRANCH  13  20
TORSDOF 2
ENDMDL
MODEL 4
REMARK VINA RESULT: -4.655848025      2.352      3.706
REMARK  2 active torsions:
REMARK  status: ('A' for Active; 'I' for Inactive)
REMARK    1  A    between atoms: C3_5  and  N2_6 
REMARK    2  A    between atoms: N6_16  and  N7_17 
ROOT
HETATM    1  C1  UNL     1      16.973   8.519  54.502  1.00  0.00     0.071 C 
HETATM    2  C2  UNL     1      17.763   8.312  53.279  1.00  0.00     0.049 C 
HETATM    3  N1  UNL     1      17.126   7.992  52.133  1.00  0.00    -0.194 N 
ATOM      4  H1  UNL     1      16.110   8.076  52.164  1.00  0.00     0.184 HD
HETATM    5  C3  UNL     1      17.635   7.574  50.944  1.00  0.00     0.677 C 
HETATM    6  N3  UNL     1      18.860   7.050  50.753  1.00  0.00    -0.173 N 
ATOM      7  H3  UNL     1      18.935   6.386  49.982  1.00  0.00     0.186 HD
HETATM    8  C4  UNL     1      20.011   7.276  51.438  1.00  0.00     0.169 A 
HETATM    9  N4  UNL     1      21.245   6.916  51.062  1.00  0.00    -0.267 N 
ATOM     10  H4  UNL     1      21.502   6.421  50.208  1.00  0.00     0.190 HD
HETATM   11  N5  UNL     1      22.058   7.325  52.006  1.00  0.00    -0.220 N 
ATOM     12  H5  UNL     1      23.068   7.187  51.989  1.00  0.00     0.210 HD
HETATM   13  N6  UNL     1      21.414   7.933  52.978  1.00  0.00    -0.183 N 
HETATM   14  C5  UNL     1      20.124   7.918  52.652  1.00  0.00     0.147 A 
HETATM   15  C6  UNL     1      19.118   8.477  53.447  1.00  0.00     0.103 C 
HETATM   16  N8  UNL     1      19.529   9.283  54.526  1.00  0.00    -0.098 NA
ENDROOT
BRANCH   5  17
HETATM   17  N2  UNL     1      16.869   7.693  49.906  1.00  0.00    -0.234 N 
ATOM     18  H22 UNL     1      16.289   8.529  49.844  1.00  0.00     0.174 HD
ATOM     19  H21 UNL     1      16.901   6.937  49.221  1.00  0.00     0.174 HD
ENDBRANCH   5  17
BRANCH  13  20
HETATM   20  N7  UNL     1      21.942   8.503  54.153  1.00  0.00    -0.322 N 
ATOM     21  H72 UNL     1      21.521   8.425  55.080  1.00  0.00     0.179 HD
ATOM     22  H71 UNL     1      22.791   9.058  54.262  1.00  0.00     0.179 HD
ENDBRANCH  13  20
TORSDOF 2
ENDMDL
MODEL 5
REMARK VINA RESULT: -4.432519664      1.339      3.218
REMARK  2 active torsions:
REMARK  status: ('A' for Active; 'I' for Inactive)
REMARK    1  A    between atoms: C3_5  and  N2_6 
REMARK    2  A    between atoms: N6_16  and  N7_17 
ROOT
HETATM    1  C1  UNL     1      16.288  11.432  53.108  1.00  0.00     0.071 C 
HETATM    2  C2  UNL     1      16.707  10.094  53.549  1.00  0.00     0.049 C 
HETATM    3  N1  UNL     1      16.882   9.862  54.867  1.00  0.00    -0.194 N 
ATOM      4  H1  UNL     1      16.548  10.601  55.485  1.00  0.00     0.184 HD
HETATM    5  C3  UNL     1      17.436   8.790  55.494  1.00  0.00     0.677 C 
HETATM    6  N3  UNL     1      18.250   7.881  54.928  1.00  0.00    -0.173 N 
ATOM      7  H3  UNL     1      18.926   7.449  55.558  1.00  0.00     0.186 HD
HETATM    8  C4  UNL     1      18.303   7.455  53.639  1.00  0.00     0.169 A 
HETATM    9  N4  UNL     1      18.965   6.384  53.181  1.00  0.00    -0.267 N 
ATOM     10  H4  UNL     1      19.524   5.732  53.730  1.00  0.00     0.190 HD
HETATM   11  N5  UNL     1      18.752   6.338  51.888  1.00  0.00    -0.220 N 
ATOM     12  H5  UNL     1      19.136   5.623  51.271  1.00  0.00     0.210 HD
HETATM   13  N6  UNL     1      17.985   7.326  51.482  1.00  0.00    -0.183 N 
HETATM   14  C5  UNL     1      17.686   8.048  52.559  1.00  0.00     0.147 A 
HETATM   15  C6  UNL     1      16.881   9.191  52.526  1.00  0.00     0.103 C 
HETATM   16  N8  UNL     1      16.181   9.447  51.331  1.00  0.00    -0.098 NA
ENDROOT
BRANCH   5  17
HETATM   17  N2  UNL     1      17.150   8.635  56.749  1.00  0.00    -0.234 N 
ATOM     18  H22 UNL     1      16.505   7.884  56.994  1.00  0.00     0.174 HD
ATOM     19  H21 UNL     1      17.593   9.280  57.404  1.00  0.00     0.174 HD
ENDBRANCH   5  17
BRANCH  13  20
HETATM   20  N7  UNL     1      17.542   7.607  50.174  1.00  0.00    -0.322 N 
ATOM     21  H72 UNL     1      18.117   7.538  49.335  1.00  0.00     0.179 HD
ATOM     22  H71 UNL     1      16.616   7.911  49.871  1.00  0.00     0.179 HD
ENDBRANCH  13  20
TORSDOF 2
ENDMDL
