MODEL 1
REMARK VINA RESULT: -5.302464323      0.000      0.000
REMARK  4 active torsions:
REMARK  status: ('A' for Active; 'I' for Inactive)
REMARK    1  A    between atoms: N1_1  and  C1_4 
REMARK    2  A    between atoms: C3_11  and  N4_12 
REMARK    3  A    between atoms: N4_12  and  N5_14 
REMARK    4  A    between atoms: N7_18  and  N8_19 
ROOT
HETATM    1  C1  UNL     1      16.256   8.742  52.531  1.00  0.00     0.694 A 
HETATM    2  N2  UNL     1      15.842   8.703  51.216  1.00  0.00    -0.141 N 
ATOM      3  H2  UNL     1      15.011   9.230  50.948  1.00  0.00     0.189 HD
HETATM    4  C2  UNL     1      16.484   8.004  50.281  1.00  0.00     0.352 A 
HETATM    5  O1  UNL     1      16.082   7.986  49.086  1.00  0.00    -0.246 OA
HETATM    6  N3  UNL     1      17.577   7.304  50.613  1.00  0.00    -0.139 N 
ATOM      7  H3  UNL     1      18.065   6.770  49.895  1.00  0.00     0.189 HD
HETATM    8  C3  UNL     1      18.041   7.292  51.864  1.00  0.00     0.718 A 
HETATM    9  N9  UNL     1      17.382   7.998  52.778  1.00  0.00    -0.021 N 
ATOM     10  H9  UNL     1      17.740   7.987  53.733  1.00  0.00     0.203 HD
ENDROOT
BRANCH   8  11
HETATM   11  N4  UNL     1      19.110   6.593  52.150  1.00  0.00    -0.093 N 
ATOM     12  H4  UNL     1      19.093   5.573  52.161  1.00  0.00     0.209 HD
BRANCH  11  13
HETATM   13  N5  UNL     1      20.272   7.302  52.440  1.00  0.00    -0.093 N 
HETATM   14  N6  UNL     1      20.600   8.171  53.383  1.00  0.00    -0.254 N 
HETATM   15  C4  UNL     1      21.811   8.244  52.827  1.00  0.00     0.249 A 
ATOM     16  H6  UNL     1      20.133   8.597  54.183  1.00  0.00     0.191 HD
HETATM   17  N7  UNL     1      21.457   7.347  51.861  1.00  0.00    -0.160 N 
BRANCH  17  18
HETATM   18  N8  UNL     1      22.029   6.729  50.757  1.00  0.00    -0.320 N 
ATOM     19  H82 UNL     1      21.905   5.877  50.210  1.00  0.00     0.179 HD
ATOM     20  H81 UNL     1      22.794   6.959  50.122  1.00  0.00     0.179 HD
ENDBRANCH  17  18
ENDBRANCH  11  13
ENDBRANCH   8  11
BRANCH   1  21
HETATM   21  N1  UNL     1      15.667   9.385  53.381  1.00  0.00    -0.234 N 
ATOM     22  H12 UNL     1      15.751  10.396  53.490  1.00  0.00     0.174 HD
ATOM     23  H11 UNL     1      15.035   8.951  54.053  1.00  0.00     0.174 HD
ENDBRANCH   1  21
TORSDOF 4
ENDMDL
MODEL 2
REMARK VINA RESULT: -5.038845826      1.364      2.135
REMARK  4 active torsions:
REMARK  status: ('A' for Active; 'I' for Inactive)
REMARK    1  A    between atoms: N1_1  and  C1_4 
REMARK    2  A    between atoms: C3_11  and  N4_12 
REMARK    3  A    between atoms: N4_12  and  N5_14 
REMARK    4  A    between atoms: N7_18  and  N8_19 
ROOT
HETATM    1  C1  UNL     1      16.733   7.846  50.337  1.00  0.00     0.694 A 
HETATM    2  N2  UNL     1      15.979   8.578  51.231  1.00  0.00    -0.141 N 
ATOM      3  H2  UNL     1      15.153   9.068  50.888  1.00  0.00     0.189 HD
HETATM    4  C2  UNL     1      16.288   8.671  52.523  1.00  0.00     0.352 A 
HETATM    5  O1  UNL     1      15.580   9.348  53.318  1.00  0.00    -0.246 OA
HETATM    6  N3  UNL     1      17.370   8.035  52.992  1.00  0.00    -0.139 N 
ATOM      7  H3  UNL     1      17.603   8.110  53.981  1.00  0.00     0.189 HD
HETATM    8  C3  UNL     1      18.149   7.306  52.191  1.00  0.00     0.718 A 
HETATM    9  N9  UNL     1      17.819   7.230  50.905  1.00  0.00    -0.021 N 
ATOM     10  H9  UNL     1      18.417   6.672  50.296  1.00  0.00     0.203 HD
ENDROOT
BRANCH   8  11
HETATM   11  N4  UNL     1      19.200   6.703  52.685  1.00  0.00    -0.093 N 
ATOM     12  H4  UNL     1      19.159   5.732  52.997  1.00  0.00     0.209 HD
BRANCH  11  13
HETATM   13  N5  UNL     1      20.376   7.442  52.767  1.00  0.00    -0.093 N 
HETATM   14  N6  UNL     1      20.813   8.373  53.600  1.00  0.00    -0.254 N 
HETATM   15  C4  UNL     1      21.934   8.425  52.878  1.00  0.00     0.249 A 
ATOM     16  H6  UNL     1      20.451   8.843  54.430  1.00  0.00     0.191 HD
HETATM   17  N7  UNL     1      21.468   7.464  52.028  1.00  0.00    -0.160 N 
BRANCH  17  18
HETATM   18  N8  UNL     1      21.896   6.784  50.895  1.00  0.00    -0.320 N 
ATOM     19  H82 UNL     1      22.065   5.823  50.601  1.00  0.00     0.179 HD
ATOM     20  H81 UNL     1      22.188   7.063  49.958  1.00  0.00     0.179 HD
ENDBRANCH  17  18
ENDBRANCH  11  13
ENDBRANCH   8  11
BRANCH   1  21
HETATM   21  N1  UNL     1      16.445   7.763  49.157  1.00  0.00    -0.234 N 
ATOM     22  H12 UNL     1      15.940   6.975  48.748  1.00  0.00     0.174 HD
ATOM     23  H11 UNL     1      16.689   8.488  48.482  1.00  0.00     0.174 HD
ENDBRANCH   1  21
TORSDOF 4
ENDMDL
MODEL 3
REMARK VINA RESULT: -4.715414815      2.307      5.080
REMARK  4 active torsions:
REMARK  status: ('A' for Active; 'I' for Inactive)
REMARK    1  A    between atoms: N1_1  and  C1_4 
REMARK    2  A    between atoms: C3_11  and  N4_12 
REMARK    3  A    between atoms: N4_12  and  N5_14 
REMARK    4  A    between atoms: N7_18  and  N8_19 
ROOT
HETATM    1  C1  UNL     1      21.428   7.227  51.579  1.00  0.00     0.694 A 
HETATM    2  N2  UNL     1      21.969   8.229  52.358  1.00  0.00    -0.141 N 
ATOM      3  H2  UNL     1      22.933   8.515  52.188  1.00  0.00     0.189 HD
HETATM    4  C2  UNL     1      21.281   8.840  53.322  1.00  0.00     0.352 A 
HETATM    5  O1  UNL     1      21.802   9.753  54.018  1.00  0.00    -0.246 OA
HETATM    6  N3  UNL     1      20.014   8.478  53.560  1.00  0.00    -0.139 N 
ATOM      7  H3  UNL     1      19.492   8.947  54.300  1.00  0.00     0.189 HD
HETATM    8  C3  UNL     1      19.420   7.518  52.850  1.00  0.00     0.718 A 
HETATM    9  N9  UNL     1      20.127   6.925  51.893  1.00  0.00    -0.021 N 
ATOM     10  H9  UNL     1      19.669   6.191  51.352  1.00  0.00     0.203 HD
ENDROOT
BRANCH   8  11
HETATM   11  N4  UNL     1      18.180   7.190  53.114  1.00  0.00    -0.093 N 
ATOM     12  H4  UNL     1      17.956   6.403  53.724  1.00  0.00     0.209 HD
BRANCH  11  13
HETATM   13  N5  UNL     1      17.182   7.961  52.529  1.00  0.00    -0.093 N 
HETATM   14  N6  UNL     1      16.254   8.773  53.011  1.00  0.00    -0.254 N 
HETATM   15  C4  UNL     1      15.854   8.985  51.756  1.00  0.00     0.249 A 
ATOM     16  H6  UNL     1      15.970   9.096  53.937  1.00  0.00     0.191 HD
HETATM   17  N7  UNL     1      16.816   8.144  51.275  1.00  0.00    -0.160 N 
BRANCH  17  18
HETATM   18  N8  UNL     1      17.257   7.664  50.048  1.00  0.00    -0.320 N 
ATOM     19  H82 UNL     1      16.863   7.238  49.210  1.00  0.00     0.179 HD
ATOM     20  H81 UNL     1      18.165   7.592  49.590  1.00  0.00     0.179 HD
ENDBRANCH  17  18
ENDBRANCH  11  13
ENDBRANCH   8  11
BRANCH   1  21
HETATM   21  N1  UNL     1      22.060   6.675  50.697  1.00  0.00    -0.234 N 
ATOM     22  H12 UNL     1      22.163   5.663  50.619  1.00  0.00     0.174 HD
ATOM     23  H11 UNL     1      22.537   7.194  49.959  1.00  0.00     0.174 HD
ENDBRANCH   1  21
TORSDOF 4
ENDMDL
MODEL 4
REMARK VINA RESULT: -4.704681845      0.480      1.415
REMARK  4 active torsions:
REMARK  status: ('A' for Active; 'I' for Inactive)
REMARK    1  A    between atoms: N1_1  and  C1_4 
REMARK    2  A    between atoms: C3_11  and  N4_12 
REMARK    3  A    between atoms: N4_12  and  N5_14 
REMARK    4  A    between atoms: N7_18  and  N8_19 
ROOT
HETATM    1  C1  UNL     1      16.436   8.756  52.602  1.00  0.00     0.694 A 
HETATM    2  N2  UNL     1      15.951   8.726  51.311  1.00  0.00    -0.141 N 
ATOM      3  H2  UNL     1      15.120   9.273  51.087  1.00  0.00     0.189 HD
HETATM    4  C2  UNL     1      16.524   8.010  50.345  1.00  0.00     0.352 A 
HETATM    5  O1  UNL     1      16.059   8.002  49.173  1.00  0.00    -0.246 OA
HETATM    6  N3  UNL     1      17.616   7.284  50.619  1.00  0.00    -0.139 N 
ATOM      7  H3  UNL     1      18.051   6.736  49.877  1.00  0.00     0.189 HD
HETATM    8  C3  UNL     1      18.146   7.261  51.844  1.00  0.00     0.718 A 
HETATM    9  N9  UNL     1      17.555   7.984  52.790  1.00  0.00    -0.021 N 
ATOM     10  H9  UNL     1      17.963   7.964  53.724  1.00  0.00     0.203 HD
ENDROOT
BRANCH   8  11
HETATM   11  N4  UNL     1      19.211   6.536  52.073  1.00  0.00    -0.093 N 
ATOM     12  H4  UNL     1      19.188   5.518  52.001  1.00  0.00     0.209 HD
BRANCH  11  13
HETATM   13  N5  UNL     1      20.376   7.212  52.421  1.00  0.00    -0.093 N 
HETATM   14  N6  UNL     1      21.427   7.631  51.734  1.00  0.00    -0.254 N 
HETATM   15  C4  UNL     1      21.924   8.110  52.877  1.00  0.00     0.249 A 
ATOM     16  H6  UNL     1      21.727   7.601  50.759  1.00  0.00     0.191 HD
HETATM   17  N7  UNL     1      20.832   7.671  53.570  1.00  0.00    -0.160 N 
BRANCH  17  18
HETATM   18  N8  UNL     1      20.362   7.675  54.877  1.00  0.00    -0.320 N 
ATOM     19  H82 UNL     1      20.407   8.273  55.702  1.00  0.00     0.179 HD
ATOM     20  H81 UNL     1      19.794   7.040  55.437  1.00  0.00     0.179 HD
ENDBRANCH  17  18
ENDBRANCH  11  13
ENDBRANCH   8  11
BRANCH   1  21
HETATM   21  N1  UNL     1      15.910   9.414  53.481  1.00  0.00    -0.234 N 
ATOM     22  H12 UNL     1      16.353  10.212  53.937  1.00  0.00     0.174 HD
ATOM     23  H11 UNL     1      14.971   9.212  53.826  1.00  0.00     0.174 HD
ENDBRANCH   1  21
TORSDOF 4
ENDMDL
MODEL 5
REMARK VINA RESULT: -4.663604524      1.512      5.166
REMARK  4 active torsions:
REMARK  status: ('A' for Active; 'I' for Inactive)
REMARK    1  A    between atoms: N1_1  and  C1_4 
REMARK    2  A    between atoms: C3_11  and  N4_12 
REMARK    3  A    between atoms: N4_12  and  N5_14 
REMARK    4  A    between atoms: N7_18  and  N8_19 
ROOT
HETATM    1  C1  UNL     1      18.598   7.423  51.618  1.00  0.00     0.694 A 
HETATM    2  N2  UNL     1      17.815   7.426  50.482  1.00  0.00    -0.141 N 
ATOM      3  H2  UNL     1      18.148   6.927  49.657  1.00  0.00     0.189 HD
HETATM    4  C2  UNL     1      16.641   8.052  50.419  1.00  0.00     0.352 A 
HETATM    5  O1  UNL     1      15.946   8.037  49.366  1.00  0.00    -0.246 OA
HETATM    6  N3  UNL     1      16.186   8.713  51.492  1.00  0.00    -0.139 N 
ATOM      7  H3  UNL     1      15.288   9.192  51.439  1.00  0.00     0.189 HD
HETATM    8  C3  UNL     1      16.885   8.758  52.628  1.00  0.00     0.718 A 
HETATM    9  N9  UNL     1      18.053   8.123  52.665  1.00  0.00    -0.021 N 
ATOM     10  H9  UNL     1      18.583   8.160  53.535  1.00  0.00     0.203 HD
ENDROOT
BRANCH   8  11
HETATM   11  N4  UNL     1      16.409   9.417  53.654  1.00  0.00    -0.093 N 
ATOM     12  H4  UNL     1      16.937  10.171  54.094  1.00  0.00     0.209 HD
BRANCH  11  13
HETATM   13  N5  UNL     1      15.152   9.045  54.119  1.00  0.00    -0.093 N 
HETATM   14  N6  UNL     1      14.671   7.940  54.667  1.00  0.00    -0.254 N 
HETATM   15  C4  UNL     1      13.485   8.547  54.737  1.00  0.00     0.249 A 
ATOM     16  H6  UNL     1      15.044   7.026  54.924  1.00  0.00     0.191 HD
HETATM   17  N7  UNL     1      13.996   9.679  54.170  1.00  0.00    -0.160 N 
BRANCH  17  18
HETATM   18  N8  UNL     1      13.557  10.942  53.795  1.00  0.00    -0.320 N 
ATOM     19  H82 UNL     1      13.015  11.710  54.192  1.00  0.00     0.179 HD
ATOM     20  H81 UNL     1      13.653  11.516  52.958  1.00  0.00     0.179 HD
ENDBRANCH  17  18
ENDBRANCH  11  13
ENDBRANCH   8  11
BRANCH   1  21
HETATM   21  N1  UNL     1      19.668   6.847  51.670  1.00  0.00    -0.234 N 
ATOM     22  H12 UNL     1      20.382   7.035  52.374  1.00  0.00     0.174 HD
ATOM     23  H11 UNL     1      19.930   6.120  51.004  1.00  0.00     0.174 HD
ENDBRANCH   1  21
TORSDOF 4
ENDMDL
