MODEL 1
REMARK VINA RESULT: -5.280150509      0.000      0.000
REMARK  3 active torsions:
REMARK  status: ('A' for Active; 'I' for Inactive)
REMARK    1  A    between atoms: N1_1  and  C1_5 
REMARK    2  A    between atoms: C1_5  and  N2_6 
REMARK    3  A    between atoms: C1_5  and  C2_10 
ROOT
HETATM    1  C2  UNL     1      17.696   8.123  53.558  1.00  0.00     0.146 C 
HETATM    2  N3  UNL     1      16.695   8.795  52.956  1.00  0.00    -0.305 N 
ATOM      3  H3  UNL     1      16.288   9.550  53.507  1.00  0.00     0.170 HD
HETATM    4  C3  UNL     1      16.150   8.620  51.738  1.00  0.00     0.315 C 
HETATM    5  O1  UNL     1      14.992   9.086  51.522  1.00  0.00    -0.262 OA
HETATM    6  C4  UNL     1      16.772   7.960  50.684  1.00  0.00     0.317 C 
HETATM    7  O2  UNL     1      16.217   8.067  49.570  1.00  0.00    -0.262 OA
HETATM    8  N4  UNL     1      17.897   7.214  50.696  1.00  0.00    -0.271 N 
ATOM      9  H4  UNL     1      18.287   6.978  49.784  1.00  0.00     0.174 HD
HETATM   10  C5  UNL     1      18.567   6.743  51.763  1.00  0.00     0.328 C 
HETATM   11  O3  UNL     1      19.460   5.910  51.527  1.00  0.00    -0.247 OA
HETATM   12  N5  UNL     1      18.380   7.074  53.066  1.00  0.00    -0.295 N 
ATOM     13  H5  UNL     1      18.808   6.453  53.753  1.00  0.00     0.172 HD
ENDROOT
BRANCH   1  14
HETATM   14  C1  UNL     1      18.122   8.551  54.904  1.00  0.00     0.444 C 
BRANCH  14  15
HETATM   15  N1  UNL     1      18.552   7.407  55.648  1.00  0.00    -0.043 N 
ATOM     16  H13 UNL     1      17.916   7.192  56.416  1.00  0.00     0.277 HD
ATOM     17  H12 UNL     1      18.443   6.544  55.115  1.00  0.00     0.277 HD
ATOM     18  H11 UNL     1      19.510   7.533  55.974  1.00  0.00     0.277 HD
ENDBRANCH  14  15
BRANCH  14  19
HETATM   19  N2  UNL     1      17.093   9.258  55.619  1.00  0.00    -0.043 N 
ATOM     20  H23 UNL     1      16.231   9.325  55.077  1.00  0.00     0.277 HD
ATOM     21  H22 UNL     1      16.736   8.716  56.405  1.00  0.00     0.277 HD
ATOM     22  H21 UNL     1      17.428  10.175  55.912  1.00  0.00     0.277 HD
ENDBRANCH  14  19
ENDBRANCH   1  14
TORSDOF 3
ENDMDL
MODEL 2
REMARK VINA RESULT: -5.122825493      1.592      3.271
REMARK  3 active torsions:
REMARK  status: ('A' for Active; 'I' for Inactive)
REMARK    1  A    between atoms: N1_1  and  C1_5 
REMARK    2  A    between atoms: C1_5  and  N2_6 
REMARK    3  A    between atoms: C1_5  and  C2_10 
ROOT
HETATM    1  C2  UNL     1      16.459   8.484  53.159  1.00  0.00     0.146 C 
HETATM    2  N3  UNL     1      17.477   7.794  53.709  1.00  0.00    -0.305 N 
ATOM      3  H3  UNL     1      17.465   7.745  54.728  1.00  0.00     0.170 HD
HETATM    4  C3  UNL     1      18.508   7.160  53.121  1.00  0.00     0.315 C 
HETATM    5  O1  UNL     1      19.539   6.913  53.812  1.00  0.00    -0.262 OA
HETATM    6  C4  UNL     1      18.523   6.748  51.792  1.00  0.00     0.317 C 
HETATM    7  O2  UNL     1      19.466   5.996  51.466  1.00  0.00    -0.262 OA
HETATM    8  N4  UNL     1      17.659   7.049  50.800  1.00  0.00    -0.271 N 
ATOM      9  H4  UNL     1      17.741   6.491  49.951  1.00  0.00     0.174 HD
HETATM   10  C5  UNL     1      16.700   7.993  50.795  1.00  0.00     0.328 C 
HETATM   11  O3  UNL     1      16.162   8.224  49.697  1.00  0.00    -0.247 OA
HETATM   12  N5  UNL     1      16.255   8.722  51.850  1.00  0.00    -0.295 N 
ATOM     13  H5  UNL     1      15.701   9.547  51.624  1.00  0.00     0.172 HD
ENDROOT
BRANCH   1  14
HETATM   14  C1  UNL     1      15.434   9.059  54.050  1.00  0.00     0.444 C 
BRANCH  14  15
HETATM   15  N1  UNL     1      14.721   7.998  54.693  1.00  0.00    -0.043 N 
ATOM     16  H13 UNL     1      13.860   7.765  54.198  1.00  0.00     0.277 HD
ATOM     17  H12 UNL     1      15.200   7.103  54.594  1.00  0.00     0.277 HD
ATOM     18  H11 UNL     1      14.546   8.228  55.671  1.00  0.00     0.277 HD
ENDBRANCH  14  15
BRANCH  14  19
HETATM   19  N2  UNL     1      14.522   9.935  53.363  1.00  0.00    -0.043 N 
ATOM     20  H23 UNL     1      13.820   9.414  52.836  1.00  0.00     0.277 HD
ATOM     21  H22 UNL     1      13.899  10.417  54.010  1.00  0.00     0.277 HD
ATOM     22  H21 UNL     1      15.033  10.588  52.770  1.00  0.00     0.277 HD
ENDBRANCH  14  19
ENDBRANCH   1  14
TORSDOF 3
ENDMDL
MODEL 3
REMARK VINA RESULT: -5.107210774      1.494      3.125
REMARK  3 active torsions:
REMARK  status: ('A' for Active; 'I' for Inactive)
REMARK    1  A    between atoms: N1_1  and  C1_5 
REMARK    2  A    between atoms: C1_5  and  N2_6 
REMARK    3  A    between atoms: C1_5  and  C2_10 
ROOT
HETATM    1  C2  UNL     1      16.736   8.112  53.505  1.00  0.00     0.146 C 
HETATM    2  N3  UNL     1      17.927   7.502  53.668  1.00  0.00    -0.305 N 
ATOM      3  H3  UNL     1      18.116   7.169  54.613  1.00  0.00     0.170 HD
HETATM    4  C3  UNL     1      18.904   7.265  52.774  1.00  0.00     0.315 C 
HETATM    5  O1  UNL     1      20.073   7.036  53.203  1.00  0.00    -0.262 OA
HETATM    6  C4  UNL     1      18.723   7.251  51.394  1.00  0.00     0.317 C 
HETATM    7  O2  UNL     1      19.682   6.813  50.724  1.00  0.00    -0.262 OA
HETATM    8  N4  UNL     1      17.652   7.646  50.675  1.00  0.00    -0.271 N 
ATOM      9  H4  UNL     1      17.648   7.375  49.693  1.00  0.00     0.174 HD
HETATM   10  C5  UNL     1      16.588   8.355  51.095  1.00  0.00     0.328 C 
HETATM   11  O3  UNL     1      15.824   8.776  50.208  1.00  0.00    -0.247 OA
HETATM   12  N5  UNL     1      16.255   8.662  52.375  1.00  0.00    -0.295 N 
ATOM     13  H5  UNL     1      15.558   9.397  52.493  1.00  0.00     0.172 HD
ENDROOT
BRANCH   1  14
HETATM   14  C1  UNL     1      15.830   8.210  54.664  1.00  0.00     0.444 C 
BRANCH  14  15
HETATM   15  N1  UNL     1      16.121   7.150  55.581  1.00  0.00    -0.043 N 
ATOM     16  H13 UNL     1      15.344   6.494  55.660  1.00  0.00     0.277 HD
ATOM     17  H12 UNL     1      16.822   6.509  55.210  1.00  0.00     0.277 HD
ATOM     18  H11 UNL     1      16.393   7.527  56.488  1.00  0.00     0.277 HD
ENDBRANCH  14  15
BRANCH  14  19
HETATM   19  N2  UNL     1      14.440   8.186  54.292  1.00  0.00    -0.043 N 
ATOM     20  H23 UNL     1      13.992   7.307  54.551  1.00  0.00     0.277 HD
ATOM     21  H22 UNL     1      13.882   8.816  54.869  1.00  0.00     0.277 HD
ATOM     22  H21 UNL     1      14.333   8.388  53.299  1.00  0.00     0.277 HD
ENDBRANCH  14  19
ENDBRANCH   1  14
TORSDOF 3
ENDMDL
MODEL 4
REMARK VINA RESULT: -5.089604264      1.621      3.325
REMARK  3 active torsions:
REMARK  status: ('A' for Active; 'I' for Inactive)
REMARK    1  A    between atoms: N1_1  and  C1_5 
REMARK    2  A    between atoms: C1_5  and  N2_6 
REMARK    3  A    between atoms: C1_5  and  C2_10 
ROOT
HETATM    1  C2  UNL     1      16.130   8.619  52.625  1.00  0.00     0.146 C 
HETATM    2  N3  UNL     1      17.288   8.257  53.212  1.00  0.00    -0.305 N 
ATOM      3  H3  UNL     1      17.279   8.271  54.231  1.00  0.00     0.170 HD
HETATM    4  C3  UNL     1      18.455   7.880  52.657  1.00  0.00     0.315 C 
HETATM    5  O1  UNL     1      19.508   7.958  53.355  1.00  0.00    -0.262 OA
HETATM    6  C4  UNL     1      18.592   7.404  51.357  1.00  0.00     0.317 C 
HETATM    7  O2  UNL     1      19.702   6.907  51.073  1.00  0.00    -0.262 OA
HETATM    8  N4  UNL     1      17.688   7.403  50.355  1.00  0.00    -0.271 N 
ATOM      9  H4  UNL     1      17.923   6.835  49.542  1.00  0.00     0.174 HD
HETATM   10  C5  UNL     1      16.516   8.060  50.296  1.00  0.00     0.328 C 
HETATM   11  O3  UNL     1      15.947   8.071  49.189  1.00  0.00    -0.247 OA
HETATM   12  N5  UNL     1      15.884   8.712  51.306  1.00  0.00    -0.295 N 
ATOM     13  H5  UNL     1      15.134   9.346  51.031  1.00  0.00     0.172 HD
ENDROOT
BRANCH   1  14
HETATM   14  C1  UNL     1      14.981   8.959  53.485  1.00  0.00     0.444 C 
BRANCH  14  15
HETATM   15  N1  UNL     1      14.747  10.370  53.424  1.00  0.00    -0.043 N 
ATOM     16  H13 UNL     1      14.855  10.731  52.476  1.00  0.00     0.277 HD
ATOM     17  H12 UNL     1      13.762  10.597  53.562  1.00  0.00     0.277 HD
ATOM     18  H11 UNL     1      15.347  10.860  54.087  1.00  0.00     0.277 HD
ENDBRANCH  14  15
BRANCH  14  19
HETATM   19  N2  UNL     1      15.157   8.537  54.849  1.00  0.00    -0.043 N 
ATOM     20  H23 UNL     1      15.991   7.960  54.963  1.00  0.00     0.277 HD
ATOM     21  H22 UNL     1      15.426   9.312  55.454  1.00  0.00     0.277 HD
ATOM     22  H21 UNL     1      14.320   8.065  55.187  1.00  0.00     0.277 HD
ENDBRANCH  14  19
ENDBRANCH   1  14
TORSDOF 3
ENDMDL
MODEL 5
REMARK VINA RESULT: -5.038432643      2.389      2.682
REMARK  3 active torsions:
REMARK  status: ('A' for Active; 'I' for Inactive)
REMARK    1  A    between atoms: N1_1  and  C1_5 
REMARK    2  A    between atoms: C1_5  and  N2_6 
REMARK    3  A    between atoms: C1_5  and  C2_10 
ROOT
HETATM    1  C2  UNL     1      19.679   8.975  52.682  1.00  0.00     0.146 C 
HETATM    2  N3  UNL     1      18.737   9.879  52.345  1.00  0.00    -0.305 N 
ATOM      3  H3  UNL     1      18.983  10.850  52.536  1.00  0.00     0.170 HD
HETATM    4  C3  UNL     1      17.524   9.695  51.794  1.00  0.00     0.315 C 
HETATM    5  O1  UNL     1      16.661  10.614  51.915  1.00  0.00    -0.262 OA
HETATM    6  C4  UNL     1      17.141   8.558  51.091  1.00  0.00     0.317 C 
HETATM    7  O2  UNL     1      16.058   8.637  50.474  1.00  0.00    -0.262 OA
HETATM    8  N4  UNL     1      17.780   7.374  50.982  1.00  0.00    -0.271 N 
ATOM      9  H4  UNL     1      17.426   6.740  50.266  1.00  0.00     0.174 HD
HETATM   10  C5  UNL     1      18.825   6.926  51.702  1.00  0.00     0.328 C 
HETATM   11  O3  UNL     1      19.114   5.725  51.562  1.00  0.00    -0.247 OA
HETATM   12  N5  UNL     1      19.597   7.637  52.562  1.00  0.00    -0.295 N 
ATOM     13  H5  UNL     1      20.186   7.092  53.192  1.00  0.00     0.172 HD
ENDROOT
BRANCH   1  14
HETATM   14  C1  UNL     1      20.951   9.460  53.248  1.00  0.00     0.444 C 
BRANCH  14  15
HETATM   15  N1  UNL     1      20.946  10.891  53.262  1.00  0.00    -0.043 N 
ATOM     16  H13 UNL     1      20.036  11.269  53.001  1.00  0.00     0.277 HD
ATOM     17  H12 UNL     1      20.997  11.261  54.211  1.00  0.00     0.277 HD
ATOM     18  H11 UNL     1      21.692  11.256  52.672  1.00  0.00     0.277 HD
ENDBRANCH  14  15
BRANCH  14  19
HETATM   19  N2  UNL     1      22.103   8.968  52.540  1.00  0.00    -0.043 N 
ATOM     20  H23 UNL     1      22.223   9.434  51.640  1.00  0.00     0.277 HD
ATOM     21  H22 UNL     1      22.974   9.263  52.981  1.00  0.00     0.277 HD
ATOM     22  H21 UNL     1      22.053   7.955  52.438  1.00  0.00     0.277 HD
ENDBRANCH  14  19
ENDBRANCH   1  14
TORSDOF 3
ENDMDL
