MODEL 1
REMARK VINA RESULT: -7.270521783      0.000      0.000
REMARK  3 active torsions:
REMARK  status: ('A' for Active; 'I' for Inactive)
REMARK    1  A    between atoms: N1_1  and  C1_4 
REMARK    2  A    between atoms: C3_11  and  N4_12 
REMARK    3  A    between atoms: N4_12  and  C4_14 
ROOT
HETATM    1  C1  UNL     1     -14.917   3.101  -0.416  1.00  0.00     0.694 A 
HETATM    2  N2  UNL     1     -15.326   2.305  -1.417  1.00  0.00    -0.141 N 
ATOM      3  H2  UNL     1     -15.370   1.293  -1.306  1.00  0.00     0.189 HD
HETATM    4  C2  UNL     1     -15.676   2.899  -2.576  1.00  0.00     0.352 A 
HETATM    5  O1  UNL     1     -16.065   2.153  -3.525  1.00  0.00    -0.246 OA
HETATM    6  N3  UNL     1     -15.623   4.223  -2.738  1.00  0.00    -0.140 N 
ATOM      7  H3  UNL     1     -15.895   4.640  -3.628  1.00  0.00     0.189 HD
HETATM    8  C3  UNL     1     -15.208   5.011  -1.719  1.00  0.00     0.697 A 
HETATM    9  N6  UNL     1     -14.855   4.437  -0.558  1.00  0.00    -0.022 N 
ATOM     10  H6  UNL     1     -14.539   5.016   0.220  1.00  0.00     0.203 HD
ENDROOT
BRANCH   8  11
HETATM   11  N4  UNL     1     -15.141   6.285  -1.832  1.00  0.00    -0.203 N 
ATOM     12  H4  UNL     1     -14.541   6.696  -2.548  1.00  0.00     0.179 HD
BRANCH  11  13
HETATM   13  C4  UNL     1     -15.895   7.139  -0.968  1.00  0.00     0.284 C 
HETATM   14  C5  UNL     1     -15.291   7.337   0.377  1.00  0.00     0.257 C 
HETATM   15  O2  UNL     1     -15.439   6.852   1.508  1.00  0.00    -0.270 OA
HETATM   16  N5  UNL     1     -14.459   8.329  -0.187  1.00  0.00    -0.293 N 
HETATM   17  C6  UNL     1     -15.482   8.545  -1.141  1.00  0.00     0.257 C 
ATOM     18  H5  UNL     1     -13.536   8.716   0.006  1.00  0.00     0.171 HD
HETATM   19  O3  UNL     1     -15.839   9.523  -1.813  1.00  0.00    -0.270 OA
ENDBRANCH  11  13
ENDBRANCH   8  11
BRANCH   1  20
HETATM   20  N1  UNL     1     -14.577   2.540   0.704  1.00  0.00    -0.234 N 
ATOM     21  H12 UNL     1     -15.168   1.825   1.127  1.00  0.00     0.174 HD
ATOM     22  H11 UNL     1     -13.704   2.839   1.141  1.00  0.00     0.174 HD
ENDBRANCH   1  20
TORSDOF 3
ENDMDL
MODEL 2
REMARK VINA RESULT: -7.185778505      1.698      5.186
REMARK  3 active torsions:
REMARK  status: ('A' for Active; 'I' for Inactive)
REMARK    1  A    between atoms: N1_1  and  C1_4 
REMARK    2  A    between atoms: C3_11  and  N4_12 
REMARK    3  A    between atoms: N4_12  and  C4_14 
ROOT
HETATM    1  C1  UNL     1     -15.145   7.963  -1.198  1.00  0.00     0.694 A 
HETATM    2  N2  UNL     1     -15.667   8.062   0.035  1.00  0.00    -0.141 N 
ATOM      3  H2  UNL     1     -15.510   8.887   0.613  1.00  0.00     0.189 HD
HETATM    4  C2  UNL     1     -16.406   7.025   0.480  1.00  0.00     0.352 A 
HETATM    5  O1  UNL     1     -16.902   7.113   1.644  1.00  0.00    -0.246 OA
HETATM    6  N3  UNL     1     -16.619   5.938  -0.264  1.00  0.00    -0.140 N 
ATOM      7  H3  UNL     1     -17.183   5.171   0.103  1.00  0.00     0.189 HD
HETATM    8  C3  UNL     1     -16.086   5.853  -1.505  1.00  0.00     0.697 A 
HETATM    9  N6  UNL     1     -15.347   6.876  -1.963  1.00  0.00    -0.022 N 
ATOM     10  H6  UNL     1     -14.938   6.829  -2.896  1.00  0.00     0.203 HD
ENDROOT
BRANCH   8  11
HETATM   11  N4  UNL     1     -16.265   4.828  -2.251  1.00  0.00    -0.203 N 
ATOM     12  H4  UNL     1     -17.203   4.608  -2.586  1.00  0.00     0.179 HD
BRANCH  11  13
HETATM   13  C4  UNL     1     -15.169   3.988  -2.622  1.00  0.00     0.284 C 
HETATM   14  C5  UNL     1     -14.625   3.165  -1.508  1.00  0.00     0.257 C 
HETATM   15  O2  UNL     1     -13.679   3.246  -0.711  1.00  0.00    -0.270 OA
HETATM   16  N5  UNL     1     -15.661   2.235  -1.743  1.00  0.00    -0.293 N 
HETATM   17  C6  UNL     1     -15.657   2.676  -3.088  1.00  0.00     0.257 C 
ATOM     18  H5  UNL     1     -16.180   1.552  -1.191  1.00  0.00     0.171 HD
HETATM   19  O3  UNL     1     -15.950   2.145  -4.168  1.00  0.00    -0.270 OA
ENDBRANCH  11  13
ENDBRANCH   8  11
BRANCH   1  20
HETATM   20  N1  UNL     1     -14.431   8.955  -1.636  1.00  0.00    -0.234 N 
ATOM     21  H12 UNL     1     -14.089   9.671  -0.995  1.00  0.00     0.174 HD
ATOM     22  H11 UNL     1     -14.230   8.992  -2.635  1.00  0.00     0.174 HD
ENDBRANCH   1  20
TORSDOF 3
ENDMDL
MODEL 3
REMARK VINA RESULT: -7.177066905      1.584      4.949
REMARK  3 active torsions:
REMARK  status: ('A' for Active; 'I' for Inactive)
REMARK    1  A    between atoms: N1_1  and  C1_4 
REMARK    2  A    between atoms: C3_11  and  N4_12 
REMARK    3  A    between atoms: N4_12  and  C4_14 
ROOT
HETATM    1  C1  UNL     1     -15.747   6.811   0.696  1.00  0.00     0.694 A 
HETATM    2  N2  UNL     1     -15.283   7.977   0.218  1.00  0.00    -0.141 N 
ATOM      3  H2  UNL     1     -15.082   8.761   0.836  1.00  0.00     0.189 HD
HETATM    4  C2  UNL     1     -15.094   8.067  -1.114  1.00  0.00     0.352 A 
HETATM    5  O1  UNL     1     -14.655   9.165  -1.572  1.00  0.00    -0.246 OA
HETATM    6  N3  UNL     1     -15.353   7.049  -1.937  1.00  0.00    -0.140 N 
ATOM      7  H3  UNL     1     -15.199   7.151  -2.940  1.00  0.00     0.189 HD
HETATM    8  C3  UNL     1     -15.821   5.881  -1.439  1.00  0.00     0.697 A 
HETATM    9  N6  UNL     1     -16.015   5.773  -0.115  1.00  0.00    -0.022 N 
ATOM     10  H6  UNL     1     -16.367   4.900   0.277  1.00  0.00     0.203 HD
ENDROOT
BRANCH   8  11
HETATM   11  N4  UNL     1     -16.083   4.879  -2.193  1.00  0.00    -0.203 N 
ATOM     12  H4  UNL     1     -17.038   4.735  -2.523  1.00  0.00     0.179 HD
BRANCH  11  13
HETATM   13  C4  UNL     1     -15.057   3.960  -2.577  1.00  0.00     0.284 C 
HETATM   14  C5  UNL     1     -14.581   3.080  -1.476  1.00  0.00     0.257 C 
HETATM   15  O2  UNL     1     -13.631   3.073  -0.679  1.00  0.00    -0.270 OA
HETATM   16  N5  UNL     1     -15.688   2.239  -1.724  1.00  0.00    -0.293 N 
HETATM   17  C6  UNL     1     -15.648   2.698  -3.061  1.00  0.00     0.257 C 
ATOM     18  H5  UNL     1     -16.259   1.591  -1.181  1.00  0.00     0.171 HD
HETATM   19  O3  UNL     1     -15.983   2.208  -4.149  1.00  0.00    -0.270 OA
ENDBRANCH  11  13
ENDBRANCH   8  11
BRANCH   1  20
HETATM   20  N1  UNL     1     -15.933   6.713   1.977  1.00  0.00    -0.234 N 
ATOM     21  H12 UNL     1     -15.156   6.492   2.599  1.00  0.00     0.174 HD
ATOM     22  H11 UNL     1     -16.877   6.862   2.334  1.00  0.00     0.174 HD
ENDBRANCH   1  20
TORSDOF 3
ENDMDL
MODEL 4
REMARK VINA RESULT: -7.169464628      1.618      5.190
REMARK  3 active torsions:
REMARK  status: ('A' for Active; 'I' for Inactive)
REMARK    1  A    between atoms: N1_1  and  C1_4 
REMARK    2  A    between atoms: C3_11  and  N4_12 
REMARK    3  A    between atoms: N4_12  and  C4_14 
ROOT
HETATM    1  C1  UNL     1     -16.092   6.964   0.627  1.00  0.00     0.694 A 
HETATM    2  N2  UNL     1     -16.028   8.200   0.107  1.00  0.00    -0.141 N 
ATOM      3  H2  UNL     1     -16.269   9.021   0.660  1.00  0.00     0.189 HD
HETATM    4  C2  UNL     1     -15.633   8.311  -1.178  1.00  0.00     0.352 A 
HETATM    5  O1  UNL     1     -15.570   9.476  -1.675  1.00  0.00    -0.246 OA
HETATM    6  N3  UNL     1     -15.316   7.245  -1.916  1.00  0.00    -0.140 N 
ATOM      7  H3  UNL     1     -15.021   7.364  -2.885  1.00  0.00     0.189 HD
HETATM    8  C3  UNL     1     -15.386   6.005  -1.377  1.00  0.00     0.697 A 
HETATM    9  N6  UNL     1     -15.777   5.876  -0.099  1.00  0.00    -0.022 N 
ATOM     10  H6  UNL     1     -15.835   4.950   0.323  1.00  0.00     0.203 HD
ENDROOT
BRANCH   8  11
HETATM   11  N4  UNL     1     -15.091   4.957  -2.049  1.00  0.00    -0.203 N 
ATOM     12  H4  UNL     1     -14.327   4.991  -2.725  1.00  0.00     0.179 HD
BRANCH  11  13
HETATM   13  C4  UNL     1     -15.817   3.739  -1.867  1.00  0.00     0.284 C 
HETATM   14  C5  UNL     1     -15.504   2.684  -2.869  1.00  0.00     0.257 C 
HETATM   15  O2  UNL     1     -16.007   2.272  -3.925  1.00  0.00    -0.270 OA
HETATM   16  N5  UNL     1     -14.372   2.343  -2.098  1.00  0.00    -0.293 N 
HETATM   17  C6  UNL     1     -15.080   2.825  -0.972  1.00  0.00     0.257 C 
ATOM     18  H5  UNL     1     -13.455   1.934  -2.273  1.00  0.00     0.171 HD
HETATM   19  O3  UNL     1     -15.056   2.561   0.238  1.00  0.00    -0.270 OA
ENDBRANCH  11  13
ENDBRANCH   8  11
BRANCH   1  20
HETATM   20  N1  UNL     1     -16.471   6.845   1.863  1.00  0.00    -0.234 N 
ATOM     21  H12 UNL     1     -17.128   7.509   2.270  1.00  0.00     0.174 HD
ATOM     22  H11 UNL     1     -16.089   6.070   2.406  1.00  0.00     0.174 HD
ENDBRANCH   1  20
TORSDOF 3
ENDMDL
MODEL 5
REMARK VINA RESULT: -7.045445419      1.418      1.923
REMARK  3 active torsions:
REMARK  status: ('A' for Active; 'I' for Inactive)
REMARK    1  A    between atoms: N1_1  and  C1_4 
REMARK    2  A    between atoms: C3_11  and  N4_12 
REMARK    3  A    between atoms: N4_12  and  C4_14 
ROOT
HETATM    1  C1  UNL     1     -15.278   3.198  -2.660  1.00  0.00     0.694 A 
HETATM    2  N2  UNL     1     -15.969   2.628  -1.660  1.00  0.00    -0.141 N 
ATOM      3  H2  UNL     1     -16.156   1.626  -1.648  1.00  0.00     0.189 HD
HETATM    4  C2  UNL     1     -16.405   3.435  -0.671  1.00  0.00     0.352 A 
HETATM    5  O1  UNL     1     -17.057   2.902   0.278  1.00  0.00    -0.246 OA
HETATM    6  N3  UNL     1     -16.168   4.748  -0.672  1.00  0.00    -0.140 N 
ATOM      7  H3  UNL     1     -16.512   5.330   0.092  1.00  0.00     0.189 HD
HETATM    8  C3  UNL     1     -15.471   5.308  -1.689  1.00  0.00     0.697 A 
HETATM    9  N6  UNL     1     -15.029   4.520  -2.681  1.00  0.00    -0.022 N 
ATOM     10  H6  UNL     1     -14.502   4.924  -3.455  1.00  0.00     0.203 HD
ENDROOT
BRANCH   8  11
HETATM   11  N4  UNL     1     -15.222   6.563  -1.730  1.00  0.00    -0.203 N 
ATOM     12  H4  UNL     1     -14.579   6.925  -2.434  1.00  0.00     0.179 HD
BRANCH  11  13
HETATM   13  C4  UNL     1     -15.831   7.463  -0.801  1.00  0.00     0.284 C 
HETATM   14  C5  UNL     1     -15.183   7.492   0.538  1.00  0.00     0.257 C 
HETATM   15  O2  UNL     1     -15.382   6.966   1.644  1.00  0.00    -0.270 OA
HETATM   16  N5  UNL     1     -14.226   8.386   0.012  1.00  0.00    -0.293 N 
HETATM   17  C6  UNL     1     -15.221   8.803  -0.903  1.00  0.00     0.257 C 
ATOM     18  H5  UNL     1     -13.253   8.625   0.204  1.00  0.00     0.171 HD
HETATM   19  O3  UNL     1     -15.444   9.861  -1.509  1.00  0.00    -0.270 OA
ENDBRANCH  11  13
ENDBRANCH   8  11
BRANCH   1  20
HETATM   20  N1  UNL     1     -14.854   2.431  -3.618  1.00  0.00    -0.234 N 
ATOM     21  H12 UNL     1     -14.056   2.708  -4.189  1.00  0.00     0.174 HD
ATOM     22  H11 UNL     1     -15.345   1.551  -3.776  1.00  0.00     0.174 HD
ENDBRANCH   1  20
TORSDOF 3
ENDMDL
