MODEL 1
REMARK VINA RESULT: -6.964913971      0.000      0.000
REMARK  0 active torsions:
REMARK  status: ('A' for Active; 'I' for Inactive)
ROOT
HETATM    1  N1  UNL     1     -14.545   7.160   0.318  1.00  0.00    -0.371 N 
ATOM      2  H11 UNL     1     -13.893   7.723  -0.228  1.00  0.00     0.159 HD
ATOM      3  H12 UNL     1     -14.511   7.374   1.315  1.00  0.00     0.159 HD
HETATM    4  C1  UNL     1     -15.358   6.244  -0.155  1.00  0.00     0.183 C 
HETATM    5  N2  UNL     1     -16.257   5.466   0.599  1.00  0.00    -0.274 N 
ATOM      6  H2  UNL     1     -16.603   5.659   1.539  1.00  0.00     0.179 HD
HETATM    7  S1  UNL     1     -16.648   4.121  -0.401  1.00  0.00     0.178 S 
HETATM    8  O1  UNL     1     -18.212   4.296  -1.046  1.00  0.00    -0.230 OA
HETATM    9  C2  UNL     1     -15.542   4.544  -1.763  1.00  0.00     0.293 C 
HETATM   10  N3  UNL     1     -15.404   5.946  -1.540  1.00  0.00    -0.315 N 
ATOM     11  H3  UNL     1     -15.348   6.644  -2.281  1.00  0.00     0.166 HD
HETATM   12  N4  UNL     1     -16.117   4.191  -3.026  1.00  0.00    -0.296 N 
ATOM     13  H4  UNL     1     -16.730   4.760  -3.610  1.00  0.00     0.168 HD
HETATM   14  C3  UNL     1     -15.639   2.856  -3.291  1.00  0.00     0.326 C 
HETATM   15  O2  UNL     1     -16.115   2.019  -4.105  1.00  0.00    -0.247 OA
HETATM   16  N5  UNL     1     -14.504   2.602  -2.466  1.00  0.00    -0.275 N 
ATOM     17  H5  UNL     1     -13.953   1.744  -2.430  1.00  0.00     0.173 HD
HETATM   18  C4  UNL     1     -14.295   3.783  -1.701  1.00  0.00     0.290 C 
HETATM   19  O3  UNL     1     -13.204   4.069  -1.101  1.00  0.00    -0.267 OA
ENDROOT
TORSDOF 0
ENDMDL
MODEL 2
REMARK VINA RESULT: -6.543174500      2.174      4.338
REMARK  0 active torsions:
REMARK  status: ('A' for Active; 'I' for Inactive)
ROOT
HETATM    1  N1  UNL     1     -13.993   4.262  -3.170  1.00  0.00    -0.371 N 
ATOM      2  H11 UNL     1     -13.035   4.613  -3.145  1.00  0.00     0.159 HD
ATOM      3  H12 UNL     1     -14.237   3.848  -4.070  1.00  0.00     0.159 HD
HETATM    4  C1  UNL     1     -14.859   4.313  -2.185  1.00  0.00     0.183 C 
HETATM    5  N2  UNL     1     -16.181   3.829  -2.220  1.00  0.00    -0.274 N 
ATOM      6  H2  UNL     1     -16.575   3.157  -2.878  1.00  0.00     0.179 HD
HETATM    7  S1  UNL     1     -16.989   4.611  -0.918  1.00  0.00     0.178 S 
HETATM    8  O1  UNL     1     -17.219   3.530   0.373  1.00  0.00    -0.230 OA
HETATM    9  C2  UNL     1     -15.604   5.649  -0.405  1.00  0.00     0.293 C 
HETATM   10  N3  UNL     1     -14.520   4.889  -0.936  1.00  0.00    -0.315 N 
ATOM     11  H3  UNL     1     -13.618   4.774  -0.475  1.00  0.00     0.166 HD
HETATM   12  N4  UNL     1     -15.580   5.814   1.017  1.00  0.00    -0.296 N 
ATOM     13  H4  UNL     1     -15.127   5.212   1.706  1.00  0.00     0.168 HD
HETATM   14  C3  UNL     1     -16.338   7.017   1.263  1.00  0.00     0.326 C 
HETATM   15  O2  UNL     1     -16.854   7.388   2.352  1.00  0.00    -0.247 OA
HETATM   16  N5  UNL     1     -16.426   7.761   0.050  1.00  0.00    -0.275 N 
ATOM     17  H5  UNL     1     -16.900   8.654  -0.088  1.00  0.00     0.173 HD
HETATM   18  C4  UNL     1     -15.722   7.007  -0.931  1.00  0.00     0.290 C 
HETATM   19  O3  UNL     1     -15.300   7.483  -2.039  1.00  0.00    -0.267 OA
ENDROOT
TORSDOF 0
ENDMDL
MODEL 3
REMARK VINA RESULT: -6.485873245      2.459      3.932
REMARK  0 active torsions:
REMARK  status: ('A' for Active; 'I' for Inactive)
ROOT
HETATM    1  N1  UNL     1     -14.416   2.397  -4.224  1.00  0.00    -0.371 N 
ATOM      2  H11 UNL     1     -14.988   1.615  -4.542  1.00  0.00     0.159 HD
ATOM      3  H12 UNL     1     -13.457   2.350  -4.571  1.00  0.00     0.159 HD
HETATM    4  C1  UNL     1     -14.814   3.382  -3.453  1.00  0.00     0.183 C 
HETATM    5  N2  UNL     1     -14.024   4.462  -3.016  1.00  0.00    -0.274 N 
ATOM      6  H2  UNL     1     -13.145   4.787  -3.418  1.00  0.00     0.179 HD
HETATM    7  S1  UNL     1     -14.856   5.118  -1.659  1.00  0.00     0.178 S 
HETATM    8  O1  UNL     1     -15.623   6.575  -2.081  1.00  0.00    -0.230 OA
HETATM    9  C2  UNL     1     -16.185   3.896  -1.618  1.00  0.00     0.293 C 
HETATM   10  N3  UNL     1     -16.145   3.448  -2.972  1.00  0.00    -0.315 N 
ATOM     11  H3  UNL     1     -16.969   3.206  -3.522  1.00  0.00     0.166 HD
HETATM   12  N4  UNL     1     -17.424   4.493  -1.220  1.00  0.00    -0.296 N 
ATOM     13  H4  UNL     1     -18.120   4.938  -1.819  1.00  0.00     0.168 HD
HETATM   14  C3  UNL     1     -17.472   4.327   0.212  1.00  0.00     0.326 C 
HETATM   15  O2  UNL     1     -18.196   4.954   1.032  1.00  0.00    -0.247 OA
HETATM   16  N5  UNL     1     -16.545   3.310   0.588  1.00  0.00    -0.275 N 
ATOM     17  H5  UNL     1     -16.357   2.973   1.532  1.00  0.00     0.173 HD
HETATM   18  C4  UNL     1     -15.936   2.861  -0.617  1.00  0.00     0.290 C 
HETATM   19  O3  UNL     1     -15.307   1.755  -0.738  1.00  0.00    -0.267 OA
ENDROOT
TORSDOF 0
ENDMDL
MODEL 4
REMARK VINA RESULT: -6.416476094      2.644      3.714
REMARK  0 active torsions:
REMARK  status: ('A' for Active; 'I' for Inactive)
ROOT
HETATM    1  N1  UNL     1     -14.759   9.207  -0.238  1.00  0.00    -0.371 N 
ATOM      2  H11 UNL     1     -14.520   9.467   0.719  1.00  0.00     0.159 HD
ATOM      3  H12 UNL     1     -14.841  10.014  -0.857  1.00  0.00     0.159 HD
HETATM    4  C1  UNL     1     -14.951   7.986  -0.680  1.00  0.00     0.183 C 
HETATM    5  N2  UNL     1     -15.280   7.627  -2.001  1.00  0.00    -0.274 N 
ATOM      6  H2  UNL     1     -15.163   8.192  -2.842  1.00  0.00     0.179 HD
HETATM    7  S1  UNL     1     -15.920   6.033  -1.896  1.00  0.00     0.178 S 
HETATM    8  O1  UNL     1     -14.787   4.899  -2.462  1.00  0.00    -0.230 OA
HETATM    9  C2  UNL     1     -15.845   5.896  -0.098  1.00  0.00     0.293 C 
HETATM   10  N3  UNL     1     -14.837   6.865   0.179  1.00  0.00    -0.315 N 
ATOM     11  H3  UNL     1     -14.125   6.765   0.903  1.00  0.00     0.166 HD
HETATM   12  N4  UNL     1     -15.521   4.561   0.307  1.00  0.00    -0.296 N 
ATOM     13  H4  UNL     1     -14.592   4.159   0.436  1.00  0.00     0.168 HD
HETATM   14  C3  UNL     1     -16.795   3.909   0.491  1.00  0.00     0.326 C 
HETATM   15  O2  UNL     1     -17.022   2.670   0.533  1.00  0.00    -0.247 OA
HETATM   16  N5  UNL     1     -17.806   4.906   0.623  1.00  0.00    -0.275 N 
ATOM     17  H5  UNL     1     -18.804   4.750   0.764  1.00  0.00     0.173 HD
HETATM   18  C4  UNL     1     -17.144   6.161   0.519  1.00  0.00     0.290 C 
HETATM   19  O3  UNL     1     -17.641   7.272   0.908  1.00  0.00    -0.267 OA
ENDROOT
TORSDOF 0
ENDMDL
MODEL 5
REMARK VINA RESULT: -6.333239246      2.166      2.360
REMARK  0 active torsions:
REMARK  status: ('A' for Active; 'I' for Inactive)
ROOT
HETATM    1  N1  UNL     1     -17.267   5.491   0.910  1.00  0.00    -0.371 N 
ATOM      2  H11 UNL     1     -18.081   5.934   0.484  1.00  0.00     0.159 HD
ATOM      3  H12 UNL     1     -17.018   5.905   1.809  1.00  0.00     0.159 HD
HETATM    4  C1  UNL     1     -16.577   4.496   0.404  1.00  0.00     0.183 C 
HETATM    5  N2  UNL     1     -15.453   3.884   0.992  1.00  0.00    -0.274 N 
ATOM      6  H2  UNL     1     -15.170   3.924   1.971  1.00  0.00     0.179 HD
HETATM    7  S1  UNL     1     -14.661   3.054  -0.290  1.00  0.00     0.178 S 
HETATM    8  O1  UNL     1     -14.936   1.380  -0.173  1.00  0.00    -0.230 OA
HETATM    9  C2  UNL     1     -15.760   3.608  -1.610  1.00  0.00     0.293 C 
HETATM   10  N3  UNL     1     -16.922   3.920  -0.844  1.00  0.00    -0.315 N 
ATOM     11  H3  UNL     1     -17.879   3.750  -1.154  1.00  0.00     0.166 HD
HETATM   12  N4  UNL     1     -15.948   2.582  -2.592  1.00  0.00    -0.296 N 
ATOM     13  H4  UNL     1     -16.648   1.840  -2.591  1.00  0.00     0.168 HD
HETATM   14  C3  UNL     1     -14.929   2.829  -3.584  1.00  0.00     0.326 C 
HETATM   15  O2  UNL     1     -14.497   2.026  -4.455  1.00  0.00    -0.247 OA
HETATM   16  N5  UNL     1     -14.457   4.167  -3.435  1.00  0.00    -0.275 N 
ATOM     17  H5  UNL     1     -13.738   4.628  -3.993  1.00  0.00     0.173 HD
HETATM   18  C4  UNL     1     -15.190   4.730  -2.353  1.00  0.00     0.290 C 
HETATM   19  O3  UNL     1     -15.294   5.983  -2.127  1.00  0.00    -0.267 OA
ENDROOT
TORSDOF 0
ENDMDL
