MODEL 1
REMARK VINA RESULT: -10.027805392      0.000      0.000
REMARK  6 active torsions:
REMARK  status: ('A' for Active; 'I' for Inactive)
REMARK    1  A    between atoms: O1_1  and  C1_3 
REMARK    2  A    between atoms: C1_3  and  C2_4 
REMARK    3  A    between atoms: C1_3  and  N1_10 
REMARK    4  A    between atoms: N2_12  and  C9_13 
REMARK    5  A    between atoms: C12_16  and  O2_17 
REMARK    6  A    between atoms: N3_23  and  C16_24 
ROOT
HETATM    1  N1  UNL     1      10.894   5.332   6.722  1.00  0.00    -0.308 N 
HETATM    2  C8  UNL     1      10.288   4.045   6.384  1.00  0.00     0.268 C 
HETATM    3  N2  UNL     1       9.055   3.814   7.085  1.00  0.00    -0.282 N 
HETATM    4  C15 UNL     1       8.664   4.032   8.432  1.00  0.00     0.336 C 
HETATM    5  O3  UNL     1       7.656   3.411   8.806  1.00  0.00    -0.246 OA
HETATM    6  N3  UNL     1       9.289   4.881   9.407  1.00  0.00    -0.262 N 
HETATM    7  C22 UNL     1      10.550   5.541   9.241  1.00  0.00     0.071 A 
HETATM    8  C23 UNL     1      11.081   5.994  10.442  1.00  0.00     0.032 A 
HETATM    9  C24 UNL     1      12.297   6.642  10.472  1.00  0.00     0.002 A 
HETATM   10  C25 UNL     1      12.981   6.832   9.267  1.00  0.00     0.002 A 
HETATM   11  C26 UNL     1      12.445   6.382   8.101  1.00  0.00     0.032 A 
HETATM   12  C27 UNL     1      11.217   5.725   8.049  1.00  0.00     0.065 A 
ENDROOT
BRANCH   1  13
HETATM   13  C1  UNL     1      11.126   6.248   5.690  1.00  0.00     0.154 C 
BRANCH  13  14
HETATM   14  O1  UNL     1      10.046   6.901   5.349  1.00  0.00    -0.345 OA
ATOM     15  H1  UNL     1       9.233   6.504   5.637  1.00  0.00     0.219 HD
ENDBRANCH  13  14
BRANCH  13  16
HETATM   16  C2  UNL     1      12.300   6.605   4.955  1.00  0.00     0.015 A 
HETATM   17  C3  UNL     1      12.424   7.660   4.084  1.00  0.00     0.016 A 
HETATM   18  C4  UNL     1      13.610   7.956   3.451  1.00  0.00     0.001 A 
HETATM   19  C5  UNL     1      14.740   7.217   3.648  1.00  0.00     0.000 A 
HETATM   20  C6  UNL     1      14.658   6.149   4.513  1.00  0.00     0.001 A 
HETATM   21  C7  UNL     1      13.481   5.864   5.135  1.00  0.00     0.016 A 
ENDBRANCH  13  16
ENDBRANCH   1  13
BRANCH   3  22
HETATM   22  C9  UNL     1       8.026   3.252   6.271  1.00  0.00     0.040 A 
HETATM   23  C10 UNL     1       6.727   3.700   6.273  1.00  0.00     0.032 A 
HETATM   24  C11 UNL     1       5.773   3.131   5.456  1.00  0.00     0.039 A 
HETATM   25  C12 UNL     1       6.076   2.089   4.599  1.00  0.00     0.065 A 
HETATM   26  C13 UNL     1       7.378   1.622   4.581  1.00  0.00     0.039 A 
HETATM   27  C14 UNL     1       8.323   2.197   5.401  1.00  0.00     0.032 A 
BRANCH  25  28
HETATM   28  O2  UNL     1       5.100   1.514   3.769  1.00  0.00    -0.361 OA
ATOM     29  H2  UNL     1       5.111   1.639   2.828  1.00  0.00     0.217 HD
ENDBRANCH  25  28
ENDBRANCH   3  22
BRANCH   6  30
HETATM   30  C16 UNL     1       8.631   5.099  10.631  1.00  0.00     0.044 A 
HETATM   31  C17 UNL     1       8.637   4.090  11.583  1.00  0.00     0.030 A 
HETATM   32  C18 UNL     1       8.006   4.269  12.792  1.00  0.00     0.002 A 
HETATM   33  C19 UNL     1       7.355   5.463  13.073  1.00  0.00     0.000 A 
HETATM   34  C20 UNL     1       7.337   6.480  12.139  1.00  0.00     0.002 A 
HETATM   35  C21 UNL     1       7.976   6.272  10.941  1.00  0.00     0.030 A 
ENDBRANCH   6  30
TORSDOF 6
ENDMDL
MODEL 2
REMARK VINA RESULT: -9.798215322      0.135      1.176
REMARK  6 active torsions:
REMARK  status: ('A' for Active; 'I' for Inactive)
REMARK    1  A    between atoms: O1_1  and  C1_3 
REMARK    2  A    between atoms: C1_3  and  C2_4 
REMARK    3  A    between atoms: C1_3  and  N1_10 
REMARK    4  A    between atoms: N2_12  and  C9_13 
REMARK    5  A    between atoms: C12_16  and  O2_17 
REMARK    6  A    between atoms: N3_23  and  C16_24 
ROOT
HETATM    1  N1  UNL     1      10.976   5.388   6.827  1.00  0.00    -0.308 N 
HETATM    2  C8  UNL     1      10.388   4.102   6.456  1.00  0.00     0.268 C 
HETATM    3  N2  UNL     1       9.148   3.845   7.136  1.00  0.00    -0.282 N 
HETATM    4  C15 UNL     1       8.737   4.035   8.482  1.00  0.00     0.336 C 
HETATM    5  O3  UNL     1       7.730   3.396   8.830  1.00  0.00    -0.246 OA
HETATM    6  N3  UNL     1       9.341   4.871   9.480  1.00  0.00    -0.262 N 
HETATM    7  C22 UNL     1      10.597   5.546   9.344  1.00  0.00     0.071 A 
HETATM    8  C23 UNL     1      11.108   5.981  10.560  1.00  0.00     0.032 A 
HETATM    9  C24 UNL     1      12.316   6.640  10.619  1.00  0.00     0.002 A 
HETATM   10  C25 UNL     1      13.014   6.860   9.427  1.00  0.00     0.002 A 
HETATM   11  C26 UNL     1      12.498   6.427   8.245  1.00  0.00     0.032 A 
HETATM   12  C27 UNL     1      11.278   5.759   8.165  1.00  0.00     0.065 A 
ENDROOT
BRANCH   1  13
HETATM   13  C1  UNL     1      11.213   6.326   5.815  1.00  0.00     0.154 C 
BRANCH  13  14
HETATM   14  O1  UNL     1      10.156   7.046   5.544  1.00  0.00    -0.345 OA
ATOM     15  H1  UNL     1       9.869   7.615   6.248  1.00  0.00     0.219 HD
ENDBRANCH  13  14
BRANCH  13  16
HETATM   16  C2  UNL     1      12.372   6.646   5.041  1.00  0.00     0.015 A 
HETATM   17  C3  UNL     1      12.486   7.674   4.137  1.00  0.00     0.016 A 
HETATM   18  C4  UNL     1      13.659   7.936   3.465  1.00  0.00     0.001 A 
HETATM   19  C5  UNL     1      14.784   7.188   3.653  1.00  0.00     0.000 A 
HETATM   20  C6  UNL     1      14.712   6.146   4.551  1.00  0.00     0.001 A 
HETATM   21  C7  UNL     1      13.548   5.895   5.211  1.00  0.00     0.016 A 
ENDBRANCH  13  16
ENDBRANCH   1  13
BRANCH   3  22
HETATM   22  C9  UNL     1       8.136   3.289   6.298  1.00  0.00     0.040 A 
HETATM   23  C10 UNL     1       8.349   2.226   5.452  1.00  0.00     0.032 A 
HETATM   24  C11 UNL     1       7.332   1.717   4.674  1.00  0.00     0.039 A 
HETATM   25  C12 UNL     1       6.055   2.245   4.706  1.00  0.00     0.065 A 
HETATM   26  C13 UNL     1       5.818   3.316   5.550  1.00  0.00     0.039 A 
HETATM   27  C14 UNL     1       6.841   3.819   6.324  1.00  0.00     0.032 A 
BRANCH  25  28
HETATM   28  O2  UNL     1       5.022   1.722   3.911  1.00  0.00    -0.361 OA
ATOM     29  H2  UNL     1       4.190   2.170   3.820  1.00  0.00     0.217 HD
ENDBRANCH  25  28
ENDBRANCH   3  22
BRANCH   6  30
HETATM   30  C16 UNL     1       8.664   5.059  10.700  1.00  0.00     0.044 A 
HETATM   31  C17 UNL     1       8.043   6.275  10.941  1.00  0.00     0.030 A 
HETATM   32  C18 UNL     1       7.371   6.492  12.121  1.00  0.00     0.002 A 
HETATM   33  C19 UNL     1       7.306   5.495  13.085  1.00  0.00     0.000 A 
HETATM   34  C20 UNL     1       7.917   4.276  12.864  1.00  0.00     0.002 A 
HETATM   35  C21 UNL     1       8.581   4.089  11.677  1.00  0.00     0.030 A 
ENDBRANCH   6  30
TORSDOF 6
ENDMDL
MODEL 3
REMARK VINA RESULT: -9.443774414      1.506      1.927
REMARK  6 active torsions:
REMARK  status: ('A' for Active; 'I' for Inactive)
REMARK    1  A    between atoms: O1_1  and  C1_3 
REMARK    2  A    between atoms: C1_3  and  C2_4 
REMARK    3  A    between atoms: C1_3  and  N1_10 
REMARK    4  A    between atoms: N2_12  and  C9_13 
REMARK    5  A    between atoms: C12_16  and  O2_17 
REMARK    6  A    between atoms: N3_23  and  C16_24 
ROOT
HETATM    1  N1  UNL     1      11.505   3.495   7.327  1.00  0.00    -0.308 N 
HETATM    2  C8  UNL     1      10.423   2.569   6.997  1.00  0.00     0.268 C 
HETATM    3  N2  UNL     1       9.154   2.991   7.524  1.00  0.00    -0.282 N 
HETATM    4  C15 UNL     1       8.771   3.534   8.779  1.00  0.00     0.336 C 
HETATM    5  O3  UNL     1       7.559   3.468   9.045  1.00  0.00    -0.246 OA
HETATM    6  N3  UNL     1       9.611   4.145   9.771  1.00  0.00    -0.262 N 
HETATM    7  C22 UNL     1      11.043   4.162   9.745  1.00  0.00     0.071 A 
HETATM    8  C23 UNL     1      11.598   4.492  10.974  1.00  0.00     0.032 A 
HETATM    9  C24 UNL     1      12.966   4.543  11.136  1.00  0.00     0.002 A 
HETATM   10  C25 UNL     1      13.778   4.257  10.034  1.00  0.00     0.002 A 
HETATM   11  C26 UNL     1      13.216   3.936   8.838  1.00  0.00     0.032 A 
HETATM   12  C27 UNL     1      11.836   3.879   8.654  1.00  0.00     0.065 A 
ENDROOT
BRANCH   1  13
HETATM   13  C1  UNL     1      12.225   4.075   6.275  1.00  0.00     0.154 C 
BRANCH  13  14
HETATM   14  O1  UNL     1      13.197   3.310   5.854  1.00  0.00    -0.345 OA
ATOM     15  H1  UNL     1      13.836   3.076   6.516  1.00  0.00     0.219 HD
ENDBRANCH  13  14
BRANCH  13  16
HETATM   16  C2  UNL     1      12.097   5.320   5.584  1.00  0.00     0.015 A 
HETATM   17  C3  UNL     1      11.019   6.170   5.633  1.00  0.00     0.016 A 
HETATM   18  C4  UNL     1      11.000   7.373   4.966  1.00  0.00     0.001 A 
HETATM   19  C5  UNL     1      12.052   7.800   4.210  1.00  0.00     0.000 A 
HETATM   20  C6  UNL     1      13.154   6.977   4.133  1.00  0.00     0.001 A 
HETATM   21  C7  UNL     1      13.164   5.788   4.797  1.00  0.00     0.016 A 
ENDBRANCH  13  16
ENDBRANCH   1  13
BRANCH   3  22
HETATM   22  C9  UNL     1       8.070   2.832   6.611  1.00  0.00     0.040 A 
HETATM   23  C10 UNL     1       6.925   3.592   6.652  1.00  0.00     0.032 A 
HETATM   24  C11 UNL     1       5.911   3.407   5.736  1.00  0.00     0.039 A 
HETATM   25  C12 UNL     1       5.996   2.456   4.737  1.00  0.00     0.065 A 
HETATM   26  C13 UNL     1       7.140   1.679   4.677  1.00  0.00     0.039 A 
HETATM   27  C14 UNL     1       8.147   1.871   5.597  1.00  0.00     0.032 A 
BRANCH  25  28
HETATM   28  O2  UNL     1       4.960   2.272   3.807  1.00  0.00    -0.361 OA
ATOM     29  H2  UNL     1       4.150   2.765   3.862  1.00  0.00     0.217 HD
ENDBRANCH  25  28
ENDBRANCH   3  22
BRANCH   6  30
HETATM   30  C16 UNL     1       9.002   4.786  10.865  1.00  0.00     0.044 A 
HETATM   31  C17 UNL     1       8.730   6.144  10.780  1.00  0.00     0.030 A 
HETATM   32  C18 UNL     1       8.133   6.802  11.830  1.00  0.00     0.002 A 
HETATM   33  C19 UNL     1       7.796   6.114  12.988  1.00  0.00     0.000 A 
HETATM   34  C20 UNL     1       8.057   4.762  13.093  1.00  0.00     0.002 A 
HETATM   35  C21 UNL     1       8.654   4.133  12.028  1.00  0.00     0.030 A 
ENDBRANCH   6  30
TORSDOF 6
ENDMDL
MODEL 4
REMARK VINA RESULT: -7.305897811      1.825      6.522
REMARK  6 active torsions:
REMARK  status: ('A' for Active; 'I' for Inactive)
REMARK    1  A    between atoms: O1_1  and  C1_3 
REMARK    2  A    between atoms: C1_3  and  C2_4 
REMARK    3  A    between atoms: C1_3  and  N1_10 
REMARK    4  A    between atoms: N2_12  and  C9_13 
REMARK    5  A    between atoms: C12_16  and  O2_17 
REMARK    6  A    between atoms: N3_23  and  C16_24 
ROOT
HETATM    1  N1  UNL     1      10.026   5.018   9.083  1.00  0.00    -0.308 N 
HETATM    2  C8  UNL     1      11.176   4.874   8.191  1.00  0.00     0.268 C 
HETATM    3  N2  UNL     1      10.793   4.741   6.813  1.00  0.00    -0.282 N 
HETATM    4  C15 UNL     1       9.767   3.997   6.171  1.00  0.00     0.336 C 
HETATM    5  O3  UNL     1       9.916   3.820   4.951  1.00  0.00    -0.246 OA
HETATM    6  N3  UNL     1       8.587   3.431   6.760  1.00  0.00    -0.262 N 
HETATM    7  C22 UNL     1       8.313   3.365   8.165  1.00  0.00     0.071 A 
HETATM    8  C23 UNL     1       7.301   2.466   8.473  1.00  0.00     0.032 A 
HETATM    9  C24 UNL     1       6.914   2.265   9.780  1.00  0.00     0.002 A 
HETATM   10  C25 UNL     1       7.566   2.986  10.786  1.00  0.00     0.002 A 
HETATM   11  C26 UNL     1       8.555   3.862  10.465  1.00  0.00     0.032 A 
HETATM   12  C27 UNL     1       8.960   4.080   9.150  1.00  0.00     0.065 A 
ENDROOT
BRANCH   1  13
HETATM   13  C1  UNL     1       9.943   6.165   9.881  1.00  0.00     0.154 C 
BRANCH  13  14
HETATM   14  O1  UNL     1       8.774   6.742   9.807  1.00  0.00    -0.345 OA
ATOM     15  H1  UNL     1       8.732   7.611  10.187  1.00  0.00     0.219 HD
ENDBRANCH  13  14
BRANCH  13  16
HETATM   16  C2  UNL     1      10.877   6.809  10.752  1.00  0.00     0.015 A 
HETATM   17  C3  UNL     1      12.132   7.251  10.412  1.00  0.00     0.016 A 
HETATM   18  C4  UNL     1      12.950   7.902  11.307  1.00  0.00     0.001 A 
HETATM   19  C5  UNL     1      12.566   8.149  12.592  1.00  0.00     0.000 A 
HETATM   20  C6  UNL     1      11.315   7.721  12.975  1.00  0.00     0.001 A 
HETATM   21  C7  UNL     1      10.512   7.078  12.082  1.00  0.00     0.016 A 
ENDBRANCH  13  16
ENDBRANCH   1  13
BRANCH   3  22
HETATM   22  C9  UNL     1      11.601   5.500   5.914  1.00  0.00     0.040 A 
HETATM   23  C10 UNL     1      12.913   5.199   5.635  1.00  0.00     0.032 A 
HETATM   24  C11 UNL     1      13.646   5.956   4.747  1.00  0.00     0.039 A 
HETATM   25  C12 UNL     1      13.102   7.048   4.096  1.00  0.00     0.065 A 
HETATM   26  C13 UNL     1      11.783   7.369   4.364  1.00  0.00     0.039 A 
HETATM   27  C14 UNL     1      11.058   6.607   5.252  1.00  0.00     0.032 A 
BRANCH  25  28
HETATM   28  O2  UNL     1      13.854   7.816   3.193  1.00  0.00    -0.361 OA
ATOM     29  H2  UNL     1      14.540   8.402   3.490  1.00  0.00     0.217 HD
ENDBRANCH  25  28
ENDBRANCH   3  22
BRANCH   6  30
HETATM   30  C16 UNL     1       7.604   2.891   5.910  1.00  0.00     0.044 A 
HETATM   31  C17 UNL     1       6.353   3.488   5.868  1.00  0.00     0.030 A 
HETATM   32  C18 UNL     1       5.369   2.988   5.047  1.00  0.00     0.002 A 
HETATM   33  C19 UNL     1       5.619   1.878   4.250  1.00  0.00     0.000 A 
HETATM   34  C20 UNL     1       6.858   1.269   4.276  1.00  0.00     0.002 A 
HETATM   35  C21 UNL     1       7.819   1.791   5.106  1.00  0.00     0.030 A 
ENDBRANCH   6  30
TORSDOF 6
ENDMDL
MODEL 5
REMARK VINA RESULT: -7.177766589      1.631      5.890
REMARK  6 active torsions:
REMARK  status: ('A' for Active; 'I' for Inactive)
REMARK    1  A    between atoms: O1_1  and  C1_3 
REMARK    2  A    between atoms: C1_3  and  C2_4 
REMARK    3  A    between atoms: C1_3  and  N1_10 
REMARK    4  A    between atoms: N2_12  and  C9_13 
REMARK    5  A    between atoms: C12_16  and  O2_17 
REMARK    6  A    between atoms: N3_23  and  C16_24 
ROOT
HETATM    1  N1  UNL     1       9.732   5.052   9.182  1.00  0.00    -0.308 N 
HETATM    2  C8  UNL     1       8.597   4.985   8.264  1.00  0.00     0.268 C 
HETATM    3  N2  UNL     1       9.001   4.779   6.901  1.00  0.00    -0.282 N 
HETATM    4  C15 UNL     1      10.043   5.339   6.115  1.00  0.00     0.336 C 
HETATM    5  O3  UNL     1       9.914   5.218   4.886  1.00  0.00    -0.246 OA
HETATM    6  N3  UNL     1      11.222   6.022   6.570  1.00  0.00    -0.262 N 
HETATM    7  C22 UNL     1      11.475   6.423   7.922  1.00  0.00     0.071 A 
HETATM    8  C23 UNL     1      12.494   7.361   8.022  1.00  0.00     0.032 A 
HETATM    9  C24 UNL     1      12.863   7.869   9.248  1.00  0.00     0.002 A 
HETATM   10  C25 UNL     1      12.190   7.416  10.388  1.00  0.00     0.002 A 
HETATM   11  C26 UNL     1      11.196   6.495  10.270  1.00  0.00     0.032 A 
HETATM   12  C27 UNL     1      10.807   5.970   9.040  1.00  0.00     0.065 A 
ENDROOT
BRANCH   1  13
HETATM   13  C1  UNL     1       9.790   4.130  10.235  1.00  0.00     0.154 C 
BRANCH  13  14
HETATM   14  O1  UNL     1       8.655   3.512  10.420  1.00  0.00    -0.345 OA
ATOM     15  H1  UNL     1       8.692   2.569  10.314  1.00  0.00     0.219 HD
ENDBRANCH  13  14
BRANCH  13  16
HETATM   16  C2  UNL     1      10.839   3.740  11.125  1.00  0.00     0.015 A 
HETATM   17  C3  UNL     1      10.750   3.642  12.492  1.00  0.00     0.016 A 
HETATM   18  C4  UNL     1      11.802   3.215  13.270  1.00  0.00     0.001 A 
HETATM   19  C5  UNL     1      13.004   2.861  12.731  1.00  0.00     0.000 A 
HETATM   20  C6  UNL     1      13.137   2.946  11.363  1.00  0.00     0.001 A 
HETATM   21  C7  UNL     1      12.090   3.370  10.602  1.00  0.00     0.016 A 
ENDBRANCH  13  16
ENDBRANCH   1  13
BRANCH   3  22
HETATM   22  C9  UNL     1       8.197   3.833   6.198  1.00  0.00     0.040 A 
HETATM   23  C10 UNL     1       8.710   2.744   5.534  1.00  0.00     0.032 A 
HETATM   24  C11 UNL     1       7.888   1.851   4.882  1.00  0.00     0.039 A 
HETATM   25  C12 UNL     1       6.514   2.004   4.865  1.00  0.00     0.065 A 
HETATM   26  C13 UNL     1       5.975   3.094   5.526  1.00  0.00     0.039 A 
HETATM   27  C14 UNL     1       6.805   3.981   6.174  1.00  0.00     0.032 A 
BRANCH  25  28
HETATM   28  O2  UNL     1       5.681   1.090   4.199  1.00  0.00    -0.361 OA
ATOM     29  H2  UNL     1       4.770   1.289   4.019  1.00  0.00     0.217 HD
ENDBRANCH  25  28
ENDBRANCH   3  22
BRANCH   6  30
HETATM   30  C16 UNL     1      12.222   6.335   5.632  1.00  0.00     0.044 A 
HETATM   31  C17 UNL     1      13.408   5.616   5.652  1.00  0.00     0.030 A 
HETATM   32  C18 UNL     1      14.407   5.893   4.748  1.00  0.00     0.002 A 
HETATM   33  C19 UNL     1      14.238   6.896   3.803  1.00  0.00     0.000 A 
HETATM   34  C20 UNL     1      13.065   7.624   3.765  1.00  0.00     0.002 A 
HETATM   35  C21 UNL     1      12.087   7.324   4.681  1.00  0.00     0.030 A 
ENDBRANCH   6  30
TORSDOF 6
ENDMDL
