MODEL 1
REMARK VINA RESULT: -7.699318708      0.000      0.000
REMARK  7 active torsions:
REMARK  status: ('A' for Active; 'I' for Inactive)
REMARK    1  A    between atoms: N1_3  and  C4_5 
REMARK    2  A    between atoms: C4_5  and  C5_6 
REMARK    3  A    between atoms: C5_6  and  N2_7 
REMARK    4  A    between atoms: N2_7  and  C6_9 
REMARK    5  A    between atoms: C6_9  and  C7_10 
REMARK    6  A    between atoms: C7_10  and  N3_11 
REMARK    7  A    between atoms: N3_11  and  C8_13 
ROOT
HETATM    1  C1  UNL     1      37.230  41.542  22.256  1.00  0.00     0.123 C 
HETATM    2  C2  UNL     1      36.035  41.674  22.022  1.00  0.00    -0.078 C 
HETATM    3  N1  UNL     1      34.683  41.823  21.728  1.00  0.00    -0.355 N 
HETATM    4  C3  UNL     1      34.307  42.281  20.392  1.00  0.00     0.159 C 
ENDROOT
BRANCH   3   5
HETATM    5  C4  UNL     1      33.637  41.540  22.702  1.00  0.00     0.150 C 
BRANCH   5   6
HETATM    6  C5  UNL     1      32.285  41.538  22.032  1.00  0.00     0.134 C 
BRANCH   6   7
HETATM    7  N2  UNL     1      31.214  41.977  22.839  1.00  0.00    -0.415 N 
ATOM      8  H2  UNL     1      31.212  42.898  23.276  1.00  0.00     0.153 HD
BRANCH   7   9
HETATM    9  C6  UNL     1      30.143  41.070  23.009  1.00  0.00     0.158 C 
BRANCH   9  10
HETATM   10  C7  UNL     1      30.164  39.967  21.987  1.00  0.00     0.082 C 
BRANCH  10  11
HETATM   11  N3  UNL     1      29.491  40.149  20.794  1.00  0.00    -0.353 N 
ATOM     12  H3  UNL     1      29.401  39.262  20.300  1.00  0.00     0.166 HD
BRANCH  11  13
HETATM   13  C8  UNL     1      28.959  41.066  20.138  1.00  0.00     0.128 A 
HETATM   14  N4  UNL     1      27.789  41.655  20.370  1.00  0.00    -0.344 N 
HETATM   15  C9  UNL     1      27.258  42.665  19.626  1.00  0.00     0.025 A 
ATOM     16  H4  UNL     1      27.247  41.326  21.169  1.00  0.00     0.167 HD
HETATM   17  C10 UNL     1      25.943  43.255  19.982  1.00  0.00     0.069 C 
HETATM   18  C11 UNL     1      27.931  43.156  18.538  1.00  0.00     0.083 A 
HETATM   19  C12 UNL     1      27.401  44.173  17.787  1.00  0.00     0.262 A 
HETATM   20  C14 UNL     1      29.160  42.578  18.243  1.00  0.00     0.076 A 
HETATM   21  O1  UNL     1      26.285  44.716  18.030  1.00  0.00    -0.267 OA
HETATM   22  N5  UNL     1      28.130  44.610  16.720  1.00  0.00    -0.299 N 
HETATM   23  C13 UNL     1      29.312  44.060  16.429  1.00  0.00     0.179 A 
ATOM     24  H5  UNL     1      27.768  45.366  16.138  1.00  0.00     0.171 HD
HETATM   25  S1  UNL     1      30.163  44.621  15.128  1.00  0.00    -0.040 SA
HETATM   26  N6  UNL     1      29.838  43.061  17.163  1.00  0.00    -0.331 N 
ATOM     27  H6  UNL     1      30.744  42.666  16.910  1.00  0.00     0.168 HD
HETATM   28  C15 UNL     1      29.658  41.570  19.011  1.00  0.00     0.116 A 
HETATM   29  C16 UNL     1      30.915  40.979  18.702  1.00  0.00     0.105 C 
HETATM   30  N7  UNL     1      31.943  40.513  18.441  1.00  0.00    -0.191 NA
ENDBRANCH  11  13
ENDBRANCH  10  11
ENDBRANCH   9  10
ENDBRANCH   7   9
ENDBRANCH   6   7
ENDBRANCH   5   6
ENDBRANCH   3   5
TORSDOF 7
ENDMDL
MODEL 2
REMARK VINA RESULT: -7.570573339      1.116      1.256
REMARK  7 active torsions:
REMARK  status: ('A' for Active; 'I' for Inactive)
REMARK    1  A    between atoms: N1_3  and  C4_5 
REMARK    2  A    between atoms: C4_5  and  C5_6 
REMARK    3  A    between atoms: C5_6  and  N2_7 
REMARK    4  A    between atoms: N2_7  and  C6_9 
REMARK    5  A    between atoms: C6_9  and  C7_10 
REMARK    6  A    between atoms: C7_10  and  N3_11 
REMARK    7  A    between atoms: N3_11  and  C8_13 
ROOT
HETATM    1  C1  UNL     1      37.827  41.631  22.266  1.00  0.00     0.123 C 
HETATM    2  C2  UNL     1      36.607  41.580  22.178  1.00  0.00    -0.078 C 
HETATM    3  N1  UNL     1      35.221  41.496  22.087  1.00  0.00    -0.355 N 
HETATM    4  C3  UNL     1      34.605  40.171  22.042  1.00  0.00     0.159 C 
ENDROOT
BRANCH   3   5
HETATM    5  C4  UNL     1      34.369  42.676  22.038  1.00  0.00     0.150 C 
BRANCH   5   6
HETATM    6  C5  UNL     1      33.084  42.426  22.791  1.00  0.00     0.134 C 
BRANCH   6   7
HETATM    7  N2  UNL     1      32.133  43.466  22.718  1.00  0.00    -0.415 N 
ATOM      8  H2  UNL     1      32.385  44.404  22.406  1.00  0.00     0.153 HD
BRANCH   7   9
HETATM    9  C6  UNL     1      30.813  43.138  23.103  1.00  0.00     0.158 C 
BRANCH   9  10
HETATM   10  C7  UNL     1      30.517  41.674  22.924  1.00  0.00     0.082 C 
BRANCH  10  11
HETATM   11  N3  UNL     1      29.885  41.257  21.768  1.00  0.00    -0.353 N 
ATOM     12  H3  UNL     1      29.917  40.241  21.695  1.00  0.00     0.166 HD
BRANCH  11  13
HETATM   13  C8  UNL     1      29.289  41.744  20.788  1.00  0.00     0.128 A 
HETATM   14  N4  UNL     1      28.030  42.175  20.737  1.00  0.00    -0.344 N 
HETATM   15  C9  UNL     1      27.429  42.711  19.639  1.00  0.00     0.025 A 
ATOM     16  H4  UNL     1      27.472  42.098  21.587  1.00  0.00     0.167 HD
HETATM   17  C10 UNL     1      26.017  43.167  19.698  1.00  0.00     0.069 C 
HETATM   18  C11 UNL     1      28.118  42.843  18.462  1.00  0.00     0.083 A 
HETATM   19  C12 UNL     1      27.517  43.384  17.356  1.00  0.00     0.262 A 
HETATM   20  C14 UNL     1      29.438  42.408  18.452  1.00  0.00     0.076 A 
HETATM   21  O1  UNL     1      26.318  43.786  17.334  1.00  0.00    -0.267 OA
HETATM   22  N5  UNL     1      28.267  43.485  16.221  1.00  0.00    -0.299 N 
HETATM   23  C13 UNL     1      29.537  43.070  16.202  1.00  0.00     0.179 A 
ATOM     24  H5  UNL     1      27.855  43.883  15.377  1.00  0.00     0.171 HD
HETATM   25  S1  UNL     1      30.410  43.211  14.806  1.00  0.00    -0.040 SA
HETATM   26  N6  UNL     1      30.133  42.537  17.286  1.00  0.00    -0.331 N 
ATOM     27  H6  UNL     1      31.104  42.231  17.235  1.00  0.00     0.168 HD
HETATM   28  C15 UNL     1      30.004  41.878  19.571  1.00  0.00     0.116 A 
HETATM   29  C16 UNL     1      31.355  41.430  19.554  1.00  0.00     0.105 C 
HETATM   30  N7  UNL     1      32.458  41.076  19.525  1.00  0.00    -0.191 NA
ENDBRANCH  11  13
ENDBRANCH  10  11
ENDBRANCH   9  10
ENDBRANCH   7   9
ENDBRANCH   6   7
ENDBRANCH   5   6
ENDBRANCH   3   5
TORSDOF 7
ENDMDL
MODEL 3
REMARK VINA RESULT: -7.278469411      1.242      1.257
REMARK  7 active torsions:
REMARK  status: ('A' for Active; 'I' for Inactive)
REMARK    1  A    between atoms: N1_3  and  C4_5 
REMARK    2  A    between atoms: C4_5  and  C5_6 
REMARK    3  A    between atoms: C5_6  and  N2_7 
REMARK    4  A    between atoms: N2_7  and  C6_9 
REMARK    5  A    between atoms: C6_9  and  C7_10 
REMARK    6  A    between atoms: C7_10  and  N3_11 
REMARK    7  A    between atoms: N3_11  and  C8_13 
ROOT
HETATM    1  C1  UNL     1      36.276  41.551  22.007  1.00  0.00     0.123 C 
HETATM    2  C2  UNL     1      35.063  41.691  21.907  1.00  0.00    -0.078 C 
HETATM    3  N1  UNL     1      33.687  41.837  21.767  1.00  0.00    -0.355 N 
HETATM    4  C3  UNL     1      33.096  41.645  20.444  1.00  0.00     0.159 C 
ENDROOT
BRANCH   3   5
HETATM    5  C4  UNL     1      32.820  42.171  22.889  1.00  0.00     0.150 C 
BRANCH   5   6
HETATM    6  C5  UNL     1      31.698  43.072  22.434  1.00  0.00     0.134 C 
BRANCH   6   7
HETATM    7  N2  UNL     1      30.398  42.565  22.644  1.00  0.00    -0.415 N 
ATOM      8  H2  UNL     1      29.566  43.127  22.464  1.00  0.00     0.153 HD
BRANCH   7   9
HETATM    9  C6  UNL     1      30.311  41.235  23.116  1.00  0.00     0.158 C 
BRANCH   9  10
HETATM   10  C7  UNL     1      29.738  40.302  22.085  1.00  0.00     0.082 C 
BRANCH  10  11
HETATM   11  N3  UNL     1      29.657  40.725  20.773  1.00  0.00    -0.353 N 
ATOM     12  H3  UNL     1      30.480  40.424  20.252  1.00  0.00     0.166 HD
BRANCH  11  13
HETATM   13  C8  UNL     1      28.885  41.363  20.031  1.00  0.00     0.128 A 
HETATM   14  N4  UNL     1      27.825  42.084  20.391  1.00  0.00    -0.344 N 
HETATM   15  C9  UNL     1      27.019  42.774  19.538  1.00  0.00     0.025 A 
ATOM     16  H4  UNL     1      27.599  42.123  21.385  1.00  0.00     0.167 HD
HETATM   17  C10 UNL     1      25.864  43.553  20.053  1.00  0.00     0.069 C 
HETATM   18  C11 UNL     1      27.262  42.764  18.189  1.00  0.00     0.083 A 
HETATM   19  C12 UNL     1      26.454  43.459  17.327  1.00  0.00     0.262 A 
HETATM   20  C14 UNL     1      28.356  42.027  17.751  1.00  0.00     0.076 A 
HETATM   21  O1  UNL     1      25.453  44.137  17.696  1.00  0.00    -0.267 OA
HETATM   22  N5  UNL     1      26.761  43.405  15.999  1.00  0.00    -0.299 N 
HETATM   23  C13 UNL     1      27.810  42.698  15.569  1.00  0.00     0.179 A 
ATOM     24  H5  UNL     1      26.183  43.909  15.327  1.00  0.00     0.171 HD
HETATM   25  S1  UNL     1      28.146  42.659  13.951  1.00  0.00    -0.040 SA
HETATM   26  N6  UNL     1      28.608  42.013  16.410  1.00  0.00    -0.331 N 
ATOM     27  H6  UNL     1      29.400  41.485  16.046  1.00  0.00     0.168 HD
HETATM   28  C15 UNL     1      29.138  41.351  18.636  1.00  0.00     0.116 A 
HETATM   29  C16 UNL     1      30.254  40.593  18.181  1.00  0.00     0.105 C 
HETATM   30  N7  UNL     1      31.163  39.986  17.795  1.00  0.00    -0.191 NA
ENDBRANCH  11  13
ENDBRANCH  10  11
ENDBRANCH   9  10
ENDBRANCH   7   9
ENDBRANCH   6   7
ENDBRANCH   5   6
ENDBRANCH   3   5
TORSDOF 7
ENDMDL
MODEL 4
REMARK VINA RESULT: -7.212700385      4.952      6.278
REMARK  7 active torsions:
REMARK  status: ('A' for Active; 'I' for Inactive)
REMARK    1  A    between atoms: N1_3  and  C4_5 
REMARK    2  A    between atoms: C4_5  and  C5_6 
REMARK    3  A    between atoms: C5_6  and  N2_7 
REMARK    4  A    between atoms: N2_7  and  C6_9 
REMARK    5  A    between atoms: C6_9  and  C7_10 
REMARK    6  A    between atoms: C7_10  and  N3_11 
REMARK    7  A    between atoms: N3_11  and  C8_13 
ROOT
HETATM    1  C1  UNL     1      36.707  41.556  22.008  1.00  0.00     0.123 C 
HETATM    2  C2  UNL     1      35.494  41.677  21.888  1.00  0.00    -0.078 C 
HETATM    3  N1  UNL     1      34.119  41.842  21.755  1.00  0.00    -0.355 N 
HETATM    4  C3  UNL     1      33.512  43.070  22.265  1.00  0.00     0.159 C 
ENDROOT
BRANCH   3   5
HETATM    5  C4  UNL     1      33.270  40.838  21.128  1.00  0.00     0.150 C 
BRANCH   5   6
HETATM    6  C5  UNL     1      32.213  41.503  20.280  1.00  0.00     0.134 C 
BRANCH   6   7
HETATM    7  N2  UNL     1      32.289  41.226  18.899  1.00  0.00    -0.415 N 
ATOM      8  H2  UNL     1      33.167  41.295  18.384  1.00  0.00     0.153 HD
BRANCH   7   9
HETATM    9  C6  UNL     1      31.081  40.850  18.266  1.00  0.00     0.158 C 
BRANCH   9  10
HETATM   10  C7  UNL     1      31.303  39.841  17.174  1.00  0.00     0.082 C 
BRANCH  10  11
HETATM   11  N3  UNL     1      32.374  40.008  16.317  1.00  0.00    -0.353 N 
ATOM     12  H3  UNL     1      33.080  39.294  16.490  1.00  0.00     0.166 HD
BRANCH  11  13
HETATM   13  C8  UNL     1      32.740  40.765  15.397  1.00  0.00     0.128 A 
HETATM   14  N4  UNL     1      32.154  41.888  14.989  1.00  0.00    -0.344 N 
HETATM   15  C9  UNL     1      32.603  42.687  13.983  1.00  0.00     0.025 A 
ATOM     16  H4  UNL     1      31.300  42.173  15.469  1.00  0.00     0.167 HD
HETATM   17  C10 UNL     1      31.871  43.925  13.616  1.00  0.00     0.069 C 
HETATM   18  C11 UNL     1      33.743  42.364  13.293  1.00  0.00     0.083 A 
HETATM   19  C12 UNL     1      34.200  43.167  12.281  1.00  0.00     0.262 A 
HETATM   20  C14 UNL     1      34.400  41.199  13.673  1.00  0.00     0.076 A 
HETATM   21  O1  UNL     1      33.623  44.230  11.913  1.00  0.00    -0.267 OA
HETATM   22  N5  UNL     1      35.343  42.781  11.643  1.00  0.00    -0.299 N 
HETATM   23  C13 UNL     1      35.981  41.663  12.000  1.00  0.00     0.179 A 
ATOM     24  H5  UNL     1      35.714  43.353  10.884  1.00  0.00     0.171 HD
HETATM   25  S1  UNL     1      37.362  41.233  11.201  1.00  0.00    -0.040 SA
HETATM   26  N6  UNL     1      35.537  40.871  12.994  1.00  0.00    -0.331 N 
ATOM     27  H6  UNL     1      36.050  40.024  13.240  1.00  0.00     0.168 HD
HETATM   28  C15 UNL     1      33.919  40.427  14.685  1.00  0.00     0.116 A 
HETATM   29  C16 UNL     1      34.593  39.232  15.066  1.00  0.00     0.105 C 
HETATM   30  N7  UNL     1      35.158  38.267  15.368  1.00  0.00    -0.191 NA
ENDBRANCH  11  13
ENDBRANCH  10  11
ENDBRANCH   9  10
ENDBRANCH   7   9
ENDBRANCH   6   7
ENDBRANCH   5   6
ENDBRANCH   3   5
TORSDOF 7
ENDMDL
MODEL 5
REMARK VINA RESULT: -7.122030658      2.350      3.345
REMARK  7 active torsions:
REMARK  status: ('A' for Active; 'I' for Inactive)
REMARK    1  A    between atoms: N1_3  and  C4_5 
REMARK    2  A    between atoms: C4_5  and  C5_6 
REMARK    3  A    between atoms: C5_6  and  N2_7 
REMARK    4  A    between atoms: N2_7  and  C6_9 
REMARK    5  A    between atoms: C6_9  and  C7_10 
REMARK    6  A    between atoms: C7_10  and  N3_11 
REMARK    7  A    between atoms: N3_11  and  C8_13 
ROOT
HETATM    1  C1  UNL     1      36.355  41.547  21.999  1.00  0.00     0.123 C 
HETATM    2  C2  UNL     1      35.142  41.694  21.910  1.00  0.00    -0.078 C 
HETATM    3  N1  UNL     1      33.764  41.844  21.786  1.00  0.00    -0.355 N 
HETATM    4  C3  UNL     1      33.141  41.526  20.502  1.00  0.00     0.159 C 
ENDROOT
BRANCH   3   5
HETATM    5  C4  UNL     1      32.927  42.302  22.887  1.00  0.00     0.150 C 
BRANCH   5   6
HETATM    6  C5  UNL     1      31.828  43.199  22.370  1.00  0.00     0.134 C 
BRANCH   6   7
HETATM    7  N2  UNL     1      30.517  42.786  22.688  1.00  0.00    -0.415 N 
ATOM      8  H2  UNL     1      29.723  43.422  22.626  1.00  0.00     0.153 HD
BRANCH   7   9
HETATM    9  C6  UNL     1      30.364  41.441  23.099  1.00  0.00     0.158 C 
BRANCH   9  10
HETATM   10  C7  UNL     1      29.437  40.674  22.198  1.00  0.00     0.082 C 
BRANCH  10  11
HETATM   11  N3  UNL     1      29.009  41.262  21.023  1.00  0.00    -0.353 N 
ATOM     12  H3  UNL     1      28.394  42.050  21.225  1.00  0.00     0.166 HD
BRANCH  11  13
HETATM   13  C8  UNL     1      29.145  41.124  19.792  1.00  0.00     0.128 A 
HETATM   14  N4  UNL     1      30.130  40.499  19.150  1.00  0.00    -0.344 N 
HETATM   15  C9  UNL     1      30.225  40.366  17.798  1.00  0.00     0.025 A 
ATOM     16  H4  UNL     1      30.872  40.087  19.716  1.00  0.00     0.167 HD
HETATM   17  C10 UNL     1      31.367  39.640  17.189  1.00  0.00     0.069 C 
HETATM   18  C11 UNL     1      29.265  40.897  16.977  1.00  0.00     0.083 A 
HETATM   19  C12 UNL     1      29.355  40.764  15.616  1.00  0.00     0.262 A 
HETATM   20  C14 UNL     1      28.210  41.564  17.590  1.00  0.00     0.076 A 
HETATM   21  O1  UNL     1      30.302  40.164  15.031  1.00  0.00    -0.267 OA
HETATM   22  N5  UNL     1      28.360  41.316  14.865  1.00  0.00    -0.299 N 
HETATM   23  C13 UNL     1      27.343  41.960  15.444  1.00  0.00     0.179 A 
ATOM     24  H5  UNL     1      28.393  41.237  13.848  1.00  0.00     0.171 HD
HETATM   25  S1  UNL     1      26.158  42.614  14.496  1.00  0.00    -0.040 SA
HETATM   26  N6  UNL     1      27.248  42.094  16.781  1.00  0.00    -0.331 N 
ATOM     27  H6  UNL     1      26.457  42.592  17.188  1.00  0.00     0.168 HD
HETATM   28  C15 UNL     1      28.150  41.676  18.945  1.00  0.00     0.116 A 
HETATM   29  C16 UNL     1      27.071  42.364  19.567  1.00  0.00     0.105 C 
HETATM   30  N7  UNL     1      26.182  42.922  20.057  1.00  0.00    -0.191 NA
ENDBRANCH  11  13
ENDBRANCH  10  11
ENDBRANCH   9  10
ENDBRANCH   7   9
ENDBRANCH   6   7
ENDBRANCH   5   6
ENDBRANCH   3   5
TORSDOF 7
ENDMDL
