MODEL 1
REMARK VINA RESULT: -8.188124656      0.000      0.000
REMARK  9 active torsions:
REMARK  status: ('A' for Active; 'I' for Inactive)
REMARK    1  A    between atoms: C2_2  and  C3_3 
REMARK    2  A    between atoms: C2_2  and  C8_16 
REMARK    3  A    between atoms: C3_3  and  C4_4 
REMARK    4  A    between atoms: C4_4  and  N2_7 
REMARK    5  A    between atoms: N2_7  and  O1_8 
REMARK    6  A    between atoms: O1_8  and  C6_9 
REMARK    7  A    between atoms: C6_9  and  C7_11 
REMARK    8  A    between atoms: C7_11  and  N3_12 
REMARK       I    between atoms: C8_16  and  N4_18 
REMARK       I    between atoms: N4_18  and  C9_20 
REMARK    9  A    between atoms: C9_20  and  C10_22 
ROOT
HETATM    1  C4  UNL     1       0.842   7.126  16.658  1.00  0.00     0.214 C 
HETATM    2  C5  UNL     1       2.176   7.294  16.028  1.00  0.00     0.083 C 
HETATM    3  N1  UNL     1       3.215   7.410  15.542  1.00  0.00    -0.195 NA
ENDROOT
BRANCH   1   4
HETATM    4  C3  UNL     1      -0.108   8.084  15.990  1.00  0.00     0.052 C 
BRANCH   4   5
HETATM    5  C2  UNL     1      -0.552   7.700  14.624  1.00  0.00     0.076 C 
HETATM    6  C1  UNL     1      -1.890   8.432  14.395  1.00  0.00     0.020 C 
BRANCH   5   7
HETATM    7  C8  UNL     1      -0.885   6.266  14.482  1.00  0.00     0.228 C 
HETATM    8  O3  UNL     1      -1.845   5.802  15.127  1.00  0.00    -0.273 OA
HETATM    9  N4  UNL     1      -0.123   5.428  13.624  1.00  0.00    -0.293 N 
HETATM   10  C9  UNL     1      -0.408   4.064  13.464  1.00  0.00     0.258 C 
ATOM     11  H4  UNL     1       0.658   5.832  13.107  1.00  0.00     0.172 HD
HETATM   12  O4  UNL     1      -1.395   3.597  14.129  1.00  0.00    -0.267 OA
BRANCH  10  13
HETATM   13  C10 UNL     1       0.345   3.181  12.601  1.00  0.00     0.032 A 
HETATM   14  C11 UNL     1       1.214   2.258  13.170  1.00  0.00     0.017 A 
HETATM   15  C12 UNL     1       1.948   1.402  12.380  1.00  0.00     0.001 A 
HETATM   16  C13 UNL     1       1.862   1.414  11.018  1.00  0.00     0.000 A 
HETATM   17  C14 UNL     1       1.007   2.320  10.447  1.00  0.00     0.001 A 
HETATM   18  C15 UNL     1       0.262   3.189  11.230  1.00  0.00     0.017 A 
ENDBRANCH  10  13
ENDBRANCH   5   7
ENDBRANCH   4   5
ENDBRANCH   1   4
BRANCH   1  19
HETATM   19  N2  UNL     1       0.944   7.550  18.044  1.00  0.00    -0.072 NA
BRANCH  19  20
HETATM   20  O1  UNL     1       0.413   8.813  18.222  1.00  0.00    -0.204 OA
BRANCH  20  21
HETATM   21  C6  UNL     1      -0.203   9.205  19.395  1.00  0.00     0.302 C 
HETATM   22  O2  UNL     1       0.533   9.549  20.347  1.00  0.00    -0.262 OA
BRANCH  21  23
HETATM   23  C7  UNL     1      -1.667   9.242  19.585  1.00  0.00     0.341 C 
BRANCH  23  24
HETATM   24  N3  UNL     1      -2.067   8.043  20.285  1.00  0.00    -0.070 N 
ATOM     25  H33 UNL     1      -1.370   7.301  20.222  1.00  0.00     0.274 HD
ATOM     26  H32 UNL     1      -2.055   8.158  21.298  1.00  0.00     0.274 HD
ATOM     27  H31 UNL     1      -2.980   7.754  19.933  1.00  0.00     0.274 HD
ENDBRANCH  23  24
ENDBRANCH  21  23
ENDBRANCH  20  21
ENDBRANCH  19  20
ENDBRANCH   1  19
TORSDOF 9
ENDMDL
MODEL 2
REMARK VINA RESULT: -8.187746947      1.759      2.669
REMARK  9 active torsions:
REMARK  status: ('A' for Active; 'I' for Inactive)
REMARK    1  A    between atoms: C2_2  and  C3_3 
REMARK    2  A    between atoms: C2_2  and  C8_16 
REMARK    3  A    between atoms: C3_3  and  C4_4 
REMARK    4  A    between atoms: C4_4  and  N2_7 
REMARK    5  A    between atoms: N2_7  and  O1_8 
REMARK    6  A    between atoms: O1_8  and  C6_9 
REMARK    7  A    between atoms: C6_9  and  C7_11 
REMARK    8  A    between atoms: C7_11  and  N3_12 
REMARK       I    between atoms: C8_16  and  N4_18 
REMARK       I    between atoms: N4_18  and  C9_20 
REMARK    9  A    between atoms: C9_20  and  C10_22 
ROOT
HETATM    1  C4  UNL     1       0.014   9.242  15.741  1.00  0.00     0.214 C 
HETATM    2  C5  UNL     1      -1.383   8.986  15.309  1.00  0.00     0.083 C 
HETATM    3  N1  UNL     1      -2.471   8.802  14.975  1.00  0.00    -0.195 NA
ENDROOT
BRANCH   1   4
HETATM    4  C3  UNL     1       0.893   8.199  15.103  1.00  0.00     0.052 C 
BRANCH   4   5
HETATM    5  C2  UNL     1       1.512   7.222  16.038  1.00  0.00     0.076 C 
HETATM    6  C1  UNL     1       3.011   7.186  15.677  1.00  0.00     0.020 C 
BRANCH   5   7
HETATM    7  C8  UNL     1       1.049   5.830  15.844  1.00  0.00     0.228 C 
HETATM    8  O3  UNL     1       0.500   5.239  16.795  1.00  0.00    -0.273 OA
HETATM    9  N4  UNL     1       1.225   5.176  14.596  1.00  0.00    -0.293 N 
HETATM   10  C9  UNL     1       0.798   3.858  14.375  1.00  0.00     0.258 C 
ATOM     11  H4  UNL     1       1.676   5.682  13.834  1.00  0.00     0.172 HD
HETATM   12  O4  UNL     1       0.236   3.260  15.355  1.00  0.00    -0.267 OA
BRANCH  10  13
HETATM   13  C10 UNL     1       0.961   3.160  13.118  1.00  0.00     0.032 A 
HETATM   14  C11 UNL     1       0.287   3.624  11.996  1.00  0.00     0.017 A 
HETATM   15  C12 UNL     1       0.417   2.987  10.783  1.00  0.00     0.001 A 
HETATM   16  C13 UNL     1       1.202   1.882  10.621  1.00  0.00     0.000 A 
HETATM   17  C14 UNL     1       1.872   1.417  11.722  1.00  0.00     0.001 A 
HETATM   18  C15 UNL     1       1.749   2.050  12.950  1.00  0.00     0.017 A 
ENDBRANCH  10  13
ENDBRANCH   5   7
ENDBRANCH   4   5
ENDBRANCH   1   4
BRANCH   1  19
HETATM   19  N2  UNL     1       0.088   9.020  17.175  1.00  0.00    -0.072 NA
BRANCH  19  20
HETATM   20  O1  UNL     1      -0.838   9.794  17.848  1.00  0.00    -0.204 OA
BRANCH  20  21
HETATM   21  C6  UNL     1      -1.569   9.319  18.921  1.00  0.00     0.302 C 
HETATM   22  O2  UNL     1      -2.605   9.945  19.236  1.00  0.00    -0.262 OA
BRANCH  21  23
HETATM   23  C7  UNL     1      -1.199   8.124  19.705  1.00  0.00     0.341 C 
BRANCH  23  24
HETATM   24  N3  UNL     1      -1.174   6.984  18.817  1.00  0.00    -0.070 N 
ATOM     25  H33 UNL     1      -0.658   7.168  17.957  1.00  0.00     0.274 HD
ATOM     26  H32 UNL     1      -0.590   6.225  19.169  1.00  0.00     0.274 HD
ATOM     27  H31 UNL     1      -2.135   6.690  18.642  1.00  0.00     0.274 HD
ENDBRANCH  23  24
ENDBRANCH  21  23
ENDBRANCH  20  21
ENDBRANCH  19  20
ENDBRANCH   1  19
TORSDOF 9
ENDMDL
MODEL 3
REMARK VINA RESULT: -8.174272398      1.693      2.399
REMARK  9 active torsions:
REMARK  status: ('A' for Active; 'I' for Inactive)
REMARK    1  A    between atoms: C2_2  and  C3_3 
REMARK    2  A    between atoms: C2_2  and  C8_16 
REMARK    3  A    between atoms: C3_3  and  C4_4 
REMARK    4  A    between atoms: C4_4  and  N2_7 
REMARK    5  A    between atoms: N2_7  and  O1_8 
REMARK    6  A    between atoms: O1_8  and  C6_9 
REMARK    7  A    between atoms: C6_9  and  C7_11 
REMARK    8  A    between atoms: C7_11  and  N3_12 
REMARK       I    between atoms: C8_16  and  N4_18 
REMARK       I    between atoms: N4_18  and  C9_20 
REMARK    9  A    between atoms: C9_20  and  C10_22 
ROOT
HETATM    1  C4  UNL     1      -0.684   8.503  16.108  1.00  0.00     0.214 C 
HETATM    2  C5  UNL     1      -1.810   8.763  15.176  1.00  0.00     0.083 C 
HETATM    3  N1  UNL     1      -2.676   8.977  14.446  1.00  0.00    -0.195 NA
ENDROOT
BRANCH   1   4
HETATM    4  C3  UNL     1      -0.709   7.041  16.465  1.00  0.00     0.052 C 
BRANCH   4   5
HETATM    5  C2  UNL     1       0.620   6.382  16.569  1.00  0.00     0.076 C 
HETATM    6  C1  UNL     1       1.528   7.101  15.551  1.00  0.00     0.020 C 
BRANCH   5   7
HETATM    7  C8  UNL     1       0.624   4.967  16.137  1.00  0.00     0.228 C 
HETATM    8  O3  UNL     1       0.525   4.072  16.999  1.00  0.00    -0.273 OA
HETATM    9  N4  UNL     1       0.738   4.631  14.762  1.00  0.00    -0.293 N 
HETATM   10  C9  UNL     1       0.745   3.302  14.314  1.00  0.00     0.258 C 
ATOM     11  H4  UNL     1       0.817   5.382  14.076  1.00  0.00     0.172 HD
HETATM   12  O4  UNL     1       0.642   2.390  15.205  1.00  0.00    -0.267 OA
BRANCH  10  13
HETATM   13  C10 UNL     1       0.859   2.922  12.923  1.00  0.00     0.032 A 
HETATM   14  C11 UNL     1       1.684   1.859  12.578  1.00  0.00     0.017 A 
HETATM   15  C12 UNL     1       1.818   1.469  11.265  1.00  0.00     0.001 A 
HETATM   16  C13 UNL     1       1.158   2.096  10.248  1.00  0.00     0.000 A 
HETATM   17  C14 UNL     1       0.342   3.146  10.577  1.00  0.00     0.001 A 
HETATM   18  C15 UNL     1       0.198   3.549  11.896  1.00  0.00     0.017 A 
ENDBRANCH  10  13
ENDBRANCH   5   7
ENDBRANCH   4   5
ENDBRANCH   1   4
BRANCH   1  19
HETATM   19  N2  UNL     1      -0.943   9.231  17.339  1.00  0.00    -0.072 NA
BRANCH  19  20
HETATM   20  O1  UNL     1       0.147   9.184  18.186  1.00  0.00    -0.204 OA
BRANCH  20  21
HETATM   21  C6  UNL     1       0.055   8.762  19.499  1.00  0.00     0.302 C 
HETATM   22  O2  UNL     1       1.026   9.000  20.252  1.00  0.00    -0.262 OA
BRANCH  21  23
HETATM   23  C7  UNL     1      -1.114   8.054  20.057  1.00  0.00     0.341 C 
BRANCH  23  24
HETATM   24  N3  UNL     1      -2.188   9.007  20.223  1.00  0.00    -0.070 N 
ATOM     25  H33 UNL     1      -2.200   9.716  19.491  1.00  0.00     0.274 HD
ATOM     26  H32 UNL     1      -3.105   8.600  20.037  1.00  0.00     0.274 HD
ATOM     27  H31 UNL     1      -2.120   9.409  21.158  1.00  0.00     0.274 HD
ENDBRANCH  23  24
ENDBRANCH  21  23
ENDBRANCH  20  21
ENDBRANCH  19  20
ENDBRANCH   1  19
TORSDOF 9
ENDMDL
MODEL 4
REMARK VINA RESULT: -8.168592407      1.969      2.707
REMARK  9 active torsions:
REMARK  status: ('A' for Active; 'I' for Inactive)
REMARK    1  A    between atoms: C2_2  and  C3_3 
REMARK    2  A    between atoms: C2_2  and  C8_16 
REMARK    3  A    between atoms: C3_3  and  C4_4 
REMARK    4  A    between atoms: C4_4  and  N2_7 
REMARK    5  A    between atoms: N2_7  and  O1_8 
REMARK    6  A    between atoms: O1_8  and  C6_9 
REMARK    7  A    between atoms: C6_9  and  C7_11 
REMARK    8  A    between atoms: C7_11  and  N3_12 
REMARK       I    between atoms: C8_16  and  N4_18 
REMARK       I    between atoms: N4_18  and  C9_20 
REMARK    9  A    between atoms: C9_20  and  C10_22 
ROOT
HETATM    1  C4  UNL     1      -0.578   7.820  17.395  1.00  0.00     0.214 C 
HETATM    2  C5  UNL     1       0.303   8.209  18.525  1.00  0.00     0.083 C 
HETATM    3  N1  UNL     1       0.977   8.507  19.412  1.00  0.00    -0.195 NA
ENDROOT
BRANCH   1   4
HETATM    4  C3  UNL     1       0.299   7.516  16.210  1.00  0.00     0.052 C 
BRANCH   4   5
HETATM    5  C2  UNL     1       1.383   6.527  16.449  1.00  0.00     0.076 C 
HETATM    6  C1  UNL     1       2.527   6.916  15.491  1.00  0.00     0.020 C 
BRANCH   5   7
HETATM    7  C8  UNL     1       1.029   5.143  16.063  1.00  0.00     0.228 C 
HETATM    8  O3  UNL     1       0.613   4.360  16.939  1.00  0.00    -0.273 OA
HETATM    9  N4  UNL     1       1.159   4.712  14.715  1.00  0.00    -0.293 N 
HETATM   10  C9  UNL     1       0.833   3.409  14.312  1.00  0.00     0.258 C 
ATOM     11  H4  UNL     1       1.501   5.373  14.018  1.00  0.00     0.172 HD
HETATM   12  O4  UNL     1       0.406   2.613  15.217  1.00  0.00    -0.267 OA
BRANCH  10  13
HETATM   13  C10 UNL     1       0.952   2.936  12.950  1.00  0.00     0.032 A 
HETATM   14  C11 UNL     1       0.247   3.584  11.945  1.00  0.00     0.017 A 
HETATM   15  C12 UNL     1       0.336   3.161  10.638  1.00  0.00     0.001 A 
HETATM   16  C13 UNL     1       1.110   2.101  10.266  1.00  0.00     0.000 A 
HETATM   17  C14 UNL     1       1.811   1.455  11.250  1.00  0.00     0.001 A 
HETATM   18  C15 UNL     1       1.730   1.869  12.572  1.00  0.00     0.017 A 
ENDBRANCH  10  13
ENDBRANCH   5   7
ENDBRANCH   4   5
ENDBRANCH   1   4
BRANCH   1  19
HETATM   19  N2  UNL     1      -1.377   8.977  17.030  1.00  0.00    -0.072 NA
BRANCH  19  20
HETATM   20  O1  UNL     1      -2.692   8.822  17.425  1.00  0.00    -0.204 OA
BRANCH  20  21
HETATM   21  C6  UNL     1      -3.106   9.010  18.730  1.00  0.00     0.302 C 
HETATM   22  O2  UNL     1      -2.733  10.054  19.310  1.00  0.00    -0.262 OA
BRANCH  21  23
HETATM   23  C7  UNL     1      -3.957   8.056  19.470  1.00  0.00     0.341 C 
BRANCH  23  24
HETATM   24  N3  UNL     1      -3.513   8.018  20.845  1.00  0.00    -0.070 N 
ATOM     25  H33 UNL     1      -2.517   8.219  20.940  1.00  0.00     0.274 HD
ATOM     26  H32 UNL     1      -3.866   8.803  21.392  1.00  0.00     0.274 HD
ATOM     27  H31 UNL     1      -3.770   7.114  21.241  1.00  0.00     0.274 HD
ENDBRANCH  23  24
ENDBRANCH  21  23
ENDBRANCH  20  21
ENDBRANCH  19  20
ENDBRANCH   1  19
TORSDOF 9
ENDMDL
MODEL 5
REMARK VINA RESULT: -8.098558660      1.318      1.546
REMARK  9 active torsions:
REMARK  status: ('A' for Active; 'I' for Inactive)
REMARK    1  A    between atoms: C2_2  and  C3_3 
REMARK    2  A    between atoms: C2_2  and  C8_16 
REMARK    3  A    between atoms: C3_3  and  C4_4 
REMARK    4  A    between atoms: C4_4  and  N2_7 
REMARK    5  A    between atoms: N2_7  and  O1_8 
REMARK    6  A    between atoms: O1_8  and  C6_9 
REMARK    7  A    between atoms: C6_9  and  C7_11 
REMARK    8  A    between atoms: C7_11  and  N3_12 
REMARK       I    between atoms: C8_16  and  N4_18 
REMARK       I    between atoms: N4_18  and  C9_20 
REMARK    9  A    between atoms: C9_20  and  C10_22 
ROOT
HETATM    1  C4  UNL     1       0.929   7.797  16.024  1.00  0.00     0.214 C 
HETATM    2  C5  UNL     1       0.417   9.168  15.776  1.00  0.00     0.083 C 
HETATM    3  N1  UNL     1       0.033  10.237  15.577  1.00  0.00    -0.195 NA
ENDROOT
BRANCH   1   4
HETATM    4  C3  UNL     1      -0.243   6.852  15.984  1.00  0.00     0.052 C 
BRANCH   4   5
HETATM    5  C2  UNL     1      -0.757   6.525  14.628  1.00  0.00     0.076 C 
HETATM    6  C1  UNL     1      -2.142   7.197  14.529  1.00  0.00     0.020 C 
BRANCH   5   7
HETATM    7  C8  UNL     1      -1.026   5.085  14.419  1.00  0.00     0.228 C 
HETATM    8  O3  UNL     1      -2.113   4.612  14.805  1.00  0.00    -0.273 OA
HETATM    9  N4  UNL     1      -0.063   4.253  13.789  1.00  0.00    -0.293 N 
HETATM   10  C9  UNL     1      -0.283   2.884  13.574  1.00  0.00     0.258 C 
ATOM     11  H4  UNL     1       0.818   4.664  13.483  1.00  0.00     0.172 HD
HETATM   12  O4  UNL     1      -1.401   2.408  13.972  1.00  0.00    -0.267 OA
BRANCH  10  13
HETATM   13  C10 UNL     1       0.674   2.007  12.937  1.00  0.00     0.032 A 
HETATM   14  C11 UNL     1       1.249   0.982  13.678  1.00  0.00     0.017 A 
HETATM   15  C12 UNL     1       2.164   0.127  13.105  1.00  0.00     0.001 A 
HETATM   16  C13 UNL     1       2.548   0.239  11.800  1.00  0.00     0.000 A 
HETATM   17  C14 UNL     1       1.986   1.246  11.060  1.00  0.00     0.001 A 
HETATM   18  C15 UNL     1       1.063   2.115  11.625  1.00  0.00     0.017 A 
ENDBRANCH  10  13
ENDBRANCH   5   7
ENDBRANCH   4   5
ENDBRANCH   1   4
BRANCH   1  19
HETATM   19  N2  UNL     1       1.447   7.750  17.381  1.00  0.00    -0.072 NA
BRANCH  19  20
HETATM   20  O1  UNL     1       0.423   7.658  18.304  1.00  0.00    -0.204 OA
BRANCH  20  21
HETATM   21  C6  UNL     1       0.163   8.648  19.233  1.00  0.00     0.302 C 
HETATM   22  O2  UNL     1       1.017   8.839  20.128  1.00  0.00    -0.262 OA
BRANCH  21  23
HETATM   23  C7  UNL     1      -1.053   9.486  19.226  1.00  0.00     0.341 C 
BRANCH  23  24
HETATM   24  N3  UNL     1      -1.923   9.036  20.289  1.00  0.00    -0.070 N 
ATOM     25  H33 UNL     1      -2.909   9.198  20.084  1.00  0.00     0.274 HD
ATOM     26  H32 UNL     1      -1.961   8.020  20.361  1.00  0.00     0.274 HD
ATOM     27  H31 UNL     1      -1.625   9.481  21.158  1.00  0.00     0.274 HD
ENDBRANCH  23  24
ENDBRANCH  21  23
ENDBRANCH  20  21
ENDBRANCH  19  20
ENDBRANCH   1  19
TORSDOF 9
ENDMDL
