MODEL 1
REMARK VINA RESULT: -8.985117978      0.000      0.000
REMARK  11 active torsions:
REMARK  status: ('A' for Active; 'I' for Inactive)
REMARK       I    between atoms: C1_2  and  N1_4 
REMARK    1  A    between atoms: N1_4  and  N2_6 
REMARK    2  A    between atoms: N2_6  and  C2_7 
REMARK    3  A    between atoms: C2_7  and  O3_8 
REMARK    4  A    between atoms: C2_7  and  C3_10 
REMARK    5  A    between atoms: C3_10  and  C4_11 
REMARK    6  A    between atoms: C4_11  and  N3_12 
REMARK    7  A    between atoms: N3_12  and  C5_14 
REMARK    8  A    between atoms: C5_14  and  O4_15 
REMARK    9  A    between atoms: C5_14  and  C6_17 
REMARK   10  A    between atoms: C7_18  and  C8_19 
REMARK   11  A    between atoms: C12_23  and  N4_24 
ROOT
HETATM    1  C5  UNL     1       1.331   5.855  15.530  1.00  0.00     0.135 C 
ENDROOT
BRANCH   1   2
HETATM    2  N3  UNL     1       0.782   7.111  15.214  1.00  0.00    -0.371 N 
ATOM      3  H3  UNL     1       1.380   7.936  15.253  1.00  0.00     0.161 HD
BRANCH   2   4
HETATM    4  C4  UNL     1      -0.550   7.259  14.851  1.00  0.00     0.131 C 
BRANCH   4   5
HETATM    5  C3  UNL     1      -0.770   8.798  14.646  1.00  0.00     0.122 C 
BRANCH   5   6
HETATM    6  C2  UNL     1       0.012   9.534  15.596  1.00  0.00     0.216 C 
BRANCH   6   7
HETATM    7  N2  UNL     1      -0.256   9.460  16.926  1.00  0.00    -0.300 NA
BRANCH   7   8
HETATM    8  N1  UNL     1      -0.521   9.383  18.210  1.00  0.00    -0.174 N 
HETATM    9  C1  UNL     1       0.246   8.541  19.076  1.00  0.00     0.314 C 
HETATM   10  O1  UNL     1       1.216   7.876  18.701  1.00  0.00    -0.628 OA
HETATM   11  O2  UNL     1      -0.108   8.464  20.436  1.00  0.00    -0.628 OA
ATOM     12  H1  UNL     1      -1.287   9.933  18.597  1.00  0.00     0.208 HD
ENDBRANCH   7   8
ENDBRANCH   6   7
BRANCH   6  13
HETATM   13  O3  UNL     1       0.984  10.312  15.150  1.00  0.00    -0.337 OA
ATOM     14  H3  UNL     1       0.788  11.169  14.790  1.00  0.00     0.220 HD
ENDBRANCH   6  13
ENDBRANCH   5   6
ENDBRANCH   4   5
ENDBRANCH   2   4
ENDBRANCH   1   2
BRANCH   1  15
HETATM   15  O4  UNL     1       2.640   5.797  15.501  1.00  0.00    -0.346 OA
ATOM     16  H4  UNL     1       3.006   5.312  14.771  1.00  0.00     0.219 HD
ENDBRANCH   1  15
BRANCH   1  17
HETATM   17  C6  UNL     1       0.504   4.706  15.857  1.00  0.00     0.056 C 
HETATM   18  C7  UNL     1       0.288   3.641  15.265  1.00  0.00     0.015 C 
BRANCH  18  19
HETATM   19  C8  UNL     1       0.824   3.171  13.950  1.00  0.00    -0.034 A 
HETATM   20  C9  UNL     1       0.505   3.555  12.719  1.00  0.00     0.011 A 
HETATM   21  C10 UNL     1       0.898   2.839  11.598  1.00  0.00     0.003 A 
HETATM   22  C11 UNL     1       1.664   1.680  11.700  1.00  0.00     0.036 A 
HETATM   23  C12 UNL     1       1.990   1.313  12.956  1.00  0.00     0.103 A 
HETATM   24  C13 UNL     1       1.611   2.004  14.081  1.00  0.00     0.047 A 
BRANCH  23  25
HETATM   25  N4  UNL     1       2.761   0.131  13.198  1.00  0.00    -0.116 N 
HETATM   26  O5  UNL     1       3.567   0.056  14.090  1.00  0.00    -0.532 OA
HETATM   27  O6  UNL     1       2.603  -0.936  12.319  1.00  0.00    -0.532 OA
ENDBRANCH  23  25
ENDBRANCH  18  19
ENDBRANCH   1  17
TORSDOF 11
ENDMDL
MODEL 2
REMARK VINA RESULT: -8.691709258      0.935      1.293
REMARK  11 active torsions:
REMARK  status: ('A' for Active; 'I' for Inactive)
REMARK       I    between atoms: C1_2  and  N1_4 
REMARK    1  A    between atoms: N1_4  and  N2_6 
REMARK    2  A    between atoms: N2_6  and  C2_7 
REMARK    3  A    between atoms: C2_7  and  O3_8 
REMARK    4  A    between atoms: C2_7  and  C3_10 
REMARK    5  A    between atoms: C3_10  and  C4_11 
REMARK    6  A    between atoms: C4_11  and  N3_12 
REMARK    7  A    between atoms: N3_12  and  C5_14 
REMARK    8  A    between atoms: C5_14  and  O4_15 
REMARK    9  A    between atoms: C5_14  and  C6_17 
REMARK   10  A    between atoms: C7_18  and  C8_19 
REMARK   11  A    between atoms: C12_23  and  N4_24 
ROOT
HETATM    1  C5  UNL     1       0.528   5.167  14.861  1.00  0.00     0.135 C 
ENDROOT
BRANCH   1   2
HETATM    2  N3  UNL     1       0.318   6.551  14.727  1.00  0.00    -0.371 N 
ATOM      3  H3  UNL     1       1.094   7.143  14.430  1.00  0.00     0.161 HD
BRANCH   2   4
HETATM    4  C4  UNL     1      -0.915   7.134  14.987  1.00  0.00     0.131 C 
BRANCH   4   5
HETATM    5  C3  UNL     1      -0.739   8.662  14.681  1.00  0.00     0.122 C 
BRANCH   5   6
HETATM    6  C2  UNL     1       0.220   9.233  15.581  1.00  0.00     0.216 C 
BRANCH   6   7
HETATM    7  N2  UNL     1       0.395   8.723  16.828  1.00  0.00    -0.300 NA
BRANCH   7   8
HETATM    8  N1  UNL     1       0.557   8.230  18.035  1.00  0.00    -0.174 N 
HETATM    9  C1  UNL     1      -0.060   8.837  19.174  1.00  0.00     0.314 C 
HETATM   10  O1  UNL     1      -0.807   9.818  19.106  1.00  0.00    -0.628 OA
HETATM   11  O2  UNL     1       0.181   8.291  20.449  1.00  0.00    -0.628 OA
ATOM     12  H1  UNL     1       1.133   7.399  18.163  1.00  0.00     0.208 HD
ENDBRANCH   7   8
ENDBRANCH   6   7
BRANCH   6  13
HETATM   13  O3  UNL     1       0.912  10.288  15.184  1.00  0.00    -0.337 OA
ATOM     14  H3  UNL     1       0.613  11.165  15.390  1.00  0.00     0.220 HD
ENDBRANCH   6  13
ENDBRANCH   5   6
ENDBRANCH   4   5
ENDBRANCH   2   4
ENDBRANCH   1   2
BRANCH   1  15
HETATM   15  O4  UNL     1       1.751   4.818  15.179  1.00  0.00    -0.346 OA
ATOM     16  H4  UNL     1       2.172   5.371  15.826  1.00  0.00     0.219 HD
ENDBRANCH   1  15
BRANCH   1  17
HETATM   17  C6  UNL     1      -0.533   4.196  14.657  1.00  0.00     0.056 C 
HETATM   18  C7  UNL     1      -0.640   3.228  13.893  1.00  0.00     0.015 C 
BRANCH  18  19
HETATM   19  C8  UNL     1       0.332   2.724  12.874  1.00  0.00    -0.034 A 
HETATM   20  C9  UNL     1       0.401   2.975  11.571  1.00  0.00     0.011 A 
HETATM   21  C10 UNL     1       1.195   2.226  10.716  1.00  0.00     0.003 A 
HETATM   22  C11 UNL     1       1.980   1.172  11.180  1.00  0.00     0.036 A 
HETATM   23  C12 UNL     1       1.909   0.941  12.506  1.00  0.00     0.103 A 
HETATM   24  C13 UNL     1       1.128   1.668  13.372  1.00  0.00     0.047 A 
BRANCH  23  25
HETATM   25  N4  UNL     1       2.655  -0.123  13.106  1.00  0.00    -0.116 N 
HETATM   26  O5  UNL     1       2.473  -1.280  12.823  1.00  0.00    -0.532 OA
HETATM   27  O6  UNL     1       3.575   0.208  14.096  1.00  0.00    -0.532 OA
ENDBRANCH  23  25
ENDBRANCH  18  19
ENDBRANCH   1  17
TORSDOF 11
ENDMDL
MODEL 3
REMARK VINA RESULT: -8.553371192      2.111      7.870
REMARK  11 active torsions:
REMARK  status: ('A' for Active; 'I' for Inactive)
REMARK       I    between atoms: C1_2  and  N1_4 
REMARK    1  A    between atoms: N1_4  and  N2_6 
REMARK    2  A    between atoms: N2_6  and  C2_7 
REMARK    3  A    between atoms: C2_7  and  O3_8 
REMARK    4  A    between atoms: C2_7  and  C3_10 
REMARK    5  A    between atoms: C3_10  and  C4_11 
REMARK    6  A    between atoms: C4_11  and  N3_12 
REMARK    7  A    between atoms: N3_12  and  C5_14 
REMARK    8  A    between atoms: C5_14  and  O4_15 
REMARK    9  A    between atoms: C5_14  and  C6_17 
REMARK   10  A    between atoms: C7_18  and  C8_19 
REMARK   11  A    between atoms: C12_23  and  N4_24 
ROOT
HETATM    1  C5  UNL     1      -0.832   2.661  14.182  1.00  0.00     0.135 C 
ENDROOT
BRANCH   1   2
HETATM    2  N3  UNL     1      -0.347   2.565  12.865  1.00  0.00    -0.371 N 
ATOM      3  H3  UNL     1      -0.591   1.748  12.306  1.00  0.00     0.161 HD
BRANCH   2   4
HETATM    4  C4  UNL     1       0.455   3.551  12.305  1.00  0.00     0.131 C 
BRANCH   4   5
HETATM    5  C3  UNL     1       0.360   3.350  10.753  1.00  0.00     0.122 C 
BRANCH   5   6
HETATM    6  C2  UNL     1       0.957   2.099  10.385  1.00  0.00     0.216 C 
BRANCH   6   7
HETATM    7  N2  UNL     1       1.898   1.517  11.173  1.00  0.00    -0.300 NA
BRANCH   7   8
HETATM    8  N1  UNL     1       2.813   0.961  11.934  1.00  0.00    -0.174 N 
HETATM    9  C1  UNL     1       2.455   0.206  13.094  1.00  0.00     0.314 C 
HETATM   10  O1  UNL     1       1.289  -0.013  13.435  1.00  0.00    -0.628 OA
HETATM   11  O2  UNL     1       3.479  -0.332  13.897  1.00  0.00    -0.628 OA
ATOM     12  H1  UNL     1       3.798   1.071  11.693  1.00  0.00     0.208 HD
ENDBRANCH   7   8
ENDBRANCH   6   7
BRANCH   6  13
HETATM   13  O3  UNL     1       0.594   1.535   9.245  1.00  0.00    -0.337 OA
ATOM     14  H3  UNL     1       0.578   0.589   9.159  1.00  0.00     0.220 HD
ENDBRANCH   6  13
ENDBRANCH   5   6
ENDBRANCH   4   5
ENDBRANCH   2   4
ENDBRANCH   1   2
BRANCH   1  15
HETATM   15  O4  UNL     1      -0.402   1.733  15.002  1.00  0.00    -0.346 OA
ATOM     16  H4  UNL     1       0.499   1.463  14.868  1.00  0.00     0.219 HD
ENDBRANCH   1  15
BRANCH   1  17
HETATM   17  C6  UNL     1      -1.746   3.710  14.599  1.00  0.00     0.056 C 
HETATM   18  C7  UNL     1      -1.561   4.877  14.967  1.00  0.00     0.015 C 
BRANCH  18  19
HETATM   19  C8  UNL     1      -0.273   5.621  15.119  1.00  0.00    -0.034 A 
HETATM   20  C9  UNL     1       0.950   5.159  15.358  1.00  0.00     0.011 A 
HETATM   21  C10 UNL     1       1.992   5.992  15.736  1.00  0.00     0.003 A 
HETATM   22  C11 UNL     1       1.819   7.368  15.872  1.00  0.00     0.036 A 
HETATM   23  C12 UNL     1       0.576   7.821  15.612  1.00  0.00     0.103 A 
HETATM   24  C13 UNL     1      -0.473   7.015  15.239  1.00  0.00     0.047 A 
BRANCH  23  25
HETATM   25  N4  UNL     1       0.263   9.213  15.732  1.00  0.00    -0.116 N 
HETATM   26  O5  UNL     1       0.658  10.035  14.944  1.00  0.00    -0.532 OA
HETATM   27  O6  UNL     1      -0.472   9.618  16.841  1.00  0.00    -0.532 OA
ENDBRANCH  23  25
ENDBRANCH  18  19
ENDBRANCH   1  17
TORSDOF 11
ENDMDL
MODEL 4
REMARK VINA RESULT: -8.522348779      1.506      1.712
REMARK  11 active torsions:
REMARK  status: ('A' for Active; 'I' for Inactive)
REMARK       I    between atoms: C1_2  and  N1_4 
REMARK    1  A    between atoms: N1_4  and  N2_6 
REMARK    2  A    between atoms: N2_6  and  C2_7 
REMARK    3  A    between atoms: C2_7  and  O3_8 
REMARK    4  A    between atoms: C2_7  and  C3_10 
REMARK    5  A    between atoms: C3_10  and  C4_11 
REMARK    6  A    between atoms: C4_11  and  N3_12 
REMARK    7  A    between atoms: N3_12  and  C5_14 
REMARK    8  A    between atoms: C5_14  and  O4_15 
REMARK    9  A    between atoms: C5_14  and  C6_17 
REMARK   10  A    between atoms: C7_18  and  C8_19 
REMARK   11  A    between atoms: C12_23  and  N4_24 
ROOT
HETATM    1  C5  UNL     1       0.311   4.354  15.421  1.00  0.00     0.135 C 
ENDROOT
BRANCH   1   2
HETATM    2  N3  UNL     1       0.738   5.605  14.942  1.00  0.00    -0.371 N 
ATOM      3  H3  UNL     1       1.715   5.727  14.677  1.00  0.00     0.161 HD
BRANCH   2   4
HETATM    4  C4  UNL     1      -0.134   6.679  14.819  1.00  0.00     0.131 C 
BRANCH   4   5
HETATM    5  C3  UNL     1       0.741   7.965  15.019  1.00  0.00     0.122 C 
BRANCH   5   6
HETATM    6  C2  UNL     1       1.606   7.797  16.150  1.00  0.00     0.216 C 
BRANCH   6   7
HETATM    7  N2  UNL     1       1.129   7.920  17.417  1.00  0.00    -0.300 NA
BRANCH   7   8
HETATM    8  N1  UNL     1       0.668   8.032  18.642  1.00  0.00    -0.174 N 
HETATM    9  C1  UNL     1      -0.337   8.994  18.973  1.00  0.00     0.314 C 
HETATM   10  O1  UNL     1      -0.867   9.741  18.146  1.00  0.00    -0.628 OA
HETATM   11  O2  UNL     1      -0.763   9.098  20.310  1.00  0.00    -0.628 OA
ATOM     12  H1  UNL     1       1.036   7.421  19.371  1.00  0.00     0.208 HD
ENDBRANCH   7   8
ENDBRANCH   6   7
BRANCH   6  13
HETATM   13  O3  UNL     1       2.886   7.549  15.937  1.00  0.00    -0.337 OA
ATOM     14  H3  UNL     1       3.320   7.885  15.162  1.00  0.00     0.220 HD
ENDBRANCH   6  13
ENDBRANCH   5   6
ENDBRANCH   4   5
ENDBRANCH   2   4
ENDBRANCH   1   2
BRANCH   1  15
HETATM   15  O4  UNL     1       0.994   3.885  16.438  1.00  0.00    -0.346 OA
ATOM     16  H4  UNL     1       0.469   3.524  17.143  1.00  0.00     0.219 HD
ENDBRANCH   1  15
BRANCH   1  17
HETATM   17  C6  UNL     1      -0.802   3.632  14.828  1.00  0.00     0.056 C 
HETATM   18  C7  UNL     1      -0.883   2.897  13.836  1.00  0.00     0.015 C 
BRANCH  18  19
HETATM   19  C8  UNL     1       0.189   2.501  12.870  1.00  0.00    -0.034 A 
HETATM   20  C9  UNL     1       0.316   2.789  11.579  1.00  0.00     0.011 A 
HETATM   21  C10 UNL     1       1.221   2.130  10.762  1.00  0.00     0.003 A 
HETATM   22  C11 UNL     1       2.062   1.134  11.253  1.00  0.00     0.036 A 
HETATM   23  C12 UNL     1       1.930   0.865  12.568  1.00  0.00     0.103 A 
HETATM   24  C13 UNL     1       1.039   1.503  13.397  1.00  0.00     0.047 A 
BRANCH  23  25
HETATM   25  N4  UNL     1       2.725  -0.149  13.193  1.00  0.00    -0.116 N 
HETATM   26  O5  UNL     1       3.513   0.097  14.070  1.00  0.00    -0.532 OA
HETATM   27  O6  UNL     1       2.614  -1.448  12.709  1.00  0.00    -0.532 OA
ENDBRANCH  23  25
ENDBRANCH  18  19
ENDBRANCH   1  17
TORSDOF 11
ENDMDL
MODEL 5
REMARK VINA RESULT: -8.502716098      2.190      7.600
REMARK  11 active torsions:
REMARK  status: ('A' for Active; 'I' for Inactive)
REMARK       I    between atoms: C1_2  and  N1_4 
REMARK    1  A    between atoms: N1_4  and  N2_6 
REMARK    2  A    between atoms: N2_6  and  C2_7 
REMARK    3  A    between atoms: C2_7  and  O3_8 
REMARK    4  A    between atoms: C2_7  and  C3_10 
REMARK    5  A    between atoms: C3_10  and  C4_11 
REMARK    6  A    between atoms: C4_11  and  N3_12 
REMARK    7  A    between atoms: N3_12  and  C5_14 
REMARK    8  A    between atoms: C5_14  and  O4_15 
REMARK    9  A    between atoms: C5_14  and  C6_17 
REMARK   10  A    between atoms: C7_18  and  C8_19 
REMARK   11  A    between atoms: C12_23  and  N4_24 
ROOT
HETATM    1  C5  UNL     1       1.130   3.572  14.287  1.00  0.00     0.135 C 
ENDROOT
BRANCH   1   2
HETATM    2  N3  UNL     1       0.420   3.980  13.144  1.00  0.00    -0.371 N 
ATOM      3  H3  UNL     1       0.449   4.961  12.866  1.00  0.00     0.161 HD
BRANCH   2   4
HETATM    4  C4  UNL     1      -0.321   3.085  12.383  1.00  0.00     0.131 C 
BRANCH   4   5
HETATM    5  C3  UNL     1       0.152   3.288  10.902  1.00  0.00     0.122 C 
BRANCH   5   6
HETATM    6  C2  UNL     1       0.900   2.144  10.467  1.00  0.00     0.216 C 
BRANCH   6   7
HETATM    7  N2  UNL     1       1.846   1.585  11.266  1.00  0.00    -0.300 NA
BRANCH   7   8
HETATM    8  N1  UNL     1       2.761   1.051  12.043  1.00  0.00    -0.174 N 
HETATM    9  C1  UNL     1       2.404   0.189  13.127  1.00  0.00     0.314 C 
HETATM   10  O1  UNL     1       1.244  -0.146  13.382  1.00  0.00    -0.628 OA
HETATM   11  O2  UNL     1       3.424  -0.321  13.953  1.00  0.00    -0.628 OA
ATOM     12  H1  UNL     1       3.745   1.256  11.870  1.00  0.00     0.208 HD
ENDBRANCH   7   8
ENDBRANCH   6   7
BRANCH   6  13
HETATM   13  O3  UNL     1       0.672   1.661   9.258  1.00  0.00    -0.337 OA
ATOM     14  H3  UNL     1      -0.169   1.792   8.837  1.00  0.00     0.220 HD
ENDBRANCH   6  13
ENDBRANCH   5   6
ENDBRANCH   4   5
ENDBRANCH   2   4
ENDBRANCH   1   2
BRANCH   1  15
HETATM   15  O4  UNL     1       2.376   3.225  14.074  1.00  0.00    -0.346 OA
ATOM     16  H4  UNL     1       2.716   2.562  14.663  1.00  0.00     0.219 HD
ENDBRANCH   1  15
BRANCH   1  17
HETATM   17  C6  UNL     1       0.524   3.534  15.607  1.00  0.00     0.056 C 
HETATM   18  C7  UNL     1      -0.236   4.313  16.197  1.00  0.00     0.015 C 
BRANCH  18  19
HETATM   19  C8  UNL     1      -0.797   5.617  15.723  1.00  0.00    -0.034 A 
HETATM   20  C9  UNL     1      -1.962   5.877  15.142  1.00  0.00     0.011 A 
HETATM   21  C10 UNL     1      -2.223   7.090  14.523  1.00  0.00     0.003 A 
HETATM   22  C11 UNL     1      -1.280   8.114  14.489  1.00  0.00     0.036 A 
HETATM   23  C12 UNL     1      -0.108   7.839  15.097  1.00  0.00     0.103 A 
HETATM   24  C13 UNL     1       0.175   6.644  15.715  1.00  0.00     0.047 A 
BRANCH  23  25
HETATM   25  N4  UNL     1       0.951   8.801  15.120  1.00  0.00    -0.116 N 
HETATM   26  O5  UNL     1       0.748   9.988  15.070  1.00  0.00    -0.532 OA
HETATM   27  O6  UNL     1       2.258   8.326  15.135  1.00  0.00    -0.532 OA
ENDBRANCH  23  25
ENDBRANCH  18  19
ENDBRANCH   1  17
TORSDOF 11
ENDMDL
