MODEL 1
REMARK VINA RESULT: -6.200707836      0.000      0.000
REMARK  0 active torsions:
REMARK  status: ('A' for Active; 'I' for Inactive)
ROOT
HETATM    1  N1  UNL     1      16.138 -21.514  23.131  1.00  0.00    -0.386 N 
ATOM      2  H11 UNL     1      15.304 -21.972  23.498  1.00  0.00     0.157 HD
ATOM      3  H12 UNL     1      15.973 -20.510  23.196  1.00  0.00     0.157 HD
HETATM    4  C1  UNL     1      17.211 -22.034  22.667  1.00  0.00     0.113 C 
HETATM    5  N2  UNL     1      18.366 -21.400  22.159  1.00  0.00    -0.318 N 
ATOM      6  H2  UNL     1      18.435 -20.410  21.925  1.00  0.00     0.169 HD
HETATM    7  C2  UNL     1      19.333 -22.272  22.031  1.00  0.00     0.190 C 
HETATM    8  N3  UNL     1      20.612 -21.882  21.536  1.00  0.00    -0.063 NA
HETATM    9  N4  UNL     1      18.886 -23.558  22.448  1.00  0.00    -0.342 N 
ATOM     10  H4  UNL     1      19.472 -24.373  22.626  1.00  0.00     0.163 HD
HETATM   11  C3  UNL     1      17.450 -23.493  22.572  1.00  0.00     0.148 C 
HETATM   12  C4  UNL     1      16.728 -24.113  21.422  1.00  0.00     0.067 C 
HETATM   13  C5  UNL     1      15.362 -24.333  22.103  1.00  0.00     0.124 C 
HETATM   14  N5  UNL     1      15.760 -24.652  23.474  1.00  0.00    -0.379 N 
ATOM     15  H5  UNL     1      15.183 -25.177  24.130  1.00  0.00     0.160 HD
HETATM   16  C6  UNL     1      16.931 -24.187  23.750  1.00  0.00     0.125 C 
HETATM   17  N6  UNL     1      17.597 -24.338  25.014  1.00  0.00    -0.085 NA
ENDROOT
TORSDOF 0
ENDMDL
MODEL 2
REMARK VINA RESULT: -6.127082153      1.702      3.703
REMARK  0 active torsions:
REMARK  status: ('A' for Active; 'I' for Inactive)
ROOT
HETATM    1  N1  UNL     1      19.135 -24.295  22.340  1.00  0.00    -0.386 N 
ATOM      2  H11 UNL     1      19.957 -24.024  22.879  1.00  0.00     0.157 HD
ATOM      3  H12 UNL     1      19.474 -24.836  21.543  1.00  0.00     0.157 HD
HETATM    4  C1  UNL     1      17.901 -24.042  22.559  1.00  0.00     0.113 C 
HETATM    5  N2  UNL     1      16.763 -24.417  21.812  1.00  0.00    -0.318 N 
ATOM      6  H2  UNL     1      16.785 -24.808  20.870  1.00  0.00     0.169 HD
HETATM    7  C2  UNL     1      15.679 -24.189  22.507  1.00  0.00     0.190 C 
HETATM    8  N3  UNL     1      14.390 -24.484  21.974  1.00  0.00    -0.063 NA
HETATM    9  N4  UNL     1      16.020 -23.639  23.775  1.00  0.00    -0.342 N 
ATOM     10  H4  UNL     1      15.399 -23.536  24.576  1.00  0.00     0.163 HD
HETATM   11  C3  UNL     1      17.410 -23.257  23.716  1.00  0.00     0.148 C 
HETATM   12  C4  UNL     1      17.613 -21.789  23.531  1.00  0.00     0.067 C 
HETATM   13  C5  UNL     1      19.070 -21.696  24.026  1.00  0.00     0.124 C 
HETATM   14  N5  UNL     1      19.088 -22.700  25.089  1.00  0.00    -0.379 N 
ATOM     15  H5  UNL     1      19.753 -22.703  25.863  1.00  0.00     0.160 HD
HETATM   16  C6  UNL     1      18.161 -23.581  24.928  1.00  0.00     0.125 C 
HETATM   17  N6  UNL     1      17.922 -24.693  25.807  1.00  0.00    -0.085 NA
ENDROOT
TORSDOF 0
ENDMDL
MODEL 3
REMARK VINA RESULT: -6.075043232      1.531      3.062
REMARK  0 active torsions:
REMARK  status: ('A' for Active; 'I' for Inactive)
ROOT
HETATM    1  N1  UNL     1      19.352 -22.937  21.938  1.00  0.00    -0.386 N 
ATOM      2  H11 UNL     1      18.895 -22.857  21.029  1.00  0.00     0.157 HD
ATOM      3  H12 UNL     1      20.346 -22.771  21.780  1.00  0.00     0.157 HD
HETATM    4  C1  UNL     1      18.842 -23.191  23.083  1.00  0.00     0.113 C 
HETATM    5  N2  UNL     1      19.475 -23.302  24.340  1.00  0.00    -0.318 N 
ATOM      6  H2  UNL     1      20.483 -23.367  24.484  1.00  0.00     0.169 HD
HETATM    7  C2  UNL     1      18.578 -23.311  25.291  1.00  0.00     0.190 C 
HETATM    8  N3  UNL     1      18.961 -23.414  26.661  1.00  0.00    -0.063 NA
HETATM    9  N4  UNL     1      17.274 -23.207  24.730  1.00  0.00    -0.342 N 
ATOM     10  H4  UNL     1      16.411 -23.009  25.237  1.00  0.00     0.163 HD
HETATM   11  C3  UNL     1      17.399 -23.432  23.311  1.00  0.00     0.148 C 
HETATM   12  C4  UNL     1      16.979 -24.802  22.890  1.00  0.00     0.067 C 
HETATM   13  C5  UNL     1      16.743 -24.519  21.393  1.00  0.00     0.124 C 
HETATM   14  N5  UNL     1      16.222 -23.153  21.427  1.00  0.00    -0.379 N 
ATOM     15  H5  UNL     1      15.645 -22.741  20.693  1.00  0.00     0.160 HD
HETATM   16  C6  UNL     1      16.581 -22.532  22.499  1.00  0.00     0.125 C 
HETATM   17  N6  UNL     1      16.226 -21.178  22.822  1.00  0.00    -0.085 NA
ENDROOT
TORSDOF 0
ENDMDL
MODEL 4
REMARK VINA RESULT: -5.930910185      1.512      1.706
REMARK  0 active torsions:
REMARK  status: ('A' for Active; 'I' for Inactive)
ROOT
HETATM    1  N1  UNL     1      16.431 -21.477  22.928  1.00  0.00    -0.386 N 
ATOM      2  H11 UNL     1      15.528 -21.727  22.525  1.00  0.00     0.157 HD
ATOM      3  H12 UNL     1      16.451 -20.458  22.988  1.00  0.00     0.157 HD
HETATM    4  C1  UNL     1      17.390 -22.234  23.305  1.00  0.00     0.113 C 
HETATM    5  N2  UNL     1      18.640 -21.887  23.862  1.00  0.00    -0.318 N 
ATOM      6  H2  UNL     1      19.030 -20.945  23.882  1.00  0.00     0.169 HD
HETATM    7  C2  UNL     1      19.222 -22.952  24.349  1.00  0.00     0.190 C 
HETATM    8  N3  UNL     1      20.503 -22.869  24.971  1.00  0.00    -0.063 NA
HETATM    9  N4  UNL     1      18.396 -24.093  24.147  1.00  0.00    -0.342 N 
ATOM     10  H4  UNL     1      18.513 -25.009  24.579  1.00  0.00     0.163 HD
HETATM   11  C3  UNL     1      17.360 -23.713  23.217  1.00  0.00     0.148 C 
HETATM   12  C4  UNL     1      17.602 -24.203  21.828  1.00  0.00     0.067 C 
HETATM   13  C5  UNL     1      16.160 -24.096  21.294  1.00  0.00     0.124 C 
HETATM   14  N5  UNL     1      15.376 -24.442  22.479  1.00  0.00    -0.379 N 
ATOM     15  H5  UNL     1      14.423 -24.803  22.450  1.00  0.00     0.160 HD
HETATM   16  C6  UNL     1      16.039 -24.233  23.565  1.00  0.00     0.125 C 
HETATM   17  N6  UNL     1      15.540 -24.477  24.891  1.00  0.00    -0.085 NA
ENDROOT
TORSDOF 0
ENDMDL
MODEL 5
REMARK VINA RESULT: -5.907248379      1.427      2.312
REMARK  0 active torsions:
REMARK  status: ('A' for Active; 'I' for Inactive)
ROOT
HETATM    1  N1  UNL     1      19.293 -23.953  24.405  1.00  0.00    -0.386 N 
ATOM      2  H11 UNL     1      18.755 -24.613  24.967  1.00  0.00     0.157 HD
ATOM      3  H12 UNL     1      20.261 -24.024  24.719  1.00  0.00     0.157 HD
HETATM    4  C1  UNL     1      18.897 -23.164  23.480  1.00  0.00     0.113 C 
HETATM    5  N2  UNL     1      19.641 -22.251  22.703  1.00  0.00    -0.318 N 
ATOM      6  H2  UNL     1      20.599 -21.960  22.899  1.00  0.00     0.169 HD
HETATM    7  C2  UNL     1      18.920 -21.831  21.696  1.00  0.00     0.190 C 
HETATM    8  N3  UNL     1      19.445 -20.896  20.756  1.00  0.00    -0.063 NA
HETATM    9  N4  UNL     1      17.634 -22.439  21.732  1.00  0.00    -0.342 N 
ATOM     10  H4  UNL     1      16.942 -22.436  20.983  1.00  0.00     0.163 HD
HETATM   11  C3  UNL     1      17.490 -23.061  23.026  1.00  0.00     0.148 C 
HETATM   12  C4  UNL     1      16.646 -22.272  23.971  1.00  0.00     0.067 C 
HETATM   13  C5  UNL     1      16.293 -23.403  24.959  1.00  0.00     0.124 C 
HETATM   14  N5  UNL     1      16.190 -24.557  24.067  1.00  0.00    -0.379 N 
ATOM     15  H5  UNL     1      15.657 -25.400  24.280  1.00  0.00     0.160 HD
HETATM   16  C6  UNL     1      16.856 -24.378  22.977  1.00  0.00     0.125 C 
HETATM   17  N6  UNL     1      16.948 -25.330  21.905  1.00  0.00    -0.085 NA
ENDROOT
TORSDOF 0
ENDMDL
