MODEL 1
REMARK VINA RESULT: -7.394768570      0.000      0.000
REMARK  1 active torsions:
REMARK  status: ('A' for Active; 'I' for Inactive)
REMARK    1  A    between atoms: C4_11  and  N4_12 
ROOT
HETATM    1  N1  UNL     1      19.504 -23.856  24.935  1.00  0.00    -0.080 NA
HETATM    2  C1  UNL     1      18.803 -23.325  23.817  1.00  0.00     0.159 A 
HETATM    3  N2  UNL     1      19.472 -22.610  22.881  1.00  0.00    -0.294 N 
ATOM      4  H2  UNL     1      20.475 -22.459  22.987  1.00  0.00     0.172 HD
HETATM    5  C2  UNL     1      18.837 -22.097  21.816  1.00  0.00     0.328 A 
HETATM    6  O1  UNL     1      19.506 -21.436  20.971  1.00  0.00    -0.247 OA
HETATM    7  N3  UNL     1      17.504 -22.288  21.658  1.00  0.00    -0.273 N 
ATOM      8  H3  UNL     1      17.023 -21.897  20.847  1.00  0.00     0.173 HD
HETATM    9  C3  UNL     1      16.814 -22.998  22.579  1.00  0.00     0.285 A 
HETATM   10  O2  UNL     1      15.575 -23.195  22.466  1.00  0.00    -0.265 OA
HETATM   11  C4  UNL     1      17.449 -23.526  23.669  1.00  0.00     0.211 A 
ENDROOT
BRANCH  11  12
HETATM   12  N4  UNL     1      16.780 -24.274  24.683  1.00  0.00    -0.106 N 
HETATM   13  O3  UNL     1      16.559 -25.484  24.607  1.00  0.00    -0.531 OA
HETATM   14  O4  UNL     1      16.368 -23.555  25.792  1.00  0.00    -0.531 OA
ENDBRANCH  11  12
TORSDOF 1
ENDMDL
MODEL 2
REMARK VINA RESULT: -7.234131740      1.178      2.347
REMARK  1 active torsions:
REMARK  status: ('A' for Active; 'I' for Inactive)
REMARK    1  A    between atoms: C4_11  and  N4_12 
ROOT
HETATM    1  N1  UNL     1      15.490 -23.296  22.421  1.00  0.00    -0.080 NA
HETATM    2  C1  UNL     1      16.877 -23.029  22.588  1.00  0.00     0.159 A 
HETATM    3  N2  UNL     1      17.540 -22.305  21.655  1.00  0.00    -0.294 N 
ATOM      4  H2  UNL     1      17.036 -21.957  20.839  1.00  0.00     0.172 HD
HETATM    5  C2  UNL     1      18.849 -22.037  21.786  1.00  0.00     0.328 A 
HETATM    6  O1  UNL     1      19.421 -21.358  20.886  1.00  0.00    -0.247 OA
HETATM    7  N3  UNL     1      19.534 -22.490  22.864  1.00  0.00    -0.273 N 
ATOM      8  H3  UNL     1      20.529 -22.285  22.962  1.00  0.00     0.173 HD
HETATM    9  C3  UNL     1      18.894 -23.215  23.809  1.00  0.00     0.285 A 
HETATM   10  O2  UNL     1      19.498 -23.654  24.825  1.00  0.00    -0.265 OA
HETATM   11  C4  UNL     1      17.561 -23.495  23.688  1.00  0.00     0.211 A 
ENDROOT
BRANCH  11  12
HETATM   12  N4  UNL     1      16.830 -24.264  24.641  1.00  0.00    -0.106 N 
HETATM   13  O3  UNL     1      16.594 -25.468  24.514  1.00  0.00    -0.531 OA
HETATM   14  O4  UNL     1      16.376 -23.576  25.753  1.00  0.00    -0.531 OA
ENDBRANCH  11  12
TORSDOF 1
ENDMDL
MODEL 3
REMARK VINA RESULT: -6.914303960      1.868      2.839
REMARK  1 active torsions:
REMARK  status: ('A' for Active; 'I' for Inactive)
REMARK    1  A    between atoms: C4_11  and  N4_12 
ROOT
HETATM    1  N1  UNL     1      18.544 -21.424  23.668  1.00  0.00    -0.080 NA
HETATM    2  C1  UNL     1      17.668 -22.503  23.367  1.00  0.00     0.159 A 
HETATM    3  N2  UNL     1      16.947 -22.485  22.220  1.00  0.00    -0.294 N 
ATOM      4  H2  UNL     1      17.040 -21.695  21.582  1.00  0.00     0.172 HD
HETATM    5  C2  UNL     1      16.112 -23.489  21.910  1.00  0.00     0.328 A 
HETATM    6  O1  UNL     1      15.460 -23.424  20.829  1.00  0.00    -0.247 OA
HETATM    7  N3  UNL     1      15.976 -24.548  22.747  1.00  0.00    -0.273 N 
ATOM      8  H3  UNL     1      15.341 -25.310  22.509  1.00  0.00     0.173 HD
HETATM    9  C3  UNL     1      16.685 -24.589  23.897  1.00  0.00     0.285 A 
HETATM   10  O2  UNL     1      16.584 -25.555  24.699  1.00  0.00    -0.265 OA
HETATM   11  C4  UNL     1      17.540 -23.572  24.225  1.00  0.00     0.211 A 
ENDROOT
BRANCH  11  12
HETATM   12  N4  UNL     1      18.306 -23.548  25.427  1.00  0.00    -0.106 N 
HETATM   13  O3  UNL     1      17.837 -23.269  26.533  1.00  0.00    -0.531 OA
HETATM   14  O4  UNL     1      19.650 -23.855  25.294  1.00  0.00    -0.531 OA
ENDBRANCH  11  12
TORSDOF 1
ENDMDL
MODEL 4
REMARK VINA RESULT: -6.723516217      1.809      2.915
REMARK  1 active torsions:
REMARK  status: ('A' for Active; 'I' for Inactive)
REMARK    1  A    between atoms: C4_11  and  N4_12 
ROOT
HETATM    1  N1  UNL     1      16.581 -25.440  24.786  1.00  0.00    -0.080 NA
HETATM    2  C1  UNL     1      16.740 -24.369  23.863  1.00  0.00     0.159 A 
HETATM    3  N2  UNL     1      16.009 -24.348  22.723  1.00  0.00    -0.294 N 
ATOM      4  H2  UNL     1      15.349 -25.103  22.537  1.00  0.00     0.172 HD
HETATM    5  C2  UNL     1      16.138 -23.351  21.834  1.00  0.00     0.328 A 
HETATM    6  O1  UNL     1      15.434 -23.379  20.785  1.00  0.00    -0.247 OA
HETATM    7  N3  UNL     1      17.010 -22.338  22.066  1.00  0.00    -0.273 N 
ATOM      8  H3  UNL     1      17.106 -21.581  21.389  1.00  0.00     0.173 HD
HETATM    9  C3  UNL     1      17.751 -22.336  23.197  1.00  0.00     0.285 A 
HETATM   10  O2  UNL     1      18.572 -21.413  23.445  1.00  0.00    -0.265 OA
HETATM   11  C4  UNL     1      17.629 -23.347  24.111  1.00  0.00     0.211 A 
ENDROOT
BRANCH  11  12
HETATM   12  N4  UNL     1      18.389 -23.412  25.316  1.00  0.00    -0.106 N 
HETATM   13  O3  UNL     1      17.911 -23.224  26.437  1.00  0.00    -0.531 OA
HETATM   14  O4  UNL     1      19.735 -23.700  25.168  1.00  0.00    -0.531 OA
ENDBRANCH  11  12
TORSDOF 1
ENDMDL
MODEL 5
REMARK VINA RESULT: -6.537094243      1.793      3.275
REMARK  1 active torsions:
REMARK  status: ('A' for Active; 'I' for Inactive)
REMARK    1  A    between atoms: C4_11  and  N4_12 
ROOT
HETATM    1  N1  UNL     1      18.450 -22.874  21.593  1.00  0.00    -0.080 NA
HETATM    2  C1  UNL     1      18.158 -23.202  22.947  1.00  0.00     0.159 A 
HETATM    3  N2  UNL     1      19.034 -22.866  23.924  1.00  0.00    -0.294 N 
ATOM      4  H2  UNL     1      19.897 -22.381  23.679  1.00  0.00     0.172 HD
HETATM    5  C2  UNL     1      18.786 -23.163  25.209  1.00  0.00     0.328 A 
HETATM    6  O1  UNL     1      19.636 -22.830  26.083  1.00  0.00    -0.247 OA
HETATM    7  N3  UNL     1      17.644 -23.808  25.553  1.00  0.00    -0.273 N 
ATOM      8  H3  UNL     1      17.457 -24.032  26.531  1.00  0.00     0.173 HD
HETATM    9  C3  UNL     1      16.754 -24.153  24.596  1.00  0.00     0.285 A 
HETATM   10  O2  UNL     1      15.683 -24.754  24.877  1.00  0.00    -0.265 OA
HETATM   11  C4  UNL     1      16.995 -23.857  23.282  1.00  0.00     0.211 A 
ENDROOT
BRANCH  11  12
HETATM   12  N4  UNL     1      16.105 -24.204  22.223  1.00  0.00    -0.106 N 
HETATM   13  O3  UNL     1      15.382 -23.391  21.643  1.00  0.00    -0.531 OA
HETATM   14  O4  UNL     1      16.083 -25.541  21.865  1.00  0.00    -0.531 OA
ENDBRANCH  11  12
TORSDOF 1
ENDMDL
