MODEL 1
REMARK VINA RESULT: -6.771295921      0.000      0.000
REMARK  5 active torsions:
REMARK  status: ('A' for Active; 'I' for Inactive)
REMARK    1  A    between atoms: C3_5  and  N2_6 
REMARK    2  A    between atoms: C8_16  and  N5_17 
REMARK    3  A    between atoms: N5_17  and  C9_19 
REMARK    4  A    between atoms: C9_19  and  C10_20 
REMARK    5  A    between atoms: C10_20  and  N6_21 
REMARK       I    between atoms: N6_21  and  C11_23 
REMARK       I    between atoms: C11_23  and  N8_25 
ROOT
HETATM    1  N6  UNL     1      32.703  -6.597   3.479  1.00  0.00    -0.351 N 
ATOM      2  H6  UNL     1      33.132  -7.522   3.499  1.00  0.00     0.163 HD
HETATM    3  C11 UNL     1      33.344  -5.429   2.817  1.00  0.00     0.275 C 
HETATM    4  N7  UNL     1      33.079  -4.142   3.430  1.00  0.00    -0.049 NA
HETATM    5  N8  UNL     1      34.008  -5.548   1.831  1.00  0.00    -0.296 NA
HETATM    6  C12 UNL     1      34.716  -5.644   0.783  1.00  0.00     0.271 C 
HETATM    7  N9  UNL     1      35.353  -5.768  -0.158  1.00  0.00    -0.156 NA
ENDROOT
BRANCH   1   8
HETATM    8  C10 UNL     1      31.456  -6.324   4.076  1.00  0.00     0.143 C 
BRANCH   8   9
HETATM    9  C9  UNL     1      30.249  -6.270   3.253  1.00  0.00     0.157 C 
BRANCH   9  10
HETATM   10  N5  UNL     1      29.931  -5.118   2.497  1.00  0.00    -0.224 N 
ATOM     11  H5  UNL     1      30.046  -4.192   2.908  1.00  0.00     0.177 HD
BRANCH  10  12
HETATM   12  C8  UNL     1      29.483  -5.241   1.258  1.00  0.00     0.694 A 
HETATM   13  N4  UNL     1      28.253  -5.668   0.964  1.00  0.00    -0.022 N 
HETATM   14  C3  UNL     1      27.894  -5.772  -0.348  1.00  0.00     0.696 A 
ATOM     15  H4  UNL     1      27.595  -5.910   1.704  1.00  0.00     0.203 HD
HETATM   16  N1  UNL     1      28.788  -5.437  -1.268  1.00  0.00    -0.180 N 
HETATM   17  C2  UNL     1      30.042  -5.001  -1.006  1.00  0.00     0.109 A 
ATOM     18  H1  UNL     1      28.509  -5.514  -2.246  1.00  0.00     0.185 HD
HETATM   19  C1  UNL     1      30.974  -4.674  -2.083  1.00  0.00     0.090 C 
HETATM   20  N10 UNL     1      30.344  -4.919   0.293  1.00  0.00    -0.180 N 
ATOM     21  H10 UNL     1      31.274  -4.596   0.558  1.00  0.00     0.185 HD
BRANCH  14  22
HETATM   22  N2  UNL     1      26.577  -6.228  -0.729  1.00  0.00    -0.214 N 
HETATM   23  C4  UNL     1      26.485  -7.569  -1.237  1.00  0.00     0.168 C 
HETATM   24  C5  UNL     1      25.558  -7.468  -2.451  1.00  0.00     0.252 C 
HETATM   25  N3  UNL     1      24.248  -7.177  -1.904  1.00  0.00    -0.072 N 
HETATM   26  C6  UNL     1      24.190  -5.867  -1.297  1.00  0.00     0.252 C 
ATOM     27  H32 UNL     1      23.519  -7.291  -2.608  1.00  0.00     0.277 HD
ATOM     28  H31 UNL     1      23.953  -7.901  -1.248  1.00  0.00     0.277 HD
HETATM   29  C7  UNL     1      25.405  -5.454  -0.575  1.00  0.00     0.168 C 
ENDBRANCH  14  22
ENDBRANCH  10  12
ENDBRANCH   9  10
ENDBRANCH   8   9
ENDBRANCH   1   8
TORSDOF 5
ENDMDL
MODEL 2
REMARK VINA RESULT: -6.700239601      3.335      5.823
REMARK  5 active torsions:
REMARK  status: ('A' for Active; 'I' for Inactive)
REMARK    1  A    between atoms: C3_5  and  N2_6 
REMARK    2  A    between atoms: C8_16  and  N5_17 
REMARK    3  A    between atoms: N5_17  and  C9_19 
REMARK    4  A    between atoms: C9_19  and  C10_20 
REMARK    5  A    between atoms: C10_20  and  N6_21 
REMARK       I    between atoms: N6_21  and  C11_23 
REMARK       I    between atoms: C11_23  and  N8_25 
ROOT
HETATM    1  N6  UNL     1      29.921  -9.580   6.144  1.00  0.00    -0.351 N 
ATOM      2  H6  UNL     1      29.959 -10.465   6.651  1.00  0.00     0.163 HD
HETATM    3  C11 UNL     1      28.798  -8.616   6.296  1.00  0.00     0.275 C 
HETATM    4  N7  UNL     1      28.471  -7.849   5.109  1.00  0.00    -0.049 NA
HETATM    5  N8  UNL     1      28.228  -8.468   7.335  1.00  0.00    -0.296 NA
HETATM    6  C12 UNL     1      27.606  -8.290   8.425  1.00  0.00     0.271 C 
HETATM    7  N9  UNL     1      27.063  -8.159   9.423  1.00  0.00    -0.156 NA
ENDROOT
BRANCH   1   8
HETATM    8  C10 UNL     1      30.928  -9.176   5.245  1.00  0.00     0.143 C 
BRANCH   8   9
HETATM    9  C9  UNL     1      31.905  -8.167   5.649  1.00  0.00     0.157 C 
BRANCH   9  10
HETATM   10  N5  UNL     1      31.660  -6.789   5.446  1.00  0.00    -0.224 N 
ATOM     11  H5  UNL     1      31.510  -6.175   6.246  1.00  0.00     0.177 HD
BRANCH  10  12
HETATM   12  C8  UNL     1      31.626  -6.296   4.218  1.00  0.00     0.694 A 
HETATM   13  N4  UNL     1      30.498  -5.916   3.614  1.00  0.00    -0.022 N 
HETATM   14  C3  UNL     1      30.569  -5.432   2.341  1.00  0.00     0.696 A 
ATOM     15  H4  UNL     1      29.601  -5.986   4.095  1.00  0.00     0.203 HD
HETATM   16  N1  UNL     1      31.762  -5.359   1.768  1.00  0.00    -0.180 N 
HETATM   17  C2  UNL     1      32.925  -5.734   2.350  1.00  0.00     0.109 A 
ATOM     18  H1  UNL     1      31.807  -4.992   0.817  1.00  0.00     0.185 HD
HETATM   19  C1  UNL     1      34.197  -5.640   1.637  1.00  0.00     0.090 C 
HETATM   20  N10 UNL     1      32.799  -6.202   3.595  1.00  0.00    -0.180 N 
ATOM     21  H10 UNL     1      33.639  -6.501   4.091  1.00  0.00     0.185 HD
BRANCH  14  22
HETATM   22  N2  UNL     1      29.383  -5.006   1.635  1.00  0.00    -0.214 N 
HETATM   23  C4  UNL     1      28.676  -3.884   2.189  1.00  0.00     0.168 C 
HETATM   24  C5  UNL     1      27.197  -4.276   2.116  1.00  0.00     0.252 C 
HETATM   25  N3  UNL     1      26.874  -4.270   0.703  1.00  0.00    -0.072 N 
HETATM   26  C6  UNL     1      27.559  -5.319  -0.016  1.00  0.00     0.252 C 
ATOM     27  H32 UNL     1      25.865  -4.318   0.555  1.00  0.00     0.277 HD
ATOM     28  H31 UNL     1      27.055  -3.357   0.286  1.00  0.00     0.277 HD
HETATM   29  C7  UNL     1      28.936  -5.591   0.429  1.00  0.00     0.168 C 
ENDBRANCH  14  22
ENDBRANCH  10  12
ENDBRANCH   9  10
ENDBRANCH   8   9
ENDBRANCH   1   8
TORSDOF 5
ENDMDL
MODEL 3
REMARK VINA RESULT: -6.635745212      1.690      7.877
REMARK  5 active torsions:
REMARK  status: ('A' for Active; 'I' for Inactive)
REMARK    1  A    between atoms: C3_5  and  N2_6 
REMARK    2  A    between atoms: C8_16  and  N5_17 
REMARK    3  A    between atoms: N5_17  and  C9_19 
REMARK    4  A    between atoms: C9_19  and  C10_20 
REMARK    5  A    between atoms: C10_20  and  N6_21 
REMARK       I    between atoms: N6_21  and  C11_23 
REMARK       I    between atoms: C11_23  and  N8_25 
ROOT
HETATM    1  N6  UNL     1      24.922  -7.681  -2.080  1.00  0.00    -0.351 N 
ATOM      2  H6  UNL     1      24.583  -7.984  -2.994  1.00  0.00     0.163 HD
HETATM    3  C11 UNL     1      24.658  -6.321  -1.538  1.00  0.00     0.275 C 
HETATM    4  N7  UNL     1      25.701  -5.777  -0.690  1.00  0.00    -0.049 NA
HETATM    5  N8  UNL     1      23.642  -5.736  -1.766  1.00  0.00    -0.296 NA
HETATM    6  C12 UNL     1      22.574  -5.092  -1.990  1.00  0.00     0.271 C 
HETATM    7  N9  UNL     1      21.600  -4.537  -2.218  1.00  0.00    -0.156 NA
ENDROOT
BRANCH   1   8
HETATM    8  C10 UNL     1      25.675  -8.518  -1.233  1.00  0.00     0.143 C 
BRANCH   8   9
HETATM    9  C9  UNL     1      27.133  -8.527  -1.325  1.00  0.00     0.157 C 
BRANCH   9  10
HETATM   10  N5  UNL     1      27.939  -8.159  -0.223  1.00  0.00    -0.224 N 
ATOM     11  H5  UNL     1      27.740  -8.538   0.702  1.00  0.00     0.177 HD
BRANCH  10  12
HETATM   12  C8  UNL     1      28.951  -7.322  -0.391  1.00  0.00     0.694 A 
HETATM   13  N4  UNL     1      29.994  -7.261   0.439  1.00  0.00    -0.022 N 
HETATM   14  C3  UNL     1      30.979  -6.354   0.184  1.00  0.00     0.696 A 
ATOM     15  H4  UNL     1      30.054  -7.881   1.247  1.00  0.00     0.203 HD
HETATM   16  N1  UNL     1      30.852  -5.578  -0.883  1.00  0.00    -0.180 N 
HETATM   17  C2  UNL     1      29.809  -5.613  -1.746  1.00  0.00     0.109 A 
ATOM     18  H1  UNL     1      31.596  -4.905  -1.069  1.00  0.00     0.185 HD
HETATM   19  C1  UNL     1      29.737  -4.705  -2.888  1.00  0.00     0.090 C 
HETATM   20  N10 UNL     1      28.872  -6.517  -1.449  1.00  0.00    -0.180 N 
ATOM     21  H10 UNL     1      28.059  -6.595  -2.061  1.00  0.00     0.185 HD
BRANCH  14  22
HETATM   22  N2  UNL     1      32.134  -6.240   1.046  1.00  0.00    -0.214 N 
HETATM   23  C4  UNL     1      31.875  -6.187   2.459  1.00  0.00     0.168 C 
HETATM   24  C5  UNL     1      32.793  -5.079   2.985  1.00  0.00     0.252 C 
HETATM   25  N3  UNL     1      34.136  -5.611   2.863  1.00  0.00    -0.072 N 
HETATM   26  C6  UNL     1      34.531  -5.779   1.484  1.00  0.00     0.252 C 
ATOM     27  H32 UNL     1      34.808  -5.037   3.373  1.00  0.00     0.277 HD
ATOM     28  H31 UNL     1      34.238  -6.481   3.385  1.00  0.00     0.277 HD
HETATM   29  C7  UNL     1      33.466  -6.237   0.576  1.00  0.00     0.168 C 
ENDBRANCH  14  22
ENDBRANCH  10  12
ENDBRANCH   9  10
ENDBRANCH   8   9
ENDBRANCH   1   8
TORSDOF 5
ENDMDL
MODEL 4
REMARK VINA RESULT: -6.616269519      2.068      3.493
REMARK  5 active torsions:
REMARK  status: ('A' for Active; 'I' for Inactive)
REMARK    1  A    between atoms: C3_5  and  N2_6 
REMARK    2  A    between atoms: C8_16  and  N5_17 
REMARK    3  A    between atoms: N5_17  and  C9_19 
REMARK    4  A    between atoms: C9_19  and  C10_20 
REMARK    5  A    between atoms: C10_20  and  N6_21 
REMARK       I    between atoms: N6_21  and  C11_23 
REMARK       I    between atoms: C11_23  and  N8_25 
ROOT
HETATM    1  N6  UNL     1      30.425  -5.624   3.224  1.00  0.00    -0.351 N 
ATOM      2  H6  UNL     1      30.841  -4.696   3.137  1.00  0.00     0.163 HD
HETATM    3  C11 UNL     1      28.956  -5.839   3.323  1.00  0.00     0.275 C 
HETATM    4  N7  UNL     1      28.546  -6.971   4.130  1.00  0.00    -0.049 NA
HETATM    5  N8  UNL     1      28.176  -5.139   2.751  1.00  0.00    -0.296 NA
HETATM    6  C12 UNL     1      27.324  -4.413   2.155  1.00  0.00     0.271 C 
HETATM    7  N9  UNL     1      26.584  -3.735   1.607  1.00  0.00    -0.156 NA
ENDROOT
BRANCH   1   8
HETATM    8  C10 UNL     1      31.197  -6.803   3.262  1.00  0.00     0.143 C 
BRANCH   8   9
HETATM    9  C9  UNL     1      31.657  -7.413   2.016  1.00  0.00     0.157 C 
BRANCH   9  10
HETATM   10  N5  UNL     1      30.758  -8.084   1.155  1.00  0.00    -0.224 N 
ATOM     11  H5  UNL     1      30.686  -9.101   1.188  1.00  0.00     0.177 HD
BRANCH  10  12
HETATM   12  C8  UNL     1      30.012  -7.395   0.307  1.00  0.00     0.694 A 
HETATM   13  N4  UNL     1      28.705  -7.609   0.142  1.00  0.00    -0.022 N 
HETATM   14  C3  UNL     1      28.028  -6.852  -0.768  1.00  0.00     0.696 A 
ATOM     15  H4  UNL     1      28.222  -8.324   0.686  1.00  0.00     0.203 HD
HETATM   16  N1  UNL     1      28.706  -5.933  -1.442  1.00  0.00    -0.180 N 
HETATM   17  C2  UNL     1      30.030  -5.689  -1.301  1.00  0.00     0.109 A 
ATOM     18  H1  UNL     1      28.191  -5.369  -2.118  1.00  0.00     0.185 HD
HETATM   19  C1  UNL     1      30.704  -4.670  -2.102  1.00  0.00     0.090 C 
HETATM   20  N10 UNL     1      30.645  -6.459  -0.399  1.00  0.00    -0.180 N 
ATOM     21  H10 UNL     1      31.644  -6.324  -0.243  1.00  0.00     0.185 HD
BRANCH  14  22
HETATM   22  N2  UNL     1      26.613  -7.037  -0.991  1.00  0.00    -0.214 N 
HETATM   23  C4  UNL     1      26.155  -8.395  -1.109  1.00  0.00     0.168 C 
HETATM   24  C5  UNL     1      25.182  -8.380  -2.293  1.00  0.00     0.252 C 
HETATM   25  N3  UNL     1      24.033  -7.630  -1.827  1.00  0.00    -0.072 N 
HETATM   26  C6  UNL     1      24.346  -6.237  -1.603  1.00  0.00     0.252 C 
ATOM     27  H32 UNL     1      23.242  -7.732  -2.463  1.00  0.00     0.277 HD
ATOM     28  H31 UNL     1      23.626  -8.055  -0.994  1.00  0.00     0.277 HD
HETATM   29  C7  UNL     1      25.681  -5.976  -1.039  1.00  0.00     0.168 C 
ENDBRANCH  14  22
ENDBRANCH  10  12
ENDBRANCH   9  10
ENDBRANCH   8   9
ENDBRANCH   1   8
TORSDOF 5
ENDMDL
MODEL 5
REMARK VINA RESULT: -6.613343913      1.642      8.083
REMARK  5 active torsions:
REMARK  status: ('A' for Active; 'I' for Inactive)
REMARK    1  A    between atoms: C3_5  and  N2_6 
REMARK    2  A    between atoms: C8_16  and  N5_17 
REMARK    3  A    between atoms: N5_17  and  C9_19 
REMARK    4  A    between atoms: C9_19  and  C10_20 
REMARK    5  A    between atoms: C10_20  and  N6_21 
REMARK       I    between atoms: N6_21  and  C11_23 
REMARK       I    between atoms: C11_23  and  N8_25 
ROOT
HETATM    1  N6  UNL     1      25.213  -6.745  -2.328  1.00  0.00    -0.351 N 
ATOM      2  H6  UNL     1      25.018  -6.846  -3.325  1.00  0.00     0.163 HD
HETATM    3  C11 UNL     1      24.346  -5.947  -1.418  1.00  0.00     0.275 C 
HETATM    4  N7  UNL     1      25.032  -5.292  -0.322  1.00  0.00    -0.049 NA
HETATM    5  N8  UNL     1      23.164  -5.879  -1.571  1.00  0.00    -0.296 NA
HETATM    6  C12 UNL     1      21.907  -5.790  -1.707  1.00  0.00     0.271 C 
HETATM    7  N9  UNL     1      20.775  -5.727  -1.864  1.00  0.00    -0.156 NA
ENDROOT
BRANCH   1   8
HETATM    8  C10 UNL     1      26.323  -7.350  -1.705  1.00  0.00     0.143 C 
BRANCH   8   9
HETATM    9  C9  UNL     1      27.676  -6.917  -2.046  1.00  0.00     0.157 C 
BRANCH   9  10
HETATM   10  N5  UNL     1      28.151  -5.638  -1.673  1.00  0.00    -0.224 N 
ATOM     11  H5  UNL     1      28.121  -4.869  -2.342  1.00  0.00     0.177 HD
BRANCH  10  12
HETATM   12  C8  UNL     1      28.635  -5.439  -0.457  1.00  0.00     0.694 A 
HETATM   13  N4  UNL     1      29.873  -5.783  -0.098  1.00  0.00    -0.022 N 
HETATM   14  C3  UNL     1      30.270  -5.546   1.185  1.00  0.00     0.696 A 
ATOM     15  H4  UNL     1      30.510  -6.213  -0.769  1.00  0.00     0.203 HD
HETATM   16  N1  UNL     1      29.403  -4.979   2.012  1.00  0.00    -0.180 N 
HETATM   17  C2  UNL     1      28.141  -4.618   1.682  1.00  0.00     0.109 A 
ATOM     18  H1  UNL     1      29.710  -4.801   2.968  1.00  0.00     0.185 HD
HETATM   19  C1  UNL     1      27.241  -4.017   2.663  1.00  0.00     0.090 C 
HETATM   20  N10 UNL     1      27.802  -4.873   0.415  1.00  0.00    -0.180 N 
ATOM     21  H10 UNL     1      26.864  -4.623   0.102  1.00  0.00     0.185 HD
BRANCH  14  22
HETATM   22  N2  UNL     1      31.598  -5.896   1.634  1.00  0.00    -0.214 N 
HETATM   23  C4  UNL     1      31.874  -5.701   3.032  1.00  0.00     0.168 C 
HETATM   24  C5  UNL     1      33.263  -5.057   3.072  1.00  0.00     0.252 C 
HETATM   25  N3  UNL     1      34.176  -6.100   2.645  1.00  0.00    -0.072 N 
HETATM   26  C6  UNL     1      33.985  -6.455   1.258  1.00  0.00     0.252 C 
ATOM     27  H32 UNL     1      35.145  -5.841   2.830  1.00  0.00     0.277 HD
ATOM     28  H31 UNL     1      34.109  -6.920   3.249  1.00  0.00     0.277 HD
HETATM   29  C7  UNL     1      32.587  -6.456   0.796  1.00  0.00     0.168 C 
ENDBRANCH  14  22
ENDBRANCH  10  12
ENDBRANCH   9  10
ENDBRANCH   8   9
ENDBRANCH   1   8
TORSDOF 5
ENDMDL
