MODEL 1
REMARK VINA RESULT: -7.529464356      0.000      0.000
REMARK  6 active torsions:
REMARK  status: ('A' for Active; 'I' for Inactive)
REMARK    1  A    between atoms: C4_4  and  C5_5 
REMARK       I    between atoms: C5_5  and  N1_7 
REMARK    2  A    between atoms: N1_7  and  C6_9 
REMARK    3  A    between atoms: C7_19  and  S1_20 
REMARK    4  A    between atoms: S1_20  and  C8_21 
REMARK    5  A    between atoms: C8_21  and  C9_22 
REMARK       I    between atoms: C9_22  and  N7_24 
REMARK    6  A    between atoms: N7_24  and  N8_26 
ROOT
HETATM    1  C1  UNL     1      29.741  -4.883  -2.892  1.00  0.00     0.043 C 
HETATM    2  C2  UNL     1      28.718  -5.470  -2.279  1.00  0.00     0.026 A 
HETATM    3  C3  UNL     1      28.208  -6.753  -2.743  1.00  0.00     0.064 A 
HETATM    4  C4  UNL     1      27.193  -7.285  -2.096  1.00  0.00     0.105 A 
HETATM    5  N6  UNL     1      26.633  -6.588  -0.967  1.00  0.00    -0.332 N 
ATOM      6  H6  UNL     1      25.847  -7.014  -0.477  1.00  0.00     0.168 HD
HETATM    7  C7  UNL     1      27.118  -5.340  -0.501  1.00  0.00     0.145 A 
HETATM    8  N9  UNL     1      28.123  -4.836  -1.161  1.00  0.00    -0.338 N 
ATOM      9  H9  UNL     1      28.500  -3.937  -0.857  1.00  0.00     0.168 HD
ENDROOT
BRANCH   4  10
HETATM   10  C5  UNL     1      26.620  -8.563  -2.490  1.00  0.00     0.286 C 
HETATM   11  O1  UNL     1      25.819  -8.588  -3.455  1.00  0.00    -0.265 OA
HETATM   12  N1  UNL     1      26.939  -9.775  -1.817  1.00  0.00    -0.152 N 
ATOM     13  H1  UNL     1      26.348 -10.075  -1.042  1.00  0.00     0.188 HD
BRANCH  12  14
HETATM   14  C6  UNL     1      27.946 -10.507  -2.146  1.00  0.00     0.713 A 
HETATM   15  N2  UNL     1      29.205 -10.293  -1.687  1.00  0.00    -0.118 N 
HETATM   16  N3  UNL     1      30.025 -11.196  -2.192  1.00  0.00    -0.212 N 
ATOM     17  H2  UNL     1      29.477  -9.547  -1.047  1.00  0.00     0.207 HD
HETATM   18  N4  UNL     1      29.299 -11.982  -2.969  1.00  0.00     0.009 NA
ATOM     19  H3  UNL     1      31.028 -11.272  -2.018  1.00  0.00     0.206 HD
HETATM   20  N5  UNL     1      28.035 -11.571  -2.947  1.00  0.00    -0.113 N 
ATOM     21  H5  UNL     1      27.261 -11.999  -3.458  1.00  0.00     0.203 HD
ENDBRANCH  12  14
ENDBRANCH   4  10
BRANCH   7  22
HETATM   22  S1  UNL     1      26.466  -4.482   0.909  1.00  0.00    -0.085 SA
BRANCH  22  23
HETATM   23  C8  UNL     1      27.599  -4.585   2.298  1.00  0.00     0.186 C 
BRANCH  23  24
HETATM   24  C9  UNL     1      28.876  -3.942   1.937  1.00  0.00     0.245 C 
HETATM   25  O2  UNL     1      29.844  -4.604   1.544  1.00  0.00    -0.271 OA
HETATM   26  N7  UNL     1      28.975  -2.531   2.051  1.00  0.00    -0.276 N 
ATOM     27  H7  UNL     1      28.176  -1.986   2.374  1.00  0.00     0.189 HD
BRANCH  26  28
HETATM   28  N8  UNL     1      30.172  -1.891   1.716  1.00  0.00    -0.343 N 
ATOM     29  H82 UNL     1      30.579  -2.048   0.794  1.00  0.00     0.176 HD
ATOM     30  H81 UNL     1      30.623  -1.278   2.394  1.00  0.00     0.176 HD
ENDBRANCH  26  28
ENDBRANCH  23  24
ENDBRANCH  22  23
ENDBRANCH   7  22
TORSDOF 6
ENDMDL
MODEL 2
REMARK VINA RESULT: -7.342429448      2.697      3.723
REMARK  6 active torsions:
REMARK  status: ('A' for Active; 'I' for Inactive)
REMARK    1  A    between atoms: C4_4  and  C5_5 
REMARK       I    between atoms: C5_5  and  N1_7 
REMARK    2  A    between atoms: N1_7  and  C6_9 
REMARK    3  A    between atoms: C7_19  and  S1_20 
REMARK    4  A    between atoms: S1_20  and  C8_21 
REMARK    5  A    between atoms: C8_21  and  C9_22 
REMARK       I    between atoms: C9_22  and  N7_24 
REMARK    6  A    between atoms: N7_24  and  N8_26 
ROOT
HETATM    1  C1  UNL     1      23.885  -5.823  -1.807  1.00  0.00     0.043 C 
HETATM    2  C2  UNL     1      25.097  -5.595  -1.313  1.00  0.00     0.026 A 
HETATM    3  C3  UNL     1      26.289  -6.013  -2.038  1.00  0.00     0.064 A 
HETATM    4  C4  UNL     1      27.462  -5.761  -1.497  1.00  0.00     0.105 A 
HETATM    5  N6  UNL     1      27.522  -5.087  -0.226  1.00  0.00    -0.332 N 
ATOM      6  H6  UNL     1      28.439  -4.899   0.179  1.00  0.00     0.168 HD
HETATM    7  C7  UNL     1      26.373  -4.672   0.493  1.00  0.00     0.145 A 
HETATM    8  N9  UNL     1      25.224  -4.936  -0.065  1.00  0.00    -0.338 N 
ATOM      9  H9  UNL     1      24.373  -4.653   0.422  1.00  0.00     0.168 HD
ENDROOT
BRANCH   4  10
HETATM   10  C5  UNL     1      28.704  -6.143  -2.151  1.00  0.00     0.286 C 
HETATM   11  O1  UNL     1      29.016  -5.572  -3.224  1.00  0.00    -0.265 OA
HETATM   12  N1  UNL     1      29.568  -7.136  -1.613  1.00  0.00    -0.152 N 
ATOM     13  H1  UNL     1      29.450  -8.103  -1.914  1.00  0.00     0.188 HD
BRANCH  12  14
HETATM   14  C6  UNL     1      30.494  -6.863  -0.760  1.00  0.00     0.713 A 
HETATM   15  N2  UNL     1      30.986  -5.612  -0.570  1.00  0.00    -0.118 N 
HETATM   16  N3  UNL     1      31.921  -5.634   0.361  1.00  0.00    -0.212 N 
ATOM     17  H2  UNL     1      30.678  -4.778  -1.072  1.00  0.00     0.207 HD
HETATM   18  N4  UNL     1      32.028  -6.889   0.765  1.00  0.00     0.009 NA
ATOM     19  H3  UNL     1      32.458  -4.838   0.703  1.00  0.00     0.206 HD
HETATM   20  N5  UNL     1      31.165  -7.642   0.090  1.00  0.00    -0.113 N 
ATOM     21  H5  UNL     1      31.039  -8.648   0.203  1.00  0.00     0.203 HD
ENDBRANCH  12  14
ENDBRANCH   4  10
BRANCH   7  22
HETATM   22  S1  UNL     1      26.426  -3.809   2.043  1.00  0.00    -0.085 SA
BRANCH  22  23
HETATM   23  C8  UNL     1      27.831  -4.343   3.024  1.00  0.00     0.186 C 
BRANCH  23  24
HETATM   24  C9  UNL     1      29.068  -3.766   2.463  1.00  0.00     0.245 C 
HETATM   25  O2  UNL     1      30.088  -4.447   2.312  1.00  0.00    -0.271 OA
HETATM   26  N7  UNL     1      29.063  -2.396   2.093  1.00  0.00    -0.276 N 
ATOM     27  H7  UNL     1      28.221  -1.835   2.217  1.00  0.00     0.189 HD
BRANCH  26  28
HETATM   28  N8  UNL     1      30.219  -1.818   1.559  1.00  0.00    -0.343 N 
ATOM     29  H82 UNL     1      31.087  -2.354   1.557  1.00  0.00     0.176 HD
ATOM     30  H81 UNL     1      30.181  -0.873   1.178  1.00  0.00     0.176 HD
ENDBRANCH  26  28
ENDBRANCH  23  24
ENDBRANCH  22  23
ENDBRANCH   7  22
TORSDOF 6
ENDMDL
MODEL 3
REMARK VINA RESULT: -7.248605970      2.542      3.577
REMARK  6 active torsions:
REMARK  status: ('A' for Active; 'I' for Inactive)
REMARK    1  A    between atoms: C4_4  and  C5_5 
REMARK       I    between atoms: C5_5  and  N1_7 
REMARK    2  A    between atoms: N1_7  and  C6_9 
REMARK    3  A    between atoms: C7_19  and  S1_20 
REMARK    4  A    between atoms: S1_20  and  C8_21 
REMARK    5  A    between atoms: C8_21  and  C9_22 
REMARK       I    between atoms: C9_22  and  N7_24 
REMARK    6  A    between atoms: N7_24  and  N8_26 
ROOT
HETATM    1  C1  UNL     1      26.454  -3.455   2.200  1.00  0.00     0.043 C 
HETATM    2  C2  UNL     1      26.791  -4.255   1.194  1.00  0.00     0.026 A 
HETATM    3  C3  UNL     1      25.775  -4.815   0.314  1.00  0.00     0.064 A 
HETATM    4  C4  UNL     1      26.169  -5.602  -0.664  1.00  0.00     0.105 A 
HETATM    5  N6  UNL     1      27.574  -5.875  -0.827  1.00  0.00    -0.332 N 
ATOM      6  H6  UNL     1      27.862  -6.486  -1.590  1.00  0.00     0.168 HD
HETATM    7  C7  UNL     1      28.577  -5.337   0.018  1.00  0.00     0.145 A 
HETATM    8  N9  UNL     1      28.158  -4.562   0.980  1.00  0.00    -0.338 N 
ATOM      9  H9  UNL     1      28.850  -4.157   1.611  1.00  0.00     0.168 HD
ENDROOT
BRANCH   4  10
HETATM   10  C5  UNL     1      25.223  -6.205  -1.590  1.00  0.00     0.286 C 
HETATM   11  O1  UNL     1      24.562  -5.452  -2.345  1.00  0.00    -0.265 OA
HETATM   12  N1  UNL     1      25.029  -7.612  -1.664  1.00  0.00    -0.152 N 
ATOM     13  H1  UNL     1      24.298  -8.036  -1.094  1.00  0.00     0.188 HD
BRANCH  12  14
HETATM   14  C6  UNL     1      25.739  -8.372  -2.423  1.00  0.00     0.713 A 
HETATM   15  N2  UNL     1      26.246  -7.969  -3.616  1.00  0.00    -0.118 N 
HETATM   16  N3  UNL     1      26.928  -8.954  -4.169  1.00  0.00    -0.212 N 
ATOM     17  H2  UNL     1      26.120  -7.042  -4.024  1.00  0.00     0.207 HD
HETATM   18  N4  UNL     1      26.860  -9.980  -3.338  1.00  0.00     0.009 NA
ATOM     19  H3  UNL     1      27.415  -8.929  -5.065  1.00  0.00     0.206 HD
HETATM   20  N5  UNL     1      26.140  -9.636  -2.275  1.00  0.00    -0.113 N 
ATOM     21  H5  UNL     1      25.929 -10.239  -1.479  1.00  0.00     0.203 HD
ENDBRANCH  12  14
ENDBRANCH   4  10
BRANCH   7  22
HETATM   22  S1  UNL     1      30.315  -5.631  -0.186  1.00  0.00    -0.085 SA
BRANCH  22  23
HETATM   23  C8  UNL     1      30.991  -6.483   1.242  1.00  0.00     0.186 C 
BRANCH  23  24
HETATM   24  C9  UNL     1      31.502  -5.491   2.207  1.00  0.00     0.245 C 
HETATM   25  O2  UNL     1      30.754  -4.937   3.021  1.00  0.00    -0.271 OA
HETATM   26  N7  UNL     1      32.886  -5.180   2.183  1.00  0.00    -0.276 N 
ATOM     27  H7  UNL     1      33.502  -5.637   1.512  1.00  0.00     0.189 HD
BRANCH  26  28
HETATM   28  N8  UNL     1      33.401  -4.243   3.084  1.00  0.00    -0.343 N 
ATOM     29  H82 UNL     1      33.664  -4.548   4.022  1.00  0.00     0.176 HD
ATOM     30  H81 UNL     1      33.508  -3.271   2.797  1.00  0.00     0.176 HD
ENDBRANCH  26  28
ENDBRANCH  23  24
ENDBRANCH  22  23
ENDBRANCH   7  22
TORSDOF 6
ENDMDL
MODEL 4
REMARK VINA RESULT: -7.197762959      3.744      5.872
REMARK  6 active torsions:
REMARK  status: ('A' for Active; 'I' for Inactive)
REMARK    1  A    between atoms: C4_4  and  C5_5 
REMARK       I    between atoms: C5_5  and  N1_7 
REMARK    2  A    between atoms: N1_7  and  C6_9 
REMARK    3  A    between atoms: C7_19  and  S1_20 
REMARK    4  A    between atoms: S1_20  and  C8_21 
REMARK    5  A    between atoms: C8_21  and  C9_22 
REMARK       I    between atoms: C9_22  and  N7_24 
REMARK    6  A    between atoms: N7_24  and  N8_26 
ROOT
HETATM    1  C1  UNL     1      23.674  -5.807  -1.797  1.00  0.00     0.043 C 
HETATM    2  C2  UNL     1      24.900  -5.537  -1.362  1.00  0.00     0.026 A 
HETATM    3  C3  UNL     1      25.113  -4.960  -0.043  1.00  0.00     0.064 A 
HETATM    4  C4  UNL     1      26.350  -4.713   0.332  1.00  0.00     0.105 A 
HETATM    5  N6  UNL     1      27.434  -5.023  -0.565  1.00  0.00    -0.332 N 
ATOM      6  H6  UNL     1      28.386  -4.826  -0.258  1.00  0.00     0.168 HD
HETATM    7  C7  UNL     1      27.246  -5.586  -1.851  1.00  0.00     0.145 A 
HETATM    8  N9  UNL     1      26.010  -5.818  -2.198  1.00  0.00    -0.338 N 
ATOM      9  H9  UNL     1      25.833  -6.223  -3.118  1.00  0.00     0.168 HD
ENDROOT
BRANCH   4  10
HETATM   10  C5  UNL     1      26.656  -4.137   1.633  1.00  0.00     0.286 C 
HETATM   11  O1  UNL     1      25.799  -4.229   2.544  1.00  0.00    -0.265 OA
HETATM   12  N1  UNL     1      27.889  -3.480   1.898  1.00  0.00    -0.152 N 
ATOM     13  H1  UNL     1      27.945  -2.471   1.760  1.00  0.00     0.188 HD
BRANCH  12  14
HETATM   14  C6  UNL     1      28.937  -4.108   2.306  1.00  0.00     0.713 A 
HETATM   15  N2  UNL     1      30.166  -3.943   1.754  1.00  0.00    -0.118 N 
HETATM   16  N3  UNL     1      31.042  -4.712   2.372  1.00  0.00    -0.212 N 
ATOM     17  H2  UNL     1      30.380  -3.317   0.977  1.00  0.00     0.207 HD
HETATM   18  N4  UNL     1      30.381  -5.365   3.313  1.00  0.00     0.009 NA
ATOM     19  H3  UNL     1      32.038  -4.789   2.165  1.00  0.00     0.206 HD
HETATM   20  N5  UNL     1      29.102  -5.004   3.280  1.00  0.00    -0.113 N 
ATOM     21  H5  UNL     1      28.369  -5.355   3.897  1.00  0.00     0.203 HD
ENDBRANCH  12  14
ENDBRANCH   4  10
BRANCH   7  22
HETATM   22  S1  UNL     1      28.568  -6.008  -2.958  1.00  0.00    -0.085 SA
BRANCH  22  23
HETATM   23  C8  UNL     1      29.969  -4.909  -2.726  1.00  0.00     0.186 C 
BRANCH  23  24
HETATM   24  C9  UNL     1      30.753  -5.356  -1.559  1.00  0.00     0.245 C 
HETATM   25  O2  UNL     1      30.214  -5.903  -0.590  1.00  0.00    -0.271 OA
HETATM   26  N7  UNL     1      32.156  -5.142  -1.569  1.00  0.00    -0.276 N 
ATOM     27  H7  UNL     1      32.599  -4.691  -2.369  1.00  0.00     0.189 HD
BRANCH  26  28
HETATM   28  N8  UNL     1      32.927  -5.554  -0.479  1.00  0.00    -0.343 N 
ATOM     29  H82 UNL     1      33.711  -6.188  -0.635  1.00  0.00     0.176 HD
ATOM     30  H81 UNL     1      32.699  -5.217   0.457  1.00  0.00     0.176 HD
ENDBRANCH  26  28
ENDBRANCH  23  24
ENDBRANCH  22  23
ENDBRANCH   7  22
TORSDOF 6
ENDMDL
MODEL 5
REMARK VINA RESULT: -7.179395415      1.924      2.613
REMARK  6 active torsions:
REMARK  status: ('A' for Active; 'I' for Inactive)
REMARK    1  A    between atoms: C4_4  and  C5_5 
REMARK       I    between atoms: C5_5  and  N1_7 
REMARK    2  A    between atoms: N1_7  and  C6_9 
REMARK    3  A    between atoms: C7_19  and  S1_20 
REMARK    4  A    between atoms: S1_20  and  C8_21 
REMARK    5  A    between atoms: C8_21  and  C9_22 
REMARK       I    between atoms: C9_22  and  N7_24 
REMARK    6  A    between atoms: N7_24  and  N8_26 
ROOT
HETATM    1  C1  UNL     1      23.060  -5.791  -1.452  1.00  0.00     0.043 C 
HETATM    2  C2  UNL     1      24.367  -5.685  -1.237  1.00  0.00     0.026 A 
HETATM    3  C3  UNL     1      25.326  -6.249  -2.178  1.00  0.00     0.064 A 
HETATM    4  C4  UNL     1      26.607  -6.114  -1.911  1.00  0.00     0.105 A 
HETATM    5  N6  UNL     1      27.009  -5.420  -0.715  1.00  0.00    -0.332 N 
ATOM      6  H6  UNL     1      28.005  -5.323  -0.524  1.00  0.00     0.168 HD
HETATM    7  C7  UNL     1      26.091  -4.863   0.210  1.00  0.00     0.145 A 
HETATM    8  N9  UNL     1      24.827  -5.013  -0.078  1.00  0.00    -0.338 N 
ATOM      9  H9  UNL     1      24.135  -4.627   0.565  1.00  0.00     0.168 HD
ENDROOT
BRANCH   4  10
HETATM   10  C5  UNL     1      27.633  -6.645  -2.795  1.00  0.00     0.286 C 
HETATM   11  O1  UNL     1      28.786  -6.156  -2.735  1.00  0.00    -0.265 OA
HETATM   12  N1  UNL     1      27.368  -7.697  -3.716  1.00  0.00    -0.152 N 
ATOM     13  H1  UNL     1      27.084  -7.456  -4.665  1.00  0.00     0.188 HD
BRANCH  12  14
HETATM   14  C6  UNL     1      27.473  -8.940  -3.399  1.00  0.00     0.713 A 
HETATM   15  N2  UNL     1      28.153  -9.376  -2.308  1.00  0.00    -0.118 N 
HETATM   16  N3  UNL     1      28.090 -10.693  -2.237  1.00  0.00    -0.212 N 
ATOM     17  H2  UNL     1      28.639  -8.776  -1.642  1.00  0.00     0.207 HD
HETATM   18  N4  UNL     1      27.376 -11.098  -3.274  1.00  0.00     0.009 NA
ATOM     19  H3  UNL     1      28.512 -11.284  -1.521  1.00  0.00     0.206 HD
HETATM   20  N5  UNL     1      26.997 -10.041  -3.985  1.00  0.00    -0.113 N 
ATOM     21  H5  UNL     1      26.436 -10.067  -4.837  1.00  0.00     0.203 HD
ENDBRANCH  12  14
ENDBRANCH   4  10
BRANCH   7  22
HETATM   22  S1  UNL     1      26.564  -3.973   1.671  1.00  0.00    -0.085 SA
BRANCH  22  23
HETATM   23  C8  UNL     1      27.967  -4.758   2.470  1.00  0.00     0.186 C 
BRANCH  23  24
HETATM   24  C9  UNL     1      29.183  -3.962   2.218  1.00  0.00     0.245 C 
HETATM   25  O2  UNL     1      30.308  -4.474   2.244  1.00  0.00    -0.271 OA
HETATM   26  N7  UNL     1      29.035  -2.578   1.942  1.00  0.00    -0.276 N 
ATOM     27  H7  UNL     1      28.107  -2.156   1.920  1.00  0.00     0.189 HD
BRANCH  26  28
HETATM   28  N8  UNL     1      30.168  -1.795   1.698  1.00  0.00    -0.343 N 
ATOM     29  H82 UNL     1      30.170  -0.819   1.994  1.00  0.00     0.176 HD
ATOM     30  H81 UNL     1      30.975  -2.206   1.230  1.00  0.00     0.176 HD
ENDBRANCH  26  28
ENDBRANCH  23  24
ENDBRANCH  22  23
ENDBRANCH   7  22
TORSDOF 6
ENDMDL
