MODEL 1
REMARK VINA RESULT: -8.018217246      0.000      0.000
REMARK  10 active torsions:
REMARK  status: ('A' for Active; 'I' for Inactive)
REMARK    1  A    between atoms: C2_2  and  C3_3 
REMARK    2  A    between atoms: N1_4  and  C4_5 
REMARK    3  A    between atoms: N1_4  and  C6_7 
REMARK    4  A    between atoms: C9_11  and  C10_12 
REMARK    5  A    between atoms: C10_12  and  C12_14 
REMARK    6  A    between atoms: C15_18  and  O3_19 
REMARK    7  A    between atoms: C16_21  and  O4_22 
REMARK    8  A    between atoms: C17_24  and  O5_25 
REMARK    9  A    between atoms: C21_30  and  O6_31 
REMARK   10  A    between atoms: C25_36  and  C26_37 
ROOT
HETATM    1  C6  UNL     1      17.706   4.886  20.392  1.00  0.00     0.029 C 
HETATM    2  C7  UNL     1      19.168   4.848  19.966  1.00  0.00     0.018 C 
HETATM    3  C8  UNL     1      19.710   3.519  19.623  1.00  0.00     0.149 C 
HETATM    4  O1  UNL     1      20.557   3.314  18.611  1.00  0.00    -0.356 OA
HETATM    5  C9  UNL     1      21.751   3.877  18.505  1.00  0.00     0.146 C 
HETATM    6  C14 UNL     1      21.582   5.266  17.988  1.00  0.00     0.062 C 
HETATM    7  C15 UNL     1      22.370   5.573  16.738  1.00  0.00     0.157 C 
HETATM    8  C16 UNL     1      21.858   7.004  16.522  1.00  0.00     0.177 C 
HETATM    9  C17 UNL     1      20.398   6.870  16.829  1.00  0.00     0.162 C 
HETATM   10  C18 UNL     1      20.188   5.731  17.789  1.00  0.00     0.024 C 
HETATM   11  C19 UNL     1      19.293   4.774  16.990  1.00  0.00     0.024 C 
HETATM   12  C20 UNL     1      19.498   6.014  19.061  1.00  0.00    -0.004 C 
HETATM   13  C21 UNL     1      19.888   7.167  19.892  1.00  0.00     0.051 C 
HETATM   14  C22 UNL     1      18.749   8.057  20.272  1.00  0.00     0.071 C 
HETATM   15  C23 UNL     1      17.952   7.751  21.438  1.00  0.00     0.010 C 
HETATM   16  C24 UNL     1      18.293   6.569  22.286  1.00  0.00     0.030 C 
HETATM   17  C25 UNL     1      17.704   6.885  23.660  1.00  0.00    -0.075 C 
HETATM   18  C29 UNL     1      16.450   7.312  23.671  1.00  0.00    -0.022 C 
HETATM   19  C30 UNL     1      15.713   7.456  22.405  1.00  0.00     0.037 C 
HETATM   20  C31 UNL     1      16.641   7.055  21.228  1.00  0.00    -0.026 C 
HETATM   21  C32 UNL     1      15.851   7.188  20.026  1.00  0.00     0.016 C 
HETATM   22  C33 UNL     1      17.365   5.767  21.526  1.00  0.00     0.054 C 
ENDROOT
BRANCH   1  23
HETATM   23  N1  UNL     1      17.027   3.665  20.503  1.00  0.00    -0.359 N 
HETATM   24  C3  UNL     1      16.213   3.041  19.600  1.00  0.00     0.090 C 
BRANCH  24  25
HETATM   25  C2  UNL     1      16.132   3.465  18.203  1.00  0.00     0.007 C 
HETATM   26  C1  UNL     1      15.120   4.233  17.816  1.00  0.00     0.012 C 
ENDBRANCH  24  25
BRANCH  23  27
HETATM   27  C4  UNL     1      17.021   3.069  21.814  1.00  0.00     0.124 C 
HETATM   28  C5  UNL     1      15.634   2.645  22.248  1.00  0.00     0.027 C 
ENDBRANCH  23  27
ENDBRANCH   1  23
BRANCH  13  29
HETATM   29  O6  UNL     1      21.008   7.912  19.547  1.00  0.00    -0.364 OA
ATOM     30  H6  UNL     1      20.936   8.588  18.884  1.00  0.00     0.217 HD
ENDBRANCH  13  29
BRANCH  17  31
HETATM   31  C26 UNL     1      18.453   6.746  24.921  1.00  0.00     0.006 C 
HETATM   32  C27 UNL     1      17.700   5.796  25.848  1.00  0.00     0.014 C 
HETATM   33  C28 UNL     1      18.450   8.119  25.580  1.00  0.00     0.014 C 
ENDBRANCH  17  31
BRANCH   5  34
HETATM   34  C10 UNL     1      22.592   3.781  19.748  1.00  0.00     0.081 C 
HETATM   35  C11 UNL     1      23.090   5.168  20.179  1.00  0.00     0.020 C 
BRANCH  34  36
HETATM   36  C12 UNL     1      23.814   3.007  19.426  1.00  0.00     0.129 C 
HETATM   37  C13 UNL     1      23.913   2.206  18.155  1.00  0.00     0.091 C 
HETATM   38  O2  UNL     1      24.806   2.967  20.157  1.00  0.00    -0.298 OA
ENDBRANCH  34  36
ENDBRANCH   5  34
BRANCH   9  39
HETATM   39  O5  UNL     1      19.709   8.025  17.047  1.00  0.00    -0.392 OA
ATOM     40  H5  UNL     1      19.451   8.207  17.943  1.00  0.00     0.210 HD
ENDBRANCH   9  39
BRANCH   7  41
HETATM   41  O3  UNL     1      22.118   4.741  15.684  1.00  0.00    -0.392 OA
ATOM     42  H3  UNL     1      22.808   4.704  15.032  1.00  0.00     0.210 HD
ENDBRANCH   7  41
BRANCH   8  43
HETATM   43  O4  UNL     1      22.125   7.257  15.153  1.00  0.00    -0.390 OA
ATOM     44  H4  UNL     1      22.622   8.066  15.165  1.00  0.00     0.210 HD
ENDBRANCH   8  43
TORSDOF 10
ENDMDL
MODEL 2
REMARK VINA RESULT: -7.608029434      3.614      5.394
REMARK  10 active torsions:
REMARK  status: ('A' for Active; 'I' for Inactive)
REMARK    1  A    between atoms: C2_2  and  C3_3 
REMARK    2  A    between atoms: N1_4  and  C4_5 
REMARK    3  A    between atoms: N1_4  and  C6_7 
REMARK    4  A    between atoms: C9_11  and  C10_12 
REMARK    5  A    between atoms: C10_12  and  C12_14 
REMARK    6  A    between atoms: C15_18  and  O3_19 
REMARK    7  A    between atoms: C16_21  and  O4_22 
REMARK    8  A    between atoms: C17_24  and  O5_25 
REMARK    9  A    between atoms: C21_30  and  O6_31 
REMARK   10  A    between atoms: C25_36  and  C26_37 
ROOT
HETATM    1  C6  UNL     1      20.841   0.841  18.181  1.00  0.00     0.029 C 
HETATM    2  C7  UNL     1      21.516   2.203  18.263  1.00  0.00     0.018 C 
HETATM    3  C8  UNL     1      22.842   2.310  17.625  1.00  0.00     0.149 C 
HETATM    4  O1  UNL     1      23.240   3.386  16.940  1.00  0.00    -0.356 OA
HETATM    5  C9  UNL     1      23.335   4.606  17.446  1.00  0.00     0.146 C 
HETATM    6  C14 UNL     1      21.975   5.218  17.481  1.00  0.00     0.062 C 
HETATM    7  C15 UNL     1      21.864   6.545  16.768  1.00  0.00     0.157 C 
HETATM    8  C16 UNL     1      20.356   6.757  16.971  1.00  0.00     0.177 C 
HETATM    9  C17 UNL     1      19.805   5.387  16.720  1.00  0.00     0.162 C 
HETATM   10  C18 UNL     1      20.851   4.356  17.045  1.00  0.00     0.024 C 
HETATM   11  C19 UNL     1      21.061   3.650  15.698  1.00  0.00     0.024 C 
HETATM   12  C20 UNL     1      20.517   3.316  18.034  1.00  0.00    -0.004 C 
HETATM   13  C21 UNL     1      19.896   3.673  19.324  1.00  0.00     0.051 C 
HETATM   14  C22 UNL     1      18.653   2.904  19.634  1.00  0.00     0.071 C 
HETATM   15  C23 UNL     1      18.743   1.611  20.271  1.00  0.00     0.010 C 
HETATM   16  C24 UNL     1      20.077   1.061  20.658  1.00  0.00     0.030 C 
HETATM   17  C25 UNL     1      19.784   0.067  21.782  1.00  0.00    -0.075 C 
HETATM   18  C29 UNL     1      18.803  -0.793  21.556  1.00  0.00    -0.022 C 
HETATM   19  C30 UNL     1      18.068  -0.752  20.281  1.00  0.00     0.037 C 
HETATM   20  C31 UNL     1      18.640   0.393  19.402  1.00  0.00    -0.026 C 
HETATM   21  C32 UNL     1      17.901   0.357  18.162  1.00  0.00     0.016 C 
HETATM   22  C33 UNL     1      20.146   0.366  19.395  1.00  0.00     0.054 C 
ENDROOT
BRANCH   1  23
HETATM   23  N1  UNL     1      21.558  -0.209  17.589  1.00  0.00    -0.359 N 
HETATM   24  C3  UNL     1      21.588  -0.609  16.284  1.00  0.00     0.090 C 
BRANCH  24  25
HETATM   25  C2  UNL     1      21.035   0.210  15.206  1.00  0.00     0.007 C 
HETATM   26  C1  UNL     1      20.094  -0.300  14.421  1.00  0.00     0.012 C 
ENDBRANCH  24  25
BRANCH  23  27
HETATM   27  C4  UNL     1      22.206  -1.116  18.501  1.00  0.00     0.124 C 
HETATM   28  C5  UNL     1      21.927  -2.566  18.166  1.00  0.00     0.027 C 
ENDBRANCH  23  27
ENDBRANCH   1  23
BRANCH  13  29
HETATM   29  O6  UNL     1      19.755   5.009  19.670  1.00  0.00    -0.364 OA
ATOM     30  H6  UNL     1      18.920   5.324  19.996  1.00  0.00     0.217 HD
ENDBRANCH  13  29
BRANCH  17  31
HETATM   31  C26 UNL     1      20.519   0.039  23.058  1.00  0.00     0.006 C 
HETATM   32  C27 UNL     1      20.454  -1.368  23.643  1.00  0.00     0.014 C 
HETATM   33  C28 UNL     1      19.768   0.961  24.010  1.00  0.00     0.014 C 
ENDBRANCH  17  31
BRANCH   5  34
HETATM   34  C10 UNL     1      24.075   4.677  18.753  1.00  0.00     0.081 C 
HETATM   35  C11 UNL     1      23.115   4.987  19.909  1.00  0.00     0.020 C 
BRANCH  34  36
HETATM   36  C12 UNL     1      25.009   5.826  18.699  1.00  0.00     0.129 C 
HETATM   37  C13 UNL     1      25.421   6.551  19.953  1.00  0.00     0.091 C 
HETATM   38  O2  UNL     1      25.500   6.256  17.653  1.00  0.00    -0.298 OA
ENDBRANCH  34  36
ENDBRANCH   5  34
BRANCH   9  39
HETATM   39  O5  UNL     1      18.528   5.155  17.135  1.00  0.00    -0.392 OA
ATOM     40  H5  UNL     1      17.832   5.416  16.544  1.00  0.00     0.210 HD
ENDBRANCH   9  39
BRANCH   7  41
HETATM   41  O3  UNL     1      22.237   6.521  15.454  1.00  0.00    -0.392 OA
ATOM     42  H3  UNL     1      21.725   7.082  14.884  1.00  0.00     0.210 HD
ENDBRANCH   7  41
BRANCH   8  43
HETATM   43  O4  UNL     1      20.009   7.697  15.968  1.00  0.00    -0.390 OA
ATOM     44  H4  UNL     1      19.175   7.382  15.641  1.00  0.00     0.210 HD
ENDBRANCH   8  43
TORSDOF 10
ENDMDL
MODEL 3
REMARK VINA RESULT: -7.524760012      2.998      6.120
REMARK  10 active torsions:
REMARK  status: ('A' for Active; 'I' for Inactive)
REMARK    1  A    between atoms: C2_2  and  C3_3 
REMARK    2  A    between atoms: N1_4  and  C4_5 
REMARK    3  A    between atoms: N1_4  and  C6_7 
REMARK    4  A    between atoms: C9_11  and  C10_12 
REMARK    5  A    between atoms: C10_12  and  C12_14 
REMARK    6  A    between atoms: C15_18  and  O3_19 
REMARK    7  A    between atoms: C16_21  and  O4_22 
REMARK    8  A    between atoms: C17_24  and  O5_25 
REMARK    9  A    between atoms: C21_30  and  O6_31 
REMARK   10  A    between atoms: C25_36  and  C26_37 
ROOT
HETATM    1  C6  UNL     1      21.675   5.855  18.055  1.00  0.00     0.029 C 
HETATM    2  C7  UNL     1      21.128   4.527  18.562  1.00  0.00     0.018 C 
HETATM    3  C8  UNL     1      19.737   4.211  18.182  1.00  0.00     0.149 C 
HETATM    4  O1  UNL     1      19.333   2.984  17.841  1.00  0.00    -0.356 OA
HETATM    5  C9  UNL     1      19.407   1.923  18.630  1.00  0.00     0.146 C 
HETATM    6  C14 UNL     1      20.802   1.396  18.597  1.00  0.00     0.062 C 
HETATM    7  C15 UNL     1      20.916  -0.059  18.210  1.00  0.00     0.157 C 
HETATM    8  C16 UNL     1      22.449  -0.151  18.220  1.00  0.00     0.177 C 
HETATM    9  C17 UNL     1      22.850   1.137  17.569  1.00  0.00     0.162 C 
HETATM   10  C18 UNL     1      21.782   2.171  17.799  1.00  0.00     0.024 C 
HETATM   11  C19 UNL     1      21.329   2.515  16.373  1.00  0.00     0.024 C 
HETATM   12  C20 UNL     1      22.169   3.435  18.450  1.00  0.00    -0.004 C 
HETATM   13  C21 UNL     1      22.991   3.433  19.674  1.00  0.00     0.051 C 
HETATM   14  C22 UNL     1      24.202   4.306  19.596  1.00  0.00     0.071 C 
HETATM   15  C23 UNL     1      24.101   5.712  19.915  1.00  0.00     0.010 C 
HETATM   16  C24 UNL     1      22.795   6.283  20.363  1.00  0.00     0.030 C 
HETATM   17  C25 UNL     1      23.164   7.534  21.160  1.00  0.00    -0.075 C 
HETATM   18  C29 UNL     1      24.033   8.353  20.587  1.00  0.00    -0.022 C 
HETATM   19  C30 UNL     1      24.582   8.031  19.260  1.00  0.00     0.037 C 
HETATM   20  C31 UNL     1      23.984   6.682  18.777  1.00  0.00    -0.026 C 
HETATM   21  C32 UNL     1      24.535   6.442  17.464  1.00  0.00     0.016 C 
HETATM   22  C33 UNL     1      22.494   6.642  18.998  1.00  0.00     0.054 C 
ENDROOT
BRANCH   1  23
HETATM   23  N1  UNL     1      20.801   6.695  17.351  1.00  0.00    -0.359 N 
HETATM   24  C3  UNL     1      19.739   7.420  17.811  1.00  0.00     0.090 C 
BRANCH  24  25
HETATM   25  C2  UNL     1      19.501   7.632  19.238  1.00  0.00     0.007 C 
HETATM   26  C1  UNL     1      18.332   7.281  19.760  1.00  0.00     0.012 C 
ENDBRANCH  24  25
BRANCH  23  27
HETATM   27  C4  UNL     1      20.907   6.647  15.915  1.00  0.00     0.124 C 
HETATM   28  C5  UNL     1      21.973   5.679  15.449  1.00  0.00     0.027 C 
ENDBRANCH  23  27
ENDBRANCH   1  23
BRANCH  13  29
HETATM   29  O6  UNL     1      23.285   2.230  20.301  1.00  0.00    -0.364 OA
ATOM     30  H6  UNL     1      22.666   1.860  20.919  1.00  0.00     0.217 HD
ENDBRANCH  13  29
BRANCH  17  31
HETATM   31  C26 UNL     1      22.616   7.844  22.492  1.00  0.00     0.006 C 
HETATM   32  C27 UNL     1      21.114   7.577  22.489  1.00  0.00     0.014 C 
HETATM   33  C28 UNL     1      22.809   9.340  22.702  1.00  0.00     0.014 C 
ENDBRANCH  17  31
BRANCH   5  34
HETATM   34  C10 UNL     1      18.866   2.144  20.015  1.00  0.00     0.081 C 
HETATM   35  C11 UNL     1      19.862   1.656  21.076  1.00  0.00     0.020 C 
BRANCH  34  36
HETATM   36  C12 UNL     1      17.662   1.297  20.188  1.00  0.00     0.129 C 
HETATM   37  C13 UNL     1      17.191   0.385  19.087  1.00  0.00     0.091 C 
HETATM   38  O2  UNL     1      16.982   1.282  21.216  1.00  0.00    -0.298 OA
ENDBRANCH  34  36
ENDBRANCH   5  34
BRANCH   9  39
HETATM   39  O5  UNL     1      24.150   1.518  17.713  1.00  0.00    -0.392 OA
ATOM     40  H5  UNL     1      24.547   1.970  16.979  1.00  0.00     0.210 HD
ENDBRANCH   9  39
BRANCH   7  41
HETATM   41  O3  UNL     1      20.360  -0.375  17.003  1.00  0.00    -0.392 OA
ATOM     42  H3  UNL     1      20.952  -0.313  16.263  1.00  0.00     0.210 HD
ENDBRANCH   7  41
BRANCH   8  43
HETATM   43  O4  UNL     1      22.724  -1.293  17.427  1.00  0.00    -0.390 OA
ATOM     44  H4  UNL     1      22.932  -0.932  16.573  1.00  0.00     0.210 HD
ENDBRANCH   8  43
TORSDOF 10
ENDMDL
MODEL 4
REMARK VINA RESULT: -7.151555525      1.188      1.355
REMARK  10 active torsions:
REMARK  status: ('A' for Active; 'I' for Inactive)
REMARK    1  A    between atoms: C2_2  and  C3_3 
REMARK    2  A    between atoms: N1_4  and  C4_5 
REMARK    3  A    between atoms: N1_4  and  C6_7 
REMARK    4  A    between atoms: C9_11  and  C10_12 
REMARK    5  A    between atoms: C10_12  and  C12_14 
REMARK    6  A    between atoms: C15_18  and  O3_19 
REMARK    7  A    between atoms: C16_21  and  O4_22 
REMARK    8  A    between atoms: C17_24  and  O5_25 
REMARK    9  A    between atoms: C21_30  and  O6_31 
REMARK   10  A    between atoms: C25_36  and  C26_37 
ROOT
HETATM    1  C6  UNL     1      16.997   4.859  20.338  1.00  0.00     0.029 C 
HETATM    2  C7  UNL     1      18.424   4.517  19.929  1.00  0.00     0.018 C 
HETATM    3  C8  UNL     1      18.636   3.160  19.389  1.00  0.00     0.149 C 
HETATM    4  O1  UNL     1      19.456   2.900  18.367  1.00  0.00    -0.356 OA
HETATM    5  C9  UNL     1      20.756   3.153  18.364  1.00  0.00     0.146 C 
HETATM    6  C14 UNL     1      20.961   4.601  18.067  1.00  0.00     0.062 C 
HETATM    7  C15 UNL     1      21.863   4.879  16.888  1.00  0.00     0.157 C 
HETATM    8  C16 UNL     1      21.732   6.410  16.892  1.00  0.00     0.177 C 
HETATM    9  C17 UNL     1      20.270   6.604  17.158  1.00  0.00     0.162 C 
HETATM   10  C18 UNL     1      19.738   5.426  17.927  1.00  0.00     0.024 C 
HETATM   11  C19 UNL     1      18.675   4.854  16.978  1.00  0.00     0.024 C 
HETATM   12  C20 UNL     1      19.076   5.683  19.219  1.00  0.00    -0.004 C 
HETATM   13  C21 UNL     1      19.698   6.565  20.223  1.00  0.00     0.051 C 
HETATM   14  C22 UNL     1      18.796   7.646  20.725  1.00  0.00     0.071 C 
HETATM   15  C23 UNL     1      17.891   7.383  21.820  1.00  0.00     0.010 C 
HETATM   16  C24 UNL     1      17.887   6.042  22.478  1.00  0.00     0.030 C 
HETATM   17  C25 UNL     1      17.326   6.290  23.878  1.00  0.00    -0.075 C 
HETATM   18  C29 UNL     1      16.218   7.012  23.940  1.00  0.00    -0.022 C 
HETATM   19  C30 UNL     1      15.603   7.523  22.704  1.00  0.00     0.037 C 
HETATM   20  C31 UNL     1      16.461   7.078  21.489  1.00  0.00    -0.026 C 
HETATM   21  C32 UNL     1      15.789   7.582  20.314  1.00  0.00     0.016 C 
HETATM   22  C33 UNL     1      16.828   5.621  21.592  1.00  0.00     0.054 C 
ENDROOT
BRANCH   1  23
HETATM   23  N1  UNL     1      16.032   3.846  20.251  1.00  0.00    -0.359 N 
HETATM   24  C3  UNL     1      15.111   3.610  19.271  1.00  0.00     0.090 C 
BRANCH  24  25
HETATM   25  C2  UNL     1      15.172   4.275  17.969  1.00  0.00     0.007 C 
HETATM   26  C1  UNL     1      14.107   4.932  17.526  1.00  0.00     0.012 C 
ENDBRANCH  24  25
BRANCH  23  27
HETATM   27  C4  UNL     1      15.847   3.054  21.439  1.00  0.00     0.124 C 
HETATM   28  C5  UNL     1      14.392   2.962  21.849  1.00  0.00     0.027 C 
ENDBRANCH  23  27
ENDBRANCH   1  23
BRANCH  13  29
HETATM   29  O6  UNL     1      20.982   7.046  20.012  1.00  0.00    -0.364 OA
ATOM     30  H6  UNL     1      21.642   6.935  20.686  1.00  0.00     0.217 HD
ENDBRANCH  13  29
BRANCH  17  31
HETATM   31  C26 UNL     1      17.953   5.781  25.110  1.00  0.00     0.006 C 
HETATM   32  C27 UNL     1      17.318   4.445  25.480  1.00  0.00     0.014 C 
HETATM   33  C28 UNL     1      17.602   6.770  26.213  1.00  0.00     0.014 C 
ENDBRANCH  17  31
BRANCH   5  34
HETATM   34  C10 UNL     1      21.484   2.666  19.586  1.00  0.00     0.081 C 
HETATM   35  C11 UNL     1      22.964   3.069  19.536  1.00  0.00     0.020 C 
BRANCH  34  36
HETATM   36  C12 UNL     1      21.479   1.185  19.574  1.00  0.00     0.129 C 
HETATM   37  C13 UNL     1      22.131   0.415  18.456  1.00  0.00     0.091 C 
HETATM   38  O2  UNL     1      20.954   0.498  20.453  1.00  0.00    -0.298 OA
ENDBRANCH  34  36
ENDBRANCH   5  34
BRANCH   9  39
HETATM   39  O5  UNL     1      19.878   7.850  17.545  1.00  0.00    -0.392 OA
ATOM     40  H5  UNL     1      20.386   8.263  18.234  1.00  0.00     0.210 HD
ENDBRANCH   9  39
BRANCH   7  41
HETATM   41  O3  UNL     1      21.466   4.303  15.716  1.00  0.00    -0.392 OA
ATOM     42  H3  UNL     1      22.168   3.921  15.202  1.00  0.00     0.210 HD
ENDBRANCH   7  41
BRANCH   8  43
HETATM   43  O4  UNL     1      22.121   6.785  15.582  1.00  0.00    -0.390 OA
ATOM     44  H4  UNL     1      21.647   7.594  15.427  1.00  0.00     0.210 HD
ENDBRANCH   8  43
TORSDOF 10
ENDMDL
MODEL 5
REMARK VINA RESULT: -7.057104488      1.887      2.488
REMARK  10 active torsions:
REMARK  status: ('A' for Active; 'I' for Inactive)
REMARK    1  A    between atoms: C2_2  and  C3_3 
REMARK    2  A    between atoms: N1_4  and  C4_5 
REMARK    3  A    between atoms: N1_4  and  C6_7 
REMARK    4  A    between atoms: C9_11  and  C10_12 
REMARK    5  A    between atoms: C10_12  and  C12_14 
REMARK    6  A    between atoms: C15_18  and  O3_19 
REMARK    7  A    between atoms: C16_21  and  O4_22 
REMARK    8  A    between atoms: C17_24  and  O5_25 
REMARK    9  A    between atoms: C21_30  and  O6_31 
REMARK   10  A    between atoms: C25_36  and  C26_37 
ROOT
HETATM    1  C6  UNL     1      17.484   3.478  19.594  1.00  0.00     0.029 C 
HETATM    2  C7  UNL     1      18.977   3.466  19.291  1.00  0.00     0.018 C 
HETATM    3  C8  UNL     1      19.418   2.528  18.240  1.00  0.00     0.149 C 
HETATM    4  O1  UNL     1      20.361   2.826  17.343  1.00  0.00    -0.356 OA
HETATM    5  C9  UNL     1      21.610   3.146  17.645  1.00  0.00     0.146 C 
HETATM    6  C14 UNL     1      21.652   4.578  18.059  1.00  0.00     0.062 C 
HETATM    7  C15 UNL     1      22.621   5.431  17.275  1.00  0.00     0.157 C 
HETATM    8  C16 UNL     1      22.290   6.775  17.942  1.00  0.00     0.177 C 
HETATM    9  C17 UNL     1      20.797   6.720  18.048  1.00  0.00     0.162 C 
HETATM   10  C18 UNL     1      20.351   5.285  18.123  1.00  0.00     0.024 C 
HETATM   11  C19 UNL     1      19.471   5.138  16.873  1.00  0.00     0.024 C 
HETATM   12  C20 UNL     1      19.537   4.871  19.280  1.00  0.00    -0.004 C 
HETATM   13  C21 UNL     1      19.936   5.236  20.652  1.00  0.00     0.051 C 
HETATM   14  C22 UNL     1      18.855   5.898  21.444  1.00  0.00     0.071 C 
HETATM   15  C23 UNL     1      17.889   5.097  22.159  1.00  0.00     0.010 C 
HETATM   16  C24 UNL     1      17.996   3.607  22.142  1.00  0.00     0.030 C 
HETATM   17  C25 UNL     1      17.272   3.143  23.406  1.00  0.00    -0.075 C 
HETATM   18  C29 UNL     1      16.078   3.674  23.619  1.00  0.00    -0.022 C 
HETATM   19  C30 UNL     1      15.526   4.650  22.665  1.00  0.00     0.037 C 
HETATM   20  C31 UNL     1      16.550   4.876  21.521  1.00  0.00    -0.026 C 
HETATM   21  C32 UNL     1      15.937   5.813  20.609  1.00  0.00     0.016 C 
HETATM   22  C33 UNL     1      17.094   3.564  21.016  1.00  0.00     0.054 C 
ENDROOT
BRANCH   1  23
HETATM   23  N1  UNL     1      16.674   2.552  18.923  1.00  0.00    -0.359 N 
HETATM   24  C3  UNL     1      15.702   2.769  17.988  1.00  0.00     0.090 C 
BRANCH  24  25
HETATM   25  C2  UNL     1      15.533   4.063  17.328  1.00  0.00     0.007 C 
HETATM   26  C1  UNL     1      14.348   4.660  17.366  1.00  0.00     0.012 C 
ENDBRANCH  24  25
BRANCH  23  27
HETATM   27  C4  UNL     1      16.728   1.200  19.416  1.00  0.00     0.124 C 
HETATM   28  C5  UNL     1      15.351   0.611  19.634  1.00  0.00     0.027 C 
ENDBRANCH  23  27
ENDBRANCH   1  23
BRANCH  13  29
HETATM   29  O6  UNL     1      21.160   5.852  20.869  1.00  0.00    -0.364 OA
ATOM     30  H6  UNL     1      21.277   6.408  21.630  1.00  0.00     0.217 HD
ENDBRANCH  13  29
BRANCH  17  31
HETATM   31  C26 UNL     1      17.837   2.172  24.359  1.00  0.00     0.006 C 
HETATM   32  C27 UNL     1      18.258   2.905  25.629  1.00  0.00     0.014 C 
HETATM   33  C28 UNL     1      19.101   1.619  23.715  1.00  0.00     0.014 C 
ENDBRANCH  17  31
BRANCH   5  34
HETATM   34  C10 UNL     1      22.272   2.206  18.614  1.00  0.00     0.081 C 
HETATM   35  C11 UNL     1      23.170   2.974  19.594  1.00  0.00     0.020 C 
BRANCH  34  36
HETATM   36  C12 UNL     1      23.187   1.320  17.855  1.00  0.00     0.129 C 
HETATM   37  C13 UNL     1      24.569   1.777  17.473  1.00  0.00     0.091 C 
HETATM   38  O2  UNL     1      22.888   0.180  17.495  1.00  0.00    -0.298 OA
ENDBRANCH  34  36
ENDBRANCH   5  34
BRANCH   9  39
HETATM   39  O5  UNL     1      20.208   7.617  18.887  1.00  0.00    -0.392 OA
ATOM     40  H5  UNL     1      20.785   8.102  19.466  1.00  0.00     0.210 HD
ENDBRANCH   9  39
BRANCH   7  41
HETATM   41  O3  UNL     1      22.421   5.431  15.924  1.00  0.00    -0.392 OA
ATOM     42  H3  UNL     1      22.814   6.162  15.463  1.00  0.00     0.210 HD
ENDBRANCH   7  41
BRANCH   8  43
HETATM   43  O4  UNL     1      22.754   7.737  17.010  1.00  0.00    -0.390 OA
ATOM     44  H4  UNL     1      22.631   8.566  17.459  1.00  0.00     0.210 HD
ENDBRANCH   8  43
TORSDOF 10
ENDMDL
