MODEL 1
REMARK VINA RESULT: -5.413697069      0.000      0.000
REMARK  1 active torsions:
REMARK  status: ('A' for Active; 'I' for Inactive)
REMARK    1  A    between atoms: C8_11  and  C9_12 
ROOT
HETATM    1  C1  UNL     1      18.885   7.019  13.621  1.00  0.00     0.012 C 
HETATM    2  C2  UNL     1      17.736   6.271  14.270  1.00  0.00     0.006 C 
HETATM    3  C3  UNL     1      16.884   7.252  15.018  1.00  0.00     0.008 C 
HETATM    4  C4  UNL     1      15.594   6.714  15.509  1.00  0.00     0.020 C 
HETATM    5  C5  UNL     1      14.985   5.626  14.720  1.00  0.00     0.117 C 
HETATM    6  N1  UNL     1      15.854   4.854  13.917  1.00  0.00    -0.404 N 
HETATM    7  C6  UNL     1      16.344   3.650  14.489  1.00  0.00     0.136 C 
HETATM    8  C7  UNL     1      16.851   2.773  13.337  1.00  0.00     0.133 C 
HETATM    9  N2  UNL     1      17.902   3.449  12.650  1.00  0.00    -0.411 N 
ATOM     10  H2  UNL     1      18.802   3.008  12.460  1.00  0.00     0.153 HD
HETATM   11  C8  UNL     1      17.609   4.781  12.249  1.00  0.00     0.128 C 
HETATM   12  C10 UNL     1      16.866   5.606  13.231  1.00  0.00     0.107 C 
ENDROOT
BRANCH  11  13
HETATM   13  C9  UNL     1      16.893   4.733  10.910  1.00  0.00     0.248 C 
HETATM   14  F1  UNL     1      16.470   6.041  10.648  1.00  0.00    -0.253 F 
ENDBRANCH  11  13
TORSDOF 1
ENDMDL
MODEL 2
REMARK VINA RESULT: -5.387860004      1.199      1.199
REMARK  1 active torsions:
REMARK  status: ('A' for Active; 'I' for Inactive)
REMARK    1  A    between atoms: C8_11  and  C9_12 
ROOT
HETATM    1  C1  UNL     1      18.291   6.729  13.165  1.00  0.00     0.012 C 
HETATM    2  C2  UNL     1      17.381   6.061  14.179  1.00  0.00     0.006 C 
HETATM    3  C3  UNL     1      16.606   7.121  14.903  1.00  0.00     0.008 C 
HETATM    4  C4  UNL     1      15.506   6.618  15.757  1.00  0.00     0.020 C 
HETATM    5  C5  UNL     1      14.861   5.359  15.337  1.00  0.00     0.117 C 
HETATM    6  N1  UNL     1      15.621   4.494  14.518  1.00  0.00    -0.404 N 
HETATM    7  C6  UNL     1      16.338   3.461  15.180  1.00  0.00     0.136 C 
HETATM    8  C7  UNL     1      16.683   2.401  14.126  1.00  0.00     0.133 C 
HETATM    9  N2  UNL     1      17.497   2.985  13.111  1.00  0.00    -0.411 N 
ATOM     10  H2  UNL     1      18.378   2.569  12.811  1.00  0.00     0.153 HD
HETATM   11  C8  UNL     1      16.994   4.190  12.547  1.00  0.00     0.128 C 
HETATM   12  C10 UNL     1      16.389   5.150  13.499  1.00  0.00     0.107 C 
ENDROOT
BRANCH  11  13
HETATM   13  C9  UNL     1      16.026   3.829  11.431  1.00  0.00     0.248 C 
HETATM   14  F1  UNL     1      16.508   2.643  10.867  1.00  0.00    -0.253 F 
ENDBRANCH  11  13
TORSDOF 1
ENDMDL
MODEL 3
REMARK VINA RESULT: -4.943939362      1.945      3.132
REMARK  1 active torsions:
REMARK  status: ('A' for Active; 'I' for Inactive)
REMARK    1  A    between atoms: C8_11  and  C9_12 
ROOT
HETATM    1  C1  UNL     1      14.821   5.587  14.800  1.00  0.00     0.012 C 
HETATM    2  C2  UNL     1      15.987   6.155  14.012  1.00  0.00     0.006 C 
HETATM    3  C3  UNL     1      16.767   7.076  14.902  1.00  0.00     0.008 C 
HETATM    4  C4  UNL     1      18.066   7.525  14.353  1.00  0.00     0.020 C 
HETATM    5  C5  UNL     1      18.752   6.600  13.429  1.00  0.00     0.117 C 
HETATM    6  N1  UNL     1      17.946   5.656  12.754  1.00  0.00    -0.404 N 
HETATM    7  C6  UNL     1      17.500   6.018  11.454  1.00  0.00     0.136 C 
HETATM    8  C7  UNL     1      17.071   4.726  10.745  1.00  0.00     0.133 C 
HETATM    9  N2  UNL     1      16.008   4.114  11.473  1.00  0.00    -0.411 N 
ATOM     10  H2  UNL     1      15.137   3.825  11.027  1.00  0.00     0.153 HD
HETATM   11  C8  UNL     1      16.246   3.935  12.863  1.00  0.00     0.128 C 
HETATM   12  C10 UNL     1      16.918   5.059  13.557  1.00  0.00     0.107 C 
ENDROOT
BRANCH  11  13
HETATM   13  C9  UNL     1      17.002   2.631  13.056  1.00  0.00     0.248 C 
HETATM   14  F1  UNL     1      16.711   2.201  14.355  1.00  0.00    -0.253 F 
ENDBRANCH  11  13
TORSDOF 1
ENDMDL
MODEL 4
REMARK VINA RESULT: -4.931192551      2.252      3.825
REMARK  1 active torsions:
REMARK  status: ('A' for Active; 'I' for Inactive)
REMARK    1  A    between atoms: C8_11  and  C9_12 
ROOT
HETATM    1  C1  UNL     1      16.682   2.026  15.332  1.00  0.00     0.012 C 
HETATM    2  C2  UNL     1      15.755   3.047  15.965  1.00  0.00     0.006 C 
HETATM    3  C3  UNL     1      15.553   2.687  17.407  1.00  0.00     0.008 C 
HETATM    4  C4  UNL     1      14.865   3.716  18.219  1.00  0.00     0.020 C 
HETATM    5  C5  UNL     1      15.051   5.121  17.806  1.00  0.00     0.117 C 
HETATM    6  N1  UNL     1      15.400   5.350  16.456  1.00  0.00    -0.404 N 
HETATM    7  C6  UNL     1      14.330   5.628  15.563  1.00  0.00     0.136 C 
HETATM    8  C7  UNL     1      14.937   6.289  14.319  1.00  0.00     0.133 C 
HETATM    9  N2  UNL     1      15.863   5.393  13.707  1.00  0.00    -0.411 N 
ATOM     10  H2  UNL     1      15.825   5.165  12.713  1.00  0.00     0.153 HD
HETATM   11  C8  UNL     1      16.841   4.840  14.578  1.00  0.00     0.128 C 
HETATM   12  C10 UNL     1      16.359   4.430  15.918  1.00  0.00     0.107 C 
ENDROOT
BRANCH  11  13
HETATM   13  C9  UNL     1      18.000   5.818  14.680  1.00  0.00     0.248 C 
HETATM   14  F1  UNL     1      18.527   5.932  13.389  1.00  0.00    -0.253 F 
ENDBRANCH  11  13
TORSDOF 1
ENDMDL
MODEL 5
REMARK VINA RESULT: -4.887997533      2.271      4.036
REMARK  1 active torsions:
REMARK  status: ('A' for Active; 'I' for Inactive)
REMARK    1  A    between atoms: C8_11  and  C9_12 
ROOT
HETATM    1  C1  UNL     1      14.261   5.631  17.790  1.00  0.00     0.012 C 
HETATM    2  C2  UNL     1      15.348   4.799  17.136  1.00  0.00     0.006 C 
HETATM    3  C3  UNL     1      15.110   3.354  17.458  1.00  0.00     0.008 C 
HETATM    4  C4  UNL     1      15.947   2.397  16.699  1.00  0.00     0.020 C 
HETATM    5  C5  UNL     1      16.375   2.814  15.349  1.00  0.00     0.117 C 
HETATM    6  N1  UNL     1      16.413   4.202  15.091  1.00  0.00    -0.404 N 
HETATM    7  C6  UNL     1      17.667   4.846  15.272  1.00  0.00     0.136 C 
HETATM    8  C7  UNL     1      17.607   6.178  14.511  1.00  0.00     0.133 C 
HETATM    9  N2  UNL     1      16.562   6.986  15.048  1.00  0.00    -0.411 N 
ATOM     10  H2  UNL     1      16.713   7.954  15.334  1.00  0.00     0.153 HD
HETATM   11  C8  UNL     1      15.295   6.350  15.158  1.00  0.00     0.128 C 
HETATM   12  C10 UNL     1      15.314   4.946  15.634  1.00  0.00     0.107 C 
ENDROOT
BRANCH  11  13
HETATM   13  C9  UNL     1      14.578   6.474  13.824  1.00  0.00     0.248 C 
HETATM   14  F1  UNL     1      14.007   7.752  13.807  1.00  0.00    -0.253 F 
ENDBRANCH  11  13
TORSDOF 1
ENDMDL
