MODEL 1
REMARK VINA RESULT: -7.607600164      0.000      0.000
REMARK  1 active torsions:
REMARK  status: ('A' for Active; 'I' for Inactive)
REMARK    1  A    between atoms: N1_2  and  C2_4 
ROOT
HETATM    1  C2  UNL     1       4.604  56.630  -3.806  1.00  0.00     0.163 A 
HETATM    2  N2  UNL     1       4.371  55.384  -3.472  1.00  0.00    -0.320 N 
ATOM      3  H2  UNL     1       4.845  54.980  -2.664  1.00  0.00     0.169 HD
HETATM    4  C3  UNL     1       3.535  54.656  -4.168  1.00  0.00     0.146 A 
HETATM    5  C4  UNL     1       3.160  53.307  -3.959  1.00  0.00     0.015 A 
HETATM    6  C5  UNL     1       2.257  52.690  -4.792  1.00  0.00     0.055 A 
HETATM    7  N3  UNL     1       1.704  53.338  -5.826  1.00  0.00    -0.193 N 
ATOM      8  H3  UNL     1       1.036  52.871  -6.439  1.00  0.00     0.184 HD
HETATM    9  C6  UNL     1       2.052  54.619  -6.034  1.00  0.00     0.690 A 
HETATM   10  N4  UNL     1       1.568  55.298  -6.996  1.00  0.00    -0.233 N 
ATOM     11  H41 UNL     1       1.832  56.271  -7.155  1.00  0.00     0.174 HD
ATOM     12  H42 UNL     1       0.899  54.828  -7.607  1.00  0.00     0.174 HD
HETATM   13  N5  UNL     1       2.949  55.251  -5.216  1.00  0.00    -0.097 N 
HETATM   14  S1  UNL     1       3.600  56.809  -5.175  1.00  0.00     0.048 SA
HETATM   15  C7  UNL     1       1.946  51.277  -4.462  1.00  0.00     0.055 C 
HETATM   16  C8  UNL     1       0.846  50.671  -5.193  1.00  0.00     0.036 C 
HETATM   17  C9  UNL     1       1.222  49.683  -6.214  1.00  0.00    -0.037 C 
HETATM   18  C10 UNL     1       0.474  49.984  -7.529  1.00  0.00     0.015 C 
HETATM   19  C11 UNL     1       0.749  48.256  -5.878  1.00  0.00     0.015 C 
HETATM   20  C12 UNL     1       2.667  49.709  -6.559  1.00  0.00     0.083 C 
HETATM   21  S2  UNL     1       3.417  50.331  -5.030  1.00  0.00    -0.152 SA
HETATM   22  C13 UNL     1       1.760  51.158  -2.988  1.00  0.00     0.070 C 
HETATM   23  C14 UNL     1       2.941  51.579  -2.171  1.00  0.00     0.105 C 
HETATM   24  C15 UNL     1       3.753  50.355  -1.769  1.00  0.00     0.052 C 
HETATM   25  F1  UNL     1       2.447  52.099  -0.986  1.00  0.00    -0.243 F 
HETATM   26  C16 UNL     1       3.797  52.610  -2.808  1.00  0.00     0.087 C 
ENDROOT
BRANCH   1  27
HETATM   27  N1  UNL     1       5.403  57.500  -3.232  1.00  0.00    -0.374 N 
HETATM   28  C1  UNL     1       6.612  56.951  -2.654  1.00  0.00     0.148 C 
ATOM     29  H1  UNL     1       5.187  58.497  -3.197  1.00  0.00     0.161 HD
ENDBRANCH   1  27
TORSDOF 1
ENDMDL
MODEL 2
REMARK VINA RESULT: -7.341081798      1.765      2.295
REMARK  1 active torsions:
REMARK  status: ('A' for Active; 'I' for Inactive)
REMARK    1  A    between atoms: N1_2  and  C2_4 
ROOT
HETATM    1  C2  UNL     1       4.793  55.908  -3.245  1.00  0.00     0.163 A 
HETATM    2  N2  UNL     1       4.383  54.721  -3.619  1.00  0.00    -0.320 N 
ATOM      3  H2  UNL     1       4.742  53.890  -3.149  1.00  0.00     0.169 HD
HETATM    4  C3  UNL     1       3.514  54.595  -4.591  1.00  0.00     0.146 A 
HETATM    5  C4  UNL     1       2.960  53.407  -5.125  1.00  0.00     0.015 A 
HETATM    6  C5  UNL     1       2.050  53.457  -6.155  1.00  0.00     0.055 A 
HETATM    7  N3  UNL     1       1.658  54.622  -6.686  1.00  0.00    -0.193 N 
ATOM      8  H3  UNL     1       0.983  54.648  -7.450  1.00  0.00     0.184 HD
HETATM    9  C6  UNL     1       2.178  55.756  -6.187  1.00  0.00     0.690 A 
HETATM   10  N4  UNL     1       1.853  56.900  -6.642  1.00  0.00    -0.233 N 
ATOM     11  H41 UNL     1       2.247  57.762  -6.263  1.00  0.00     0.174 HD
ATOM     12  H42 UNL     1       1.177  56.922  -7.405  1.00  0.00     0.174 HD
HETATM   13  N5  UNL     1       3.085  55.728  -5.162  1.00  0.00    -0.097 N 
HETATM   14  S1  UNL     1       3.920  56.920  -4.306  1.00  0.00     0.048 SA
HETATM   15  C7  UNL     1       1.542  52.143  -6.621  1.00  0.00     0.055 C 
HETATM   16  C8  UNL     1       0.431  52.175  -7.556  1.00  0.00     0.036 C 
HETATM   17  C9  UNL     1       0.753  51.826  -8.947  1.00  0.00    -0.037 C 
HETATM   18  C10 UNL     1       0.146  52.876  -9.900  1.00  0.00     0.015 C 
HETATM   19  C11 UNL     1       0.083  50.521  -9.415  1.00  0.00     0.015 C 
HETATM   20  C12 UNL     1       2.212  51.821  -9.233  1.00  0.00     0.083 C 
HETATM   21  S2  UNL     1       2.920  51.434  -7.610  1.00  0.00    -0.152 SA
HETATM   22  C13 UNL     1       1.237  51.297  -5.432  1.00  0.00     0.070 C 
HETATM   23  C14 UNL     1       2.399  51.051  -4.521  1.00  0.00     0.105 C 
HETATM   24  C15 UNL     1       3.020  49.696  -4.832  1.00  0.00     0.052 C 
HETATM   25  F1  UNL     1       1.889  50.939  -3.238  1.00  0.00    -0.243 F 
HETATM   26  C16 UNL     1       3.420  52.127  -4.520  1.00  0.00     0.087 C 
ENDROOT
BRANCH   1  27
HETATM   27  N1  UNL     1       5.651  56.223  -2.300  1.00  0.00    -0.374 N 
HETATM   28  C1  UNL     1       6.665  57.186  -2.674  1.00  0.00     0.148 C 
ATOM     29  H1  UNL     1       5.605  55.816  -1.366  1.00  0.00     0.161 HD
ENDBRANCH   1  27
TORSDOF 1
ENDMDL
MODEL 3
REMARK VINA RESULT: -7.087383049      2.749      3.354
REMARK  1 active torsions:
REMARK  status: ('A' for Active; 'I' for Inactive)
REMARK    1  A    between atoms: N1_2  and  C2_4 
ROOT
HETATM    1  C2  UNL     1       3.422  54.962  -2.765  1.00  0.00     0.163 A 
HETATM    2  N2  UNL     1       3.192  53.696  -2.516  1.00  0.00    -0.320 N 
ATOM      3  H2  UNL     1       2.749  53.425  -1.638  1.00  0.00     0.169 HD
HETATM    4  C3  UNL     1       3.528  52.777  -3.386  1.00  0.00     0.146 A 
HETATM    5  C4  UNL     1       3.360  51.374  -3.293  1.00  0.00     0.015 A 
HETATM    6  C5  UNL     1       3.772  50.547  -4.310  1.00  0.00     0.055 A 
HETATM    7  N3  UNL     1       4.344  51.034  -5.419  1.00  0.00    -0.193 N 
ATOM      8  H3  UNL     1       4.647  50.411  -6.168  1.00  0.00     0.184 HD
HETATM    9  C6  UNL     1       4.509  52.364  -5.519  1.00  0.00     0.690 A 
HETATM   10  N4  UNL     1       5.046  52.898  -6.543  1.00  0.00    -0.233 N 
ATOM     11  H41 UNL     1       5.172  53.907  -6.619  1.00  0.00     0.174 HD
ATOM     12  H42 UNL     1       5.347  52.272  -7.290  1.00  0.00     0.174 HD
HETATM   13  N5  UNL     1       4.106  53.204  -4.517  1.00  0.00    -0.097 N 
HETATM   14  S1  UNL     1       4.150  54.879  -4.307  1.00  0.00     0.048 SA
HETATM   15  C7  UNL     1       3.534  49.099  -4.091  1.00  0.00     0.055 C 
HETATM   16  C8  UNL     1       3.764  48.227  -5.230  1.00  0.00     0.036 C 
HETATM   17  C9  UNL     1       4.969  47.388  -5.162  1.00  0.00    -0.037 C 
HETATM   18  C10 UNL     1       5.750  47.492  -6.488  1.00  0.00     0.015 C 
HETATM   19  C11 UNL     1       4.656  45.883  -5.073  1.00  0.00     0.015 C 
HETATM   20  C12 UNL     1       5.923  47.807  -4.101  1.00  0.00     0.083 C 
HETATM   21  S2  UNL     1       4.828  48.591  -2.887  1.00  0.00    -0.152 SA
HETATM   22  C13 UNL     1       2.167  48.917  -3.525  1.00  0.00     0.070 C 
HETATM   23  C14 UNL     1       1.922  49.631  -2.234  1.00  0.00     0.105 C 
HETATM   24  C15 UNL     1       2.101  48.667  -1.069  1.00  0.00     0.052 C 
HETATM   25  F1  UNL     1       0.583  49.985  -2.216  1.00  0.00    -0.243 F 
HETATM   26  C16 UNL     1       2.728  50.862  -2.046  1.00  0.00     0.087 C 
ENDROOT
BRANCH   1  27
HETATM   27  N1  UNL     1       3.157  56.009  -2.017  1.00  0.00    -0.374 N 
HETATM   28  C1  UNL     1       2.306  55.759  -0.872  1.00  0.00     0.148 C 
ATOM     29  H1  UNL     1       3.526  56.936  -2.229  1.00  0.00     0.161 HD
ENDBRANCH   1  27
TORSDOF 1
ENDMDL
MODEL 4
REMARK VINA RESULT: -7.019455593      2.696      5.879
REMARK  1 active torsions:
REMARK  status: ('A' for Active; 'I' for Inactive)
REMARK    1  A    between atoms: N1_2  and  C2_4 
ROOT
HETATM    1  C2  UNL     1      -0.635  52.143  -8.659  1.00  0.00     0.163 A 
HETATM    2  N2  UNL     1       0.071  51.785  -7.615  1.00  0.00    -0.320 N 
ATOM      3  H2  UNL     1       0.058  50.813  -7.304  1.00  0.00     0.169 HD
HETATM    4  C3  UNL     1       0.791  52.666  -6.967  1.00  0.00     0.146 A 
HETATM    5  C4  UNL     1       1.610  52.466  -5.829  1.00  0.00     0.015 A 
HETATM    6  C5  UNL     1       2.306  53.512  -5.271  1.00  0.00     0.055 A 
HETATM    7  N3  UNL     1       2.236  54.749  -5.780  1.00  0.00    -0.193 N 
ATOM      8  H3  UNL     1       2.756  55.518  -5.358  1.00  0.00     0.184 HD
HETATM    9  C6  UNL     1       1.462  54.951  -6.860  1.00  0.00     0.690 A 
HETATM   10  N4  UNL     1       1.346  56.100  -7.397  1.00  0.00    -0.233 N 
ATOM     11  H41 UNL     1       0.758  56.253  -8.217  1.00  0.00     0.174 HD
ATOM     12  H42 UNL     1       1.868  56.866  -6.973  1.00  0.00     0.174 HD
HETATM   13  N5  UNL     1       0.761  53.923  -7.429  1.00  0.00    -0.097 N 
HETATM   14  S1  UNL     1      -0.279  53.810  -8.755  1.00  0.00     0.048 SA
HETATM   15  C7  UNL     1       3.130  53.169  -4.086  1.00  0.00     0.055 C 
HETATM   16  C8  UNL     1       4.034  54.201  -3.608  1.00  0.00     0.036 C 
HETATM   17  C9  UNL     1       3.648  54.862  -2.353  1.00  0.00    -0.037 C 
HETATM   18  C10 UNL     1       3.757  56.392  -2.516  1.00  0.00     0.015 C 
HETATM   19  C11 UNL     1       4.621  54.577  -1.194  1.00  0.00     0.015 C 
HETATM   20  C12 UNL     1       2.239  54.601  -1.957  1.00  0.00     0.083 C 
HETATM   21  S2  UNL     1       1.920  52.985  -2.714  1.00  0.00    -0.152 SA
HETATM   22  C13 UNL     1       3.847  51.890  -4.353  1.00  0.00     0.070 C 
HETATM   23  C14 UNL     1       2.958  50.724  -4.656  1.00  0.00     0.105 C 
HETATM   24  C15 UNL     1       2.756  49.889  -3.399  1.00  0.00     0.052 C 
HETATM   25  F1  UNL     1       3.650  49.907  -5.534  1.00  0.00    -0.243 F 
HETATM   26  C16 UNL     1       1.662  51.083  -5.282  1.00  0.00     0.087 C 
ENDROOT
BRANCH   1  27
HETATM   27  N1  UNL     1      -1.408  51.405  -9.423  1.00  0.00    -0.374 N 
HETATM   28  C1  UNL     1      -2.594  50.874  -8.783  1.00  0.00     0.148 C 
ATOM     29  H1  UNL     1      -1.188  51.218 -10.401  1.00  0.00     0.161 HD
ENDBRANCH   1  27
TORSDOF 1
ENDMDL
MODEL 5
REMARK VINA RESULT: -7.008931647      1.647      1.946
REMARK  1 active torsions:
REMARK  status: ('A' for Active; 'I' for Inactive)
REMARK    1  A    between atoms: N1_2  and  C2_4 
ROOT
HETATM    1  C2  UNL     1       5.679  56.289  -2.537  1.00  0.00     0.163 A 
HETATM    2  N2  UNL     1       5.067  55.147  -2.736  1.00  0.00    -0.320 N 
ATOM      3  H2  UNL     1       5.295  54.342  -2.153  1.00  0.00     0.169 HD
HETATM    4  C3  UNL     1       4.165  55.034  -3.678  1.00  0.00     0.146 A 
HETATM    5  C4  UNL     1       3.406  53.894  -4.037  1.00  0.00     0.015 A 
HETATM    6  C5  UNL     1       2.491  53.951  -5.061  1.00  0.00     0.055 A 
HETATM    7  N3  UNL     1       2.287  55.080  -5.753  1.00  0.00    -0.193 N 
ATOM      8  H3  UNL     1       1.606  55.111  -6.512  1.00  0.00     0.184 HD
HETATM    9  C6  UNL     1       3.001  56.169  -5.422  1.00  0.00     0.690 A 
HETATM   10  N4  UNL     1       2.860  57.275  -6.036  1.00  0.00    -0.233 N 
ATOM     11  H41 UNL     1       3.403  58.102  -5.785  1.00  0.00     0.174 HD
ATOM     12  H42 UNL     1       2.178  57.303  -6.794  1.00  0.00     0.174 HD
HETATM   13  N5  UNL     1       3.916  56.132  -4.406  1.00  0.00    -0.097 N 
HETATM   14  S1  UNL     1       4.962  57.274  -3.731  1.00  0.00     0.048 SA
HETATM   15  C7  UNL     1       1.759  52.690  -5.333  1.00  0.00     0.055 C 
HETATM   16  C8  UNL     1       0.645  52.778  -6.262  1.00  0.00     0.036 C 
HETATM   17  C9  UNL     1       0.869  52.187  -7.589  1.00  0.00    -0.037 C 
HETATM   18  C10 UNL     1       0.421  53.180  -8.682  1.00  0.00     0.015 C 
HETATM   19  C11 UNL     1      -0.022  50.961  -7.864  1.00  0.00     0.015 C 
HETATM   20  C12 UNL     1       2.298  51.895  -7.874  1.00  0.00     0.083 C 
HETATM   21  S2  UNL     1       2.974  51.626  -6.213  1.00  0.00    -0.152 SA
HETATM   22  C13 UNL     1       1.347  52.084  -4.035  1.00  0.00     0.070 C 
HETATM   23  C14 UNL     1       2.475  51.776  -3.101  1.00  0.00     0.105 C 
HETATM   24  C15 UNL     1       2.852  50.305  -3.215  1.00  0.00     0.052 C 
HETATM   25  F1  UNL     1       1.987  51.933  -1.814  1.00  0.00    -0.243 F 
HETATM   26  C16 UNL     1       3.662  52.653  -3.255  1.00  0.00     0.087 C 
ENDROOT
BRANCH   1  27
HETATM   27  N1  UNL     1       6.602  56.583  -1.648  1.00  0.00    -0.374 N 
HETATM   28  C1  UNL     1       7.372  57.779  -1.922  1.00  0.00     0.148 C 
ATOM     29  H1  UNL     1       6.764  56.009  -0.821  1.00  0.00     0.161 HD
ENDBRANCH   1  27
TORSDOF 1
ENDMDL
