MODEL 1
REMARK VINA RESULT: -7.413733195      0.000      0.000
REMARK  6 active torsions:
REMARK  status: ('A' for Active; 'I' for Inactive)
REMARK    1  A    between atoms: C2_2  and  C3_3 
REMARK    2  A    between atoms: C3_3  and  C4_4 
REMARK    3  A    between atoms: C4_4  and  C5_5 
REMARK    4  A    between atoms: C5_5  and  O1_6 
REMARK    5  A    between atoms: C5_5  and  C6_8 
REMARK    6  A    between atoms: C6_8  and  N1_9 
ROOT
HETATM    1  N1  UNL     1      33.423  21.537   8.140  1.00  0.00     0.133 N 
HETATM    2  C7  UNL     1      32.842  20.607   9.111  1.00  0.00     0.319 C 
HETATM    3  C8  UNL     1      33.367  22.844   8.810  1.00  0.00     0.325 C 
HETATM    4  C9  UNL     1      32.130  23.276   9.414  1.00  0.00     0.088 C 
HETATM    5  N2  UNL     1      30.919  22.582   9.207  1.00  0.00    -0.394 N 
HETATM    6  C10 UNL     1      29.885  22.854  10.144  1.00  0.00     0.148 C 
HETATM    7  C11 UNL     1      30.506  22.402   7.859  1.00  0.00     0.160 C 
HETATM    8  C12 UNL     1      31.668  22.655   6.967  1.00  0.00     0.369 C 
HETATM    9  N3  UNL     1      32.674  21.585   6.977  1.00  0.00     0.181 N 
HETATM   10  C13 UNL     1      33.389  21.775   5.742  1.00  0.00     0.397 C 
HETATM   11  O2  UNL     1      31.946  20.435   6.787  1.00  0.00    -0.037 OA
ENDROOT
BRANCH   1  12
HETATM   12  C6  UNL     1      34.800  21.298   7.860  1.00  0.00     0.312 C 
BRANCH  12  13
HETATM   13  C5  UNL     1      35.606  20.550   8.898  1.00  0.00     0.147 C 
BRANCH  13  14
HETATM   14  C4  UNL     1      36.265  21.594   9.818  1.00  0.00     0.033 C 
BRANCH  14  15
HETATM   15  C3  UNL     1      37.494  21.109  10.493  1.00  0.00     0.002 C 
BRANCH  15  16
HETATM   16  C2  UNL     1      37.779  22.081  11.648  1.00  0.00    -0.004 C 
HETATM   17  C1  UNL     1      39.261  22.447  11.611  1.00  0.00     0.005 C 
ENDBRANCH  15  16
ENDBRANCH  14  15
ENDBRANCH  13  14
BRANCH  13  18
HETATM   18  O1  UNL     1      36.673  19.851   8.338  1.00  0.00    -0.394 OA
ATOM     19  H1  UNL     1      37.260  19.682   9.065  1.00  0.00     0.210 HD
ENDBRANCH  13  18
ENDBRANCH  12  13
ENDBRANCH   1  12
TORSDOF 6
ENDMDL
MODEL 2
REMARK VINA RESULT: -6.511471207      6.364      7.837
REMARK  6 active torsions:
REMARK  status: ('A' for Active; 'I' for Inactive)
REMARK    1  A    between atoms: C2_2  and  C3_3 
REMARK    2  A    between atoms: C3_3  and  C4_4 
REMARK    3  A    between atoms: C4_4  and  C5_5 
REMARK    4  A    between atoms: C5_5  and  O1_6 
REMARK    5  A    between atoms: C5_5  and  C6_8 
REMARK    6  A    between atoms: C6_8  and  N1_9 
ROOT
HETATM    1  N1  UNL     1      29.079  21.080  13.744  1.00  0.00     0.133 N 
HETATM    2  C7  UNL     1      29.731  20.567  14.952  1.00  0.00     0.319 C 
HETATM    3  C8  UNL     1      27.678  21.275  14.145  1.00  0.00     0.325 C 
HETATM    4  C9  UNL     1      26.979  20.207  14.816  1.00  0.00     0.088 C 
HETATM    5  N2  UNL     1      27.526  18.911  14.921  1.00  0.00    -0.394 N 
HETATM    6  C10 UNL     1      26.951  18.078  15.919  1.00  0.00     0.148 C 
HETATM    7  C11 UNL     1      27.885  18.267  13.706  1.00  0.00     0.160 C 
HETATM    8  C12 UNL     1      27.958  19.289  12.629  1.00  0.00     0.369 C 
HETATM    9  N3  UNL     1      29.137  20.162  12.710  1.00  0.00     0.181 N 
HETATM   10  C13 UNL     1      29.270  20.683  11.376  1.00  0.00     0.397 C 
HETATM   11  O2  UNL     1      30.192  19.292  12.854  1.00  0.00    -0.037 OA
ENDROOT
BRANCH   1  12
HETATM   12  C6  UNL     1      29.551  22.358  13.329  1.00  0.00     0.312 C 
BRANCH  12  13
HETATM   13  C5  UNL     1      30.592  23.035  14.193  1.00  0.00     0.147 C 
BRANCH  13  14
HETATM   14  C4  UNL     1      29.885  24.147  14.990  1.00  0.00     0.033 C 
BRANCH  14  15
HETATM   15  C3  UNL     1      30.547  24.476  16.276  1.00  0.00     0.002 C 
BRANCH  15  16
HETATM   16  C2  UNL     1      31.260  23.199  16.747  1.00  0.00    -0.004 C 
HETATM   17  C1  UNL     1      32.413  23.603  17.663  1.00  0.00     0.005 C 
ENDBRANCH  15  16
ENDBRANCH  14  15
ENDBRANCH  13  14
BRANCH  13  18
HETATM   18  O1  UNL     1      31.555  23.700  13.438  1.00  0.00    -0.394 OA
ATOM     19  H1  UNL     1      32.126  24.107  14.079  1.00  0.00     0.210 HD
ENDBRANCH  13  18
ENDBRANCH  12  13
ENDBRANCH   1  12
TORSDOF 6
ENDMDL
MODEL 3
REMARK VINA RESULT: -6.422711861      4.850      7.235
REMARK  6 active torsions:
REMARK  status: ('A' for Active; 'I' for Inactive)
REMARK    1  A    between atoms: C2_2  and  C3_3 
REMARK    2  A    between atoms: C3_3  and  C4_4 
REMARK    3  A    between atoms: C4_4  and  C5_5 
REMARK    4  A    between atoms: C5_5  and  O1_6 
REMARK    5  A    between atoms: C5_5  and  C6_8 
REMARK    6  A    between atoms: C6_8  and  N1_9 
ROOT
HETATM    1  N1  UNL     1      29.281  20.434  12.696  1.00  0.00     0.133 N 
HETATM    2  C7  UNL     1      30.510  19.881  13.271  1.00  0.00     0.319 C 
HETATM    3  C8  UNL     1      29.201  21.793  13.249  1.00  0.00     0.325 C 
HETATM    4  C9  UNL     1      29.360  21.989  14.670  1.00  0.00     0.088 C 
HETATM    5  N2  UNL     1      29.385  20.905  15.572  1.00  0.00    -0.394 N 
HETATM    6  C10 UNL     1      29.934  21.181  16.854  1.00  0.00     0.148 C 
HETATM    7  C11 UNL     1      28.267  20.027  15.550  1.00  0.00     0.160 C 
HETATM    8  C12 UNL     1      27.511  20.251  14.290  1.00  0.00     0.369 C 
HETATM    9  N3  UNL     1      28.169  19.711  13.093  1.00  0.00     0.181 N 
HETATM   10  C13 UNL     1      27.097  19.580  12.142  1.00  0.00     0.397 C 
HETATM   11  O2  UNL     1      28.492  18.420  13.438  1.00  0.00    -0.037 OA
ENDROOT
BRANCH   1  12
HETATM   12  C6  UNL     1      29.321  20.587  11.280  1.00  0.00     0.312 C 
BRANCH  12  13
HETATM   13  C5  UNL     1      30.458  21.395  10.694  1.00  0.00     0.147 C 
BRANCH  13  14
HETATM   14  C4  UNL     1      29.880  22.251   9.551  1.00  0.00     0.033 C 
BRANCH  14  15
HETATM   15  C3  UNL     1      30.904  22.742   8.596  1.00  0.00     0.002 C 
BRANCH  15  16
HETATM   16  C2  UNL     1      30.379  22.432   7.186  1.00  0.00    -0.004 C 
HETATM   17  C1  UNL     1      31.467  21.680   6.424  1.00  0.00     0.005 C 
ENDBRANCH  15  16
ENDBRANCH  14  15
ENDBRANCH  13  14
BRANCH  13  18
HETATM   18  O1  UNL     1      31.419  20.592  10.084  1.00  0.00    -0.394 OA
ATOM     19  H1  UNL     1      31.991  21.202   9.633  1.00  0.00     0.210 HD
ENDBRANCH  13  18
ENDBRANCH  12  13
ENDBRANCH   1  12
TORSDOF 6
ENDMDL
MODEL 4
REMARK VINA RESULT: -6.338926321      5.193      7.632
REMARK  6 active torsions:
REMARK  status: ('A' for Active; 'I' for Inactive)
REMARK    1  A    between atoms: C2_2  and  C3_3 
REMARK    2  A    between atoms: C3_3  and  C4_4 
REMARK    3  A    between atoms: C4_4  and  C5_5 
REMARK    4  A    between atoms: C5_5  and  O1_6 
REMARK    5  A    between atoms: C5_5  and  C6_8 
REMARK    6  A    between atoms: C6_8  and  N1_9 
ROOT
HETATM    1  N1  UNL     1      28.869  19.875  12.868  1.00  0.00     0.133 N 
HETATM    2  C7  UNL     1      27.604  20.190  12.200  1.00  0.00     0.319 C 
HETATM    3  C8  UNL     1      28.732  18.464  13.256  1.00  0.00     0.325 C 
HETATM    4  C9  UNL     1      27.544  18.034  13.952  1.00  0.00     0.088 C 
HETATM    5  N2  UNL     1      26.601  18.956  14.453  1.00  0.00    -0.394 N 
HETATM    6  C10 UNL     1      25.316  18.424  14.751  1.00  0.00     0.148 C 
HETATM    7  C11 UNL     1      27.086  19.947  15.350  1.00  0.00     0.160 C 
HETATM    8  C12 UNL     1      28.567  20.007  15.235  1.00  0.00     0.369 C 
HETATM    9  N3  UNL     1      29.047  20.648  14.003  1.00  0.00     0.181 N 
HETATM   10  C13 UNL     1      30.392  21.045  14.323  1.00  0.00     0.397 C 
HETATM   11  O2  UNL     1      28.339  21.826  13.938  1.00  0.00    -0.037 OA
ENDROOT
BRANCH   1  12
HETATM   12  C6  UNL     1      30.007  19.940  12.014  1.00  0.00     0.312 C 
BRANCH  12  13
HETATM   13  C5  UNL     1      29.962  20.914  10.858  1.00  0.00     0.147 C 
BRANCH  13  14
HETATM   14  C4  UNL     1      31.063  20.505   9.861  1.00  0.00     0.033 C 
BRANCH  14  15
HETATM   15  C3  UNL     1      31.382  21.552   8.860  1.00  0.00     0.002 C 
BRANCH  15  16
HETATM   16  C2  UNL     1      31.827  20.823   7.583  1.00  0.00    -0.004 C 
HETATM   17  C1  UNL     1      31.449  21.686   6.381  1.00  0.00     0.005 C 
ENDBRANCH  15  16
ENDBRANCH  14  15
ENDBRANCH  13  14
BRANCH  13  18
HETATM   18  O1  UNL     1      30.298  22.209  11.244  1.00  0.00    -0.394 OA
ATOM     19  H1  UNL     1      31.221  22.292  11.033  1.00  0.00     0.210 HD
ENDBRANCH  13  18
ENDBRANCH  12  13
ENDBRANCH   1  12
TORSDOF 6
ENDMDL
MODEL 5
REMARK VINA RESULT: -6.322846087      6.749      8.524
REMARK  6 active torsions:
REMARK  status: ('A' for Active; 'I' for Inactive)
REMARK    1  A    between atoms: C2_2  and  C3_3 
REMARK    2  A    between atoms: C3_3  and  C4_4 
REMARK    3  A    between atoms: C4_4  and  C5_5 
REMARK    4  A    between atoms: C5_5  and  O1_6 
REMARK    5  A    between atoms: C5_5  and  C6_8 
REMARK    6  A    between atoms: C6_8  and  N1_9 
ROOT
HETATM    1  N1  UNL     1      28.888  20.244  13.294  1.00  0.00     0.133 N 
HETATM    2  C7  UNL     1      30.282  19.949  13.630  1.00  0.00     0.319 C 
HETATM    3  C8  UNL     1      28.973  21.345  12.324  1.00  0.00     0.325 C 
HETATM    4  C9  UNL     1      29.790  22.494  12.630  1.00  0.00     0.088 C 
HETATM    5  N2  UNL     1      30.346  22.692  13.911  1.00  0.00    -0.394 N 
HETATM    6  C10 UNL     1      31.426  23.614  13.980  1.00  0.00     0.148 C 
HETATM    7  C11 UNL     1      29.439  22.713  15.007  1.00  0.00     0.160 C 
HETATM    8  C12 UNL     1      28.147  22.125  14.567  1.00  0.00     0.369 C 
HETATM    9  N3  UNL     1      28.178  20.665  14.405  1.00  0.00     0.181 N 
HETATM   10  C13 UNL     1      26.794  20.281  14.485  1.00  0.00     0.397 C 
HETATM   11  O2  UNL     1      28.738  20.208  15.575  1.00  0.00    -0.037 OA
ENDROOT
BRANCH   1  12
HETATM   12  C6  UNL     1      28.216  19.181  12.623  1.00  0.00     0.312 C 
BRANCH  12  13
HETATM   13  C5  UNL     1      28.765  17.782  12.800  1.00  0.00     0.147 C 
BRANCH  13  14
HETATM   14  C4  UNL     1      28.479  17.002  11.504  1.00  0.00     0.033 C 
BRANCH  14  15
HETATM   15  C3  UNL     1      29.663  16.294  10.958  1.00  0.00     0.002 C 
BRANCH  15  16
HETATM   16  C2  UNL     1      29.503  14.811  11.327  1.00  0.00    -0.004 C 
HETATM   17  C1  UNL     1      28.075  14.386  10.994  1.00  0.00     0.005 C 
ENDBRANCH  15  16
ENDBRANCH  14  15
ENDBRANCH  13  14
BRANCH  13  18
HETATM   18  O1  UNL     1      28.095  17.073  13.795  1.00  0.00    -0.394 OA
ATOM     19  H1  UNL     1      27.522  17.712  14.202  1.00  0.00     0.210 HD
ENDBRANCH  13  18
ENDBRANCH  12  13
ENDBRANCH   1  12
TORSDOF 6
ENDMDL
