MODEL 1
REMARK VINA RESULT: -8.409498646      0.000      0.000
REMARK  11 active torsions:
REMARK  status: ('A' for Active; 'I' for Inactive)
REMARK    1  A    between atoms: C3_3  and  N1_4 
REMARK    2  A    between atoms: N1_4  and  N2_6 
REMARK    3  A    between atoms: N2_6  and  N3_8 
REMARK    4  A    between atoms: N3_8  and  S1_10 
REMARK    5  A    between atoms: S1_10  and  N4_13 
REMARK    6  A    between atoms: N4_13  and  N5_15 
REMARK    7  A    between atoms: N5_15  and  C4_17 
REMARK    8  A    between atoms: C8_28  and  N10_29 
REMARK    9  A    between atoms: N10_29  and  C9_31 
REMARK   10  A    between atoms: C11_35  and  N12_36 
REMARK   11  A    between atoms: N12_36  and  O3_38 
ROOT
HETATM    1  C1  UNL     1      -4.436  27.329 -19.326  1.00  0.00     0.058 C 
HETATM    2  C2  UNL     1      -5.744  27.639 -18.680  1.00  0.00     0.052 A 
HETATM    3  C3  UNL     1      -6.937  27.109 -19.141  1.00  0.00     0.148 A 
HETATM    4  N9  UNL     1      -8.092  27.419 -18.524  1.00  0.00    -0.175 N 
ATOM      5  H9  UNL     1      -8.957  27.014 -18.882  1.00  0.00     0.186 HD
HETATM    6  C8  UNL     1      -8.158  28.237 -17.456  1.00  0.00     0.684 A 
HETATM    7  N14 UNL     1      -6.993  28.750 -17.012  1.00  0.00    -0.156 N 
ATOM      8  H14 UNL     1      -7.008  29.373 -16.204  1.00  0.00     0.187 HD
HETATM    9  C12 UNL     1      -5.811  28.473 -17.590  1.00  0.00     0.269 A 
HETATM   10  O4  UNL     1      -4.730  28.965 -17.158  1.00  0.00    -0.267 OA
ENDROOT
BRANCH   3  11
HETATM   11  N1  UNL     1      -6.935  26.243 -20.260  1.00  0.00    -0.269 N 
ATOM     12  H1  UNL     1      -6.585  25.291 -20.151  1.00  0.00     0.190 HD
BRANCH  11  13
HETATM   13  N2  UNL     1      -7.365  26.624 -21.414  1.00  0.00    -0.230 N 
ATOM     14  H2  UNL     1      -8.362  26.718 -21.611  1.00  0.00     0.209 HD
BRANCH  13  15
HETATM   15  N3  UNL     1      -6.401  26.901 -22.373  1.00  0.00    -0.194 N 
ATOM     16  H3  UNL     1      -6.270  27.859 -22.698  1.00  0.00     0.203 HD
BRANCH  15  17
HETATM   17  S1  UNL     1      -5.436  25.647 -23.009  1.00  0.00     0.351 S 
HETATM   18  O1  UNL     1      -3.957  25.946 -22.870  1.00  0.00    -0.179 OA
HETATM   19  O2  UNL     1      -5.687  24.326 -22.339  1.00  0.00    -0.179 OA
BRANCH  17  20
HETATM   20  N4  UNL     1      -5.778  25.500 -24.700  1.00  0.00    -0.207 N 
ATOM     21  H4  UNL     1      -5.378  26.064 -25.450  1.00  0.00     0.201 HD
BRANCH  20  22
HETATM   22  N5  UNL     1      -6.703  24.465 -24.844  1.00  0.00    -0.278 N 
ATOM     23  H5  UNL     1      -7.551  24.464 -24.276  1.00  0.00     0.189 HD
BRANCH  22  24
HETATM   24  C4  UNL     1      -6.473  23.392 -25.791  1.00  0.00     0.103 A 
HETATM   25  N6  UNL     1      -7.452  22.806 -26.343  1.00  0.00    -0.319 N 
HETATM   26  C5  UNL     1      -7.271  21.739 -27.287  1.00  0.00     0.193 A 
ATOM     27  H6  UNL     1      -8.401  23.102 -26.109  1.00  0.00     0.169 HD
HETATM   28  N7  UNL     1      -8.355  21.078 -27.909  1.00  0.00    -0.063 NA
HETATM   29  N8  UNL     1      -6.076  21.398 -27.550  1.00  0.00    -0.344 N 
HETATM   30  C6  UNL     1      -4.894  21.949 -27.021  1.00  0.00     0.071 A 
ATOM     31  H8  UNL     1      -5.959  20.639 -28.222  1.00  0.00     0.167 HD
HETATM   32  C7  UNL     1      -5.084  23.055 -26.052  1.00  0.00     0.122 A 
ENDBRANCH  22  24
ENDBRANCH  20  22
ENDBRANCH  17  20
ENDBRANCH  15  17
ENDBRANCH  13  15
ENDBRANCH  11  13
ENDBRANCH   3  11
BRANCH   6  33
HETATM   33  N10 UNL     1      -9.300  28.486 -16.921  1.00  0.00    -0.203 N 
ATOM     34  H10 UNL     1     -10.143  28.183 -17.410  1.00  0.00     0.180 HD
BRANCH  33  35
HETATM   35  C9  UNL     1      -9.445  29.176 -15.655  1.00  0.00     0.234 C 
HETATM   36  C10 UNL     1     -10.365  28.439 -14.715  1.00  0.00     0.186 C 
HETATM   37  N11 UNL     1     -11.062  29.516 -14.051  1.00  0.00    -0.221 N 
HETATM   38  C11 UNL     1     -10.987  30.636 -14.909  1.00  0.00     0.695 C 
ATOM     39  H11 UNL     1     -11.519  29.477 -13.140  1.00  0.00     0.177 HD
HETATM   40  N13 UNL     1     -10.088  30.459 -15.810  1.00  0.00    -0.201 N 
ATOM     41  H13 UNL     1      -9.859  31.135 -16.538  1.00  0.00     0.180 HD
BRANCH  38  42
HETATM   42  N12 UNL     1     -11.762  31.847 -14.862  1.00  0.00    -0.099 N 
ATOM     43  H12 UNL     1     -11.467  32.667 -15.391  1.00  0.00     0.213 HD
BRANCH  42  44
HETATM   44  O3  UNL     1     -12.884  31.889 -14.110  1.00  0.00    -0.276 OA
ATOM     45  H3  UNL     1     -12.881  32.372 -13.292  1.00  0.00     0.245 HD
ENDBRANCH  42  44
ENDBRANCH  38  42
ENDBRANCH  33  35
ENDBRANCH   6  33
TORSDOF 11
ENDMDL
MODEL 2
REMARK VINA RESULT: -8.208522053      2.213      2.815
REMARK  11 active torsions:
REMARK  status: ('A' for Active; 'I' for Inactive)
REMARK    1  A    between atoms: C3_3  and  N1_4 
REMARK    2  A    between atoms: N1_4  and  N2_6 
REMARK    3  A    between atoms: N2_6  and  N3_8 
REMARK    4  A    between atoms: N3_8  and  S1_10 
REMARK    5  A    between atoms: S1_10  and  N4_13 
REMARK    6  A    between atoms: N4_13  and  N5_15 
REMARK    7  A    between atoms: N5_15  and  C4_17 
REMARK    8  A    between atoms: C8_28  and  N10_29 
REMARK    9  A    between atoms: N10_29  and  C9_31 
REMARK   10  A    between atoms: C11_35  and  N12_36 
REMARK   11  A    between atoms: N12_36  and  O3_38 
ROOT
HETATM    1  C1  UNL     1      -3.994  26.745 -16.093  1.00  0.00     0.058 C 
HETATM    2  C2  UNL     1      -5.402  27.052 -15.709  1.00  0.00     0.052 A 
HETATM    3  C3  UNL     1      -6.392  27.273 -16.652  1.00  0.00     0.148 A 
HETATM    4  N9  UNL     1      -7.648  27.546 -16.254  1.00  0.00    -0.175 N 
ATOM      5  H9  UNL     1      -8.359  27.704 -16.968  1.00  0.00     0.186 HD
HETATM    6  C8  UNL     1      -8.009  27.620 -14.959  1.00  0.00     0.684 A 
HETATM    7  N14 UNL     1      -7.041  27.403 -14.046  1.00  0.00    -0.156 N 
ATOM      8  H14 UNL     1      -7.282  27.452 -13.055  1.00  0.00     0.187 HD
HETATM    9  C12 UNL     1      -5.770  27.126 -14.387  1.00  0.00     0.269 A 
HETATM   10  O4  UNL     1      -4.878  26.927 -13.515  1.00  0.00    -0.267 OA
ENDROOT
BRANCH   3  11
HETATM   11  N1  UNL     1      -6.076  27.210 -18.030  1.00  0.00    -0.269 N 
ATOM     12  H1  UNL     1      -5.652  26.361 -18.404  1.00  0.00     0.190 HD
BRANCH  11  13
HETATM   13  N2  UNL     1      -6.311  28.197 -18.825  1.00  0.00    -0.230 N 
ATOM     14  H2  UNL     1      -6.590  29.114 -18.475  1.00  0.00     0.209 HD
BRANCH  13  15
HETATM   15  N3  UNL     1      -6.163  27.947 -20.181  1.00  0.00    -0.194 N 
ATOM     16  H3  UNL     1      -5.578  28.560 -20.750  1.00  0.00     0.203 HD
BRANCH  15  17
HETATM   17  S1  UNL     1      -6.955  26.620 -20.903  1.00  0.00     0.351 S 
HETATM   18  O1  UNL     1      -7.921  25.950 -19.948  1.00  0.00    -0.179 OA
HETATM   19  O2  UNL     1      -7.737  27.008 -22.126  1.00  0.00    -0.179 OA
BRANCH  17  20
HETATM   20  N4  UNL     1      -5.762  25.445 -21.341  1.00  0.00    -0.207 N 
ATOM     21  H4  UNL     1      -5.500  24.618 -20.804  1.00  0.00     0.201 HD
BRANCH  20  22
HETATM   22  N5  UNL     1      -5.226  25.841 -22.568  1.00  0.00    -0.278 N 
ATOM     23  H5  UNL     1      -4.757  26.744 -22.645  1.00  0.00     0.189 HD
BRANCH  22  24
HETATM   24  C4  UNL     1      -5.327  24.984 -23.733  1.00  0.00     0.103 A 
HETATM   25  N6  UNL     1      -6.446  24.811 -24.303  1.00  0.00    -0.319 N 
HETATM   26  C5  UNL     1      -6.592  23.971 -25.459  1.00  0.00     0.193 A 
ATOM     27  H6  UNL     1      -7.269  25.284 -23.929  1.00  0.00     0.169 HD
HETATM   28  N7  UNL     1      -7.834  23.770 -26.104  1.00  0.00    -0.063 NA
HETATM   29  N8  UNL     1      -5.544  23.398 -25.893  1.00  0.00    -0.344 N 
HETATM   30  C6  UNL     1      -4.241  23.490 -25.369  1.00  0.00     0.071 A 
ATOM     31  H8  UNL     1      -5.661  22.804 -26.714  1.00  0.00     0.167 HD
HETATM   32  C7  UNL     1      -4.092  24.364 -24.181  1.00  0.00     0.122 A 
ENDBRANCH  22  24
ENDBRANCH  20  22
ENDBRANCH  17  20
ENDBRANCH  15  17
ENDBRANCH  13  15
ENDBRANCH  11  13
ENDBRANCH   3  11
BRANCH   6  33
HETATM   33  N10 UNL     1      -9.230  27.886 -14.658  1.00  0.00    -0.203 N 
ATOM     34  H10 UNL     1      -9.747  27.218 -14.086  1.00  0.00     0.180 HD
BRANCH  33  35
HETATM   35  C9  UNL     1      -9.906  29.091 -15.094  1.00  0.00     0.234 C 
HETATM   36  C10 UNL     1      -9.149  30.335 -14.698  1.00  0.00     0.186 C 
HETATM   37  N11 UNL     1     -10.212  31.256 -14.369  1.00  0.00    -0.221 N 
HETATM   38  C11 UNL     1     -11.340  30.472 -14.044  1.00  0.00     0.695 C 
ATOM     39  H11 UNL     1     -10.158  32.275 -14.371  1.00  0.00     0.177 HD
HETATM   40  N13 UNL     1     -11.183  29.260 -14.443  1.00  0.00    -0.201 N 
ATOM     41  H13 UNL     1     -11.869  28.517 -14.317  1.00  0.00     0.180 HD
BRANCH  38  42
HETATM   42  N12 UNL     1     -12.542  30.880 -13.367  1.00  0.00    -0.099 N 
ATOM     43  H12 UNL     1     -12.837  30.407 -12.512  1.00  0.00     0.213 HD
BRANCH  42  44
HETATM   44  O3  UNL     1     -13.278  31.894 -13.872  1.00  0.00    -0.276 OA
ATOM     45  H3  UNL     1     -13.868  31.727 -14.599  1.00  0.00     0.245 HD
ENDBRANCH  42  44
ENDBRANCH  38  42
ENDBRANCH  33  35
ENDBRANCH   6  33
TORSDOF 11
ENDMDL
MODEL 3
REMARK VINA RESULT: -7.933874932      4.090     12.849
REMARK  11 active torsions:
REMARK  status: ('A' for Active; 'I' for Inactive)
REMARK    1  A    between atoms: C3_3  and  N1_4 
REMARK    2  A    between atoms: N1_4  and  N2_6 
REMARK    3  A    between atoms: N2_6  and  N3_8 
REMARK    4  A    between atoms: N3_8  and  S1_10 
REMARK    5  A    between atoms: S1_10  and  N4_13 
REMARK    6  A    between atoms: N4_13  and  N5_15 
REMARK    7  A    between atoms: N5_15  and  C4_17 
REMARK    8  A    between atoms: C8_28  and  N10_29 
REMARK    9  A    between atoms: N10_29  and  C9_31 
REMARK   10  A    between atoms: C11_35  and  N12_36 
REMARK   11  A    between atoms: N12_36  and  O3_38 
ROOT
HETATM    1  C1  UNL     1      -7.542  23.355 -25.744  1.00  0.00     0.058 C 
HETATM    2  C2  UNL     1      -6.664  22.481 -26.574  1.00  0.00     0.052 A 
HETATM    3  C3  UNL     1      -5.292  22.432 -26.396  1.00  0.00     0.148 A 
HETATM    4  N9  UNL     1      -4.543  21.626 -27.170  1.00  0.00    -0.175 N 
ATOM      5  H9  UNL     1      -3.534  21.607 -27.019  1.00  0.00     0.186 HD
HETATM    6  C8  UNL     1      -5.063  20.844 -28.136  1.00  0.00     0.684 A 
HETATM    7  N14 UNL     1      -6.399  20.896 -28.305  1.00  0.00    -0.156 N 
ATOM      8  H14 UNL     1      -6.825  20.316 -29.028  1.00  0.00     0.187 HD
HETATM    9  C12 UNL     1      -7.195  21.683 -27.559  1.00  0.00     0.269 A 
HETATM   10  O4  UNL     1      -8.446  21.716 -27.733  1.00  0.00    -0.267 OA
ENDROOT
BRANCH   3  11
HETATM   11  N1  UNL     1      -4.684  23.230 -25.398  1.00  0.00    -0.269 N 
ATOM     12  H1  UNL     1      -4.535  22.836 -24.469  1.00  0.00     0.190 HD
BRANCH  11  13
HETATM   13  N2  UNL     1      -4.313  24.442 -25.632  1.00  0.00    -0.230 N 
ATOM     14  H2  UNL     1      -4.161  24.783 -26.581  1.00  0.00     0.209 HD
BRANCH  13  15
HETATM   15  N3  UNL     1      -4.131  25.258 -24.524  1.00  0.00    -0.194 N 
ATOM     16  H3  UNL     1      -3.972  26.258 -24.651  1.00  0.00     0.203 HD
BRANCH  15  17
HETATM   17  S1  UNL     1      -4.169  24.597 -22.953  1.00  0.00     0.351 S 
HETATM   18  O1  UNL     1      -5.533  24.032 -22.611  1.00  0.00    -0.179 OA
HETATM   19  O2  UNL     1      -3.170  23.491 -22.766  1.00  0.00    -0.179 OA
BRANCH  17  20
HETATM   20  N4  UNL     1      -3.835  25.862 -21.820  1.00  0.00    -0.207 N 
ATOM     21  H4  UNL     1      -3.005  25.945 -21.232  1.00  0.00     0.201 HD
BRANCH  20  22
HETATM   22  N5  UNL     1      -4.915  26.746 -21.861  1.00  0.00    -0.278 N 
ATOM     23  H5  UNL     1      -5.081  27.300 -22.701  1.00  0.00     0.189 HD
BRANCH  22  24
HETATM   24  C4  UNL     1      -5.802  26.885 -20.723  1.00  0.00     0.103 A 
HETATM   25  N6  UNL     1      -6.523  25.911 -20.352  1.00  0.00    -0.319 N 
HETATM   26  C5  UNL     1      -7.416  26.004 -19.231  1.00  0.00     0.193 A 
ATOM     27  H6  UNL     1      -6.467  25.031 -20.867  1.00  0.00     0.169 HD
HETATM   28  N7  UNL     1      -8.224  24.924 -18.808  1.00  0.00    -0.063 NA
HETATM   29  N8  UNL     1      -7.458  27.116 -18.617  1.00  0.00    -0.344 N 
HETATM   30  C6  UNL     1      -6.725  28.281 -18.909  1.00  0.00     0.071 A 
ATOM     31  H8  UNL     1      -8.096  27.170 -17.823  1.00  0.00     0.167 HD
HETATM   32  C7  UNL     1      -5.799  28.179 -20.062  1.00  0.00     0.122 A 
ENDBRANCH  22  24
ENDBRANCH  20  22
ENDBRANCH  17  20
ENDBRANCH  15  17
ENDBRANCH  13  15
ENDBRANCH  11  13
ENDBRANCH   3  11
BRANCH   6  33
HETATM   33  N10 UNL     1      -4.281  20.101 -28.836  1.00  0.00    -0.203 N 
ATOM     34  H10 UNL     1      -4.607  19.173 -29.107  1.00  0.00     0.180 HD
BRANCH  33  35
HETATM   35  C9  UNL     1      -2.960  20.521 -29.257  1.00  0.00     0.234 C 
HETATM   36  C10 UNL     1      -3.021  21.651 -30.254  1.00  0.00     0.186 C 
HETATM   37  N11 UNL     1      -1.930  21.337 -31.149  1.00  0.00    -0.221 N 
HETATM   38  C11 UNL     1      -1.696  19.950 -31.029  1.00  0.00     0.695 C 
ATOM     39  H11 UNL     1      -1.427  21.990 -31.749  1.00  0.00     0.177 HD
HETATM   40  N13 UNL     1      -2.266  19.481 -29.977  1.00  0.00    -0.201 N 
ATOM     41  H13 UNL     1      -2.232  18.503 -29.689  1.00  0.00     0.180 HD
BRANCH  38  42
HETATM   42  N12 UNL     1      -0.941  19.095 -31.907  1.00  0.00    -0.099 N 
ATOM     43  H12 UNL     1      -0.449  19.488 -32.710  1.00  0.00     0.213 HD
BRANCH  42  44
HETATM   44  O3  UNL     1      -0.889  17.768 -31.660  1.00  0.00    -0.276 OA
ATOM     45  H3  UNL     1      -0.456  17.456 -30.874  1.00  0.00     0.245 HD
ENDBRANCH  42  44
ENDBRANCH  38  42
ENDBRANCH  33  35
ENDBRANCH   6  33
TORSDOF 11
ENDMDL
MODEL 4
REMARK VINA RESULT: -7.900853246      5.400      8.636
REMARK  11 active torsions:
REMARK  status: ('A' for Active; 'I' for Inactive)
REMARK    1  A    between atoms: C3_3  and  N1_4 
REMARK    2  A    between atoms: N1_4  and  N2_6 
REMARK    3  A    between atoms: N2_6  and  N3_8 
REMARK    4  A    between atoms: N3_8  and  S1_10 
REMARK    5  A    between atoms: S1_10  and  N4_13 
REMARK    6  A    between atoms: N4_13  and  N5_15 
REMARK    7  A    between atoms: N5_15  and  C4_17 
REMARK    8  A    between atoms: C8_28  and  N10_29 
REMARK    9  A    between atoms: N10_29  and  C9_31 
REMARK   10  A    between atoms: C11_35  and  N12_36 
REMARK   11  A    between atoms: N12_36  and  O3_38 
ROOT
HETATM    1  C1  UNL     1      -5.410  26.953 -19.802  1.00  0.00     0.058 C 
HETATM    2  C2  UNL     1      -6.609  27.351 -19.008  1.00  0.00     0.052 A 
HETATM    3  C3  UNL     1      -6.709  28.588 -18.395  1.00  0.00     0.148 A 
HETATM    4  N9  UNL     1      -7.811  28.900 -17.689  1.00  0.00    -0.175 N 
ATOM      5  H9  UNL     1      -7.861  29.818 -17.248  1.00  0.00     0.186 HD
HETATM    6  C8  UNL     1      -8.851  28.056 -17.539  1.00  0.00     0.684 A 
HETATM    7  N14 UNL     1      -8.747  26.853 -18.139  1.00  0.00    -0.156 N 
ATOM      8  H14 UNL     1      -9.518  26.191 -18.044  1.00  0.00     0.187 HD
HETATM    9  C12 UNL     1      -7.669  26.490 -18.856  1.00  0.00     0.269 A 
HETATM   10  O4  UNL     1      -7.593  25.356 -19.410  1.00  0.00    -0.267 OA
ENDROOT
BRANCH   3  11
HETATM   11  N1  UNL     1      -5.650  29.519 -18.514  1.00  0.00    -0.269 N 
ATOM     12  H1  UNL     1      -4.739  29.289 -18.118  1.00  0.00     0.190 HD
BRANCH  11  13
HETATM   13  N2  UNL     1      -5.806  30.651 -19.111  1.00  0.00    -0.230 N 
ATOM     14  H2  UNL     1      -6.099  30.707 -20.087  1.00  0.00     0.209 HD
BRANCH  13  15
HETATM   15  N3  UNL     1      -5.555  31.788 -18.357  1.00  0.00    -0.194 N 
ATOM     16  H3  UNL     1      -4.608  32.162 -18.303  1.00  0.00     0.203 HD
BRANCH  15  17
HETATM   17  S1  UNL     1      -6.822  32.561 -17.518  1.00  0.00     0.351 S 
HETATM   18  O1  UNL     1      -7.272  33.829 -18.217  1.00  0.00    -0.179 OA
HETATM   19  O2  UNL     1      -8.033  31.686 -17.364  1.00  0.00    -0.179 OA
BRANCH  17  20
HETATM   20  N4  UNL     1      -6.244  33.013 -15.950  1.00  0.00    -0.207 N 
ATOM     21  H4  UNL     1      -5.364  33.483 -15.741  1.00  0.00     0.201 HD
BRANCH  20  22
HETATM   22  N5  UNL     1      -7.211  32.613 -15.025  1.00  0.00    -0.278 N 
ATOM     23  H5  UNL     1      -8.000  33.226 -14.824  1.00  0.00     0.189 HD
BRANCH  22  24
HETATM   24  C4  UNL     1      -7.104  31.335 -14.349  1.00  0.00     0.103 A 
HETATM   25  N6  UNL     1      -6.569  30.345 -14.933  1.00  0.00    -0.319 N 
HETATM   26  C5  UNL     1      -6.443  29.062 -14.301  1.00  0.00     0.193 A 
ATOM     27  H6  UNL     1      -6.217  30.465 -15.884  1.00  0.00     0.169 HD
HETATM   28  N7  UNL     1      -5.848  27.951 -14.943  1.00  0.00    -0.063 NA
HETATM   29  N8  UNL     1      -6.895  28.953 -13.119  1.00  0.00    -0.344 N 
HETATM   30  C6  UNL     1      -7.513  29.954 -12.345  1.00  0.00     0.071 A 
ATOM     31  H8  UNL     1      -6.800  28.037 -12.681  1.00  0.00     0.167 HD
HETATM   32  C7  UNL     1      -7.635  31.279 -12.998  1.00  0.00     0.122 A 
ENDBRANCH  22  24
ENDBRANCH  20  22
ENDBRANCH  17  20
ENDBRANCH  15  17
ENDBRANCH  13  15
ENDBRANCH  11  13
ENDBRANCH   3  11
BRANCH   6  33
HETATM   33  N10 UNL     1      -9.870  28.427 -16.849  1.00  0.00    -0.203 N 
ATOM     34  H10 UNL     1     -10.802  28.222 -17.209  1.00  0.00     0.180 HD
BRANCH  33  35
HETATM   35  C9  UNL     1      -9.755  29.122 -15.583  1.00  0.00     0.234 C 
HETATM   36  C10 UNL     1     -10.599  28.479 -14.510  1.00  0.00     0.186 C 
HETATM   37  N11 UNL     1     -11.076  29.620 -13.762  1.00  0.00    -0.221 N 
HETATM   38  C11 UNL     1     -11.012  30.730 -14.633  1.00  0.00     0.695 C 
ATOM     39  H11 UNL     1     -11.396  29.623 -12.793  1.00  0.00     0.177 HD
HETATM   40  N13 UNL     1     -10.278  30.465 -15.655  1.00  0.00    -0.201 N 
ATOM     41  H13 UNL     1     -10.089  31.118 -16.415  1.00  0.00     0.180 HD
BRANCH  38  42
HETATM   42  N12 UNL     1     -11.642  32.015 -14.485  1.00  0.00    -0.099 N 
ATOM     43  H12 UNL     1     -11.113  32.870 -14.655  1.00  0.00     0.213 HD
BRANCH  42  44
HETATM   44  O3  UNL     1     -12.941  32.079 -14.119  1.00  0.00    -0.276 OA
ATOM     45  H3  UNL     1     -13.488  32.779 -14.458  1.00  0.00     0.245 HD
ENDBRANCH  42  44
ENDBRANCH  38  42
ENDBRANCH  33  35
ENDBRANCH   6  33
TORSDOF 11
ENDMDL
MODEL 5
REMARK VINA RESULT: -7.825748172      2.852      3.573
REMARK  11 active torsions:
REMARK  status: ('A' for Active; 'I' for Inactive)
REMARK    1  A    between atoms: C3_3  and  N1_4 
REMARK    2  A    between atoms: N1_4  and  N2_6 
REMARK    3  A    between atoms: N2_6  and  N3_8 
REMARK    4  A    between atoms: N3_8  and  S1_10 
REMARK    5  A    between atoms: S1_10  and  N4_13 
REMARK    6  A    between atoms: N4_13  and  N5_15 
REMARK    7  A    between atoms: N5_15  and  C4_17 
REMARK    8  A    between atoms: C8_28  and  N10_29 
REMARK    9  A    between atoms: N10_29  and  C9_31 
REMARK   10  A    between atoms: C11_35  and  N12_36 
REMARK   11  A    between atoms: N12_36  and  O3_38 
ROOT
HETATM    1  C1  UNL     1      -3.961  26.740 -16.196  1.00  0.00     0.058 C 
HETATM    2  C2  UNL     1      -5.354  27.061 -15.766  1.00  0.00     0.052 A 
HETATM    3  C3  UNL     1      -6.373  27.285 -16.676  1.00  0.00     0.148 A 
HETATM    4  N9  UNL     1      -7.612  27.570 -16.238  1.00  0.00    -0.175 N 
ATOM      5  H9  UNL     1      -8.346  27.730 -16.928  1.00  0.00     0.186 HD
HETATM    6  C8  UNL     1      -7.929  27.653 -14.932  1.00  0.00     0.684 A 
HETATM    7  N14 UNL     1      -6.932  27.434 -14.050  1.00  0.00    -0.156 N 
ATOM      8  H14 UNL     1      -7.140  27.490 -13.053  1.00  0.00     0.187 HD
HETATM    9  C12 UNL     1      -5.676  27.145 -14.433  1.00  0.00     0.269 A 
HETATM   10  O4  UNL     1      -4.757  26.942 -13.590  1.00  0.00    -0.267 OA
ENDROOT
BRANCH   3  11
HETATM   11  N1  UNL     1      -6.104  27.212 -18.063  1.00  0.00    -0.269 N 
ATOM     12  H1  UNL     1      -5.740  26.343 -18.454  1.00  0.00     0.190 HD
BRANCH  11  13
HETATM   13  N2  UNL     1      -6.308  28.215 -18.847  1.00  0.00    -0.230 N 
ATOM     14  H2  UNL     1      -6.533  29.142 -18.485  1.00  0.00     0.209 HD
BRANCH  13  15
HETATM   15  N3  UNL     1      -6.205  27.967 -20.208  1.00  0.00    -0.194 N 
ATOM     16  H3  UNL     1      -5.662  28.597 -20.799  1.00  0.00     0.203 HD
BRANCH  15  17
HETATM   17  S1  UNL     1      -6.984  26.616 -20.898  1.00  0.00     0.351 S 
HETATM   18  O1  UNL     1      -7.982  25.991 -19.945  1.00  0.00    -0.179 OA
HETATM   19  O2  UNL     1      -7.727  26.957 -22.158  1.00  0.00    -0.179 OA
BRANCH  17  20
HETATM   20  N4  UNL     1      -5.786  25.417 -21.252  1.00  0.00    -0.207 N 
ATOM     21  H4  UNL     1      -5.208  24.920 -20.574  1.00  0.00     0.201 HD
BRANCH  20  22
HETATM   22  N5  UNL     1      -5.761  25.258 -22.639  1.00  0.00    -0.278 N 
ATOM     23  H5  UNL     1      -6.541  25.601 -23.199  1.00  0.00     0.189 HD
BRANCH  22  24
HETATM   24  C4  UNL     1      -4.638  24.613 -23.291  1.00  0.00     0.103 A 
HETATM   25  N6  UNL     1      -3.541  24.466 -22.675  1.00  0.00    -0.319 N 
HETATM   26  C5  UNL     1      -2.403  23.833 -23.282  1.00  0.00     0.193 A 
ATOM     27  H6  UNL     1      -3.462  24.809 -21.717  1.00  0.00     0.169 HD
HETATM   28  N7  UNL     1      -1.173  23.663 -22.605  1.00  0.00    -0.063 NA
HETATM   29  N8  UNL     1      -2.540  23.421 -24.476  1.00  0.00    -0.344 N 
HETATM   30  C6  UNL     1      -3.688  23.513 -25.284  1.00  0.00     0.071 A 
ATOM     31  H8  UNL     1      -1.725  22.973 -24.895  1.00  0.00     0.167 HD
HETATM   32  C7  UNL     1      -4.862  24.161 -24.653  1.00  0.00     0.122 A 
ENDBRANCH  22  24
ENDBRANCH  20  22
ENDBRANCH  17  20
ENDBRANCH  15  17
ENDBRANCH  13  15
ENDBRANCH  11  13
ENDBRANCH   3  11
BRANCH   6  33
HETATM   33  N10 UNL     1      -9.137  27.931 -14.591  1.00  0.00    -0.203 N 
ATOM     34  H10 UNL     1      -9.626  27.290 -13.966  1.00  0.00     0.180 HD
BRANCH  33  35
HETATM   35  C9  UNL     1      -9.836  29.112 -15.055  1.00  0.00     0.234 C 
HETATM   36  C10 UNL     1      -9.119  30.380 -14.663  1.00  0.00     0.186 C 
HETATM   37  N11 UNL     1     -10.211  31.278 -14.365  1.00  0.00    -0.221 N 
HETATM   38  C11 UNL     1     -11.324  30.469 -14.049  1.00  0.00     0.695 C 
ATOM     39  H11 UNL     1     -10.184  32.297 -14.379  1.00  0.00     0.177 HD
HETATM   40  N13 UNL     1     -11.128  29.256 -14.429  1.00  0.00    -0.201 N 
ATOM     41  H13 UNL     1     -11.797  28.497 -14.304  1.00  0.00     0.180 HD
BRANCH  38  42
HETATM   42  N12 UNL     1     -12.548  30.853 -13.398  1.00  0.00    -0.099 N 
ATOM     43  H12 UNL     1     -12.881  30.339 -12.581  1.00  0.00     0.213 HD
BRANCH  42  44
HETATM   44  O3  UNL     1     -13.255  31.901 -13.876  1.00  0.00    -0.276 OA
ATOM     45  H3  UNL     1     -12.812  32.568 -14.388  1.00  0.00     0.245 HD
ENDBRANCH  42  44
ENDBRANCH  38  42
ENDBRANCH  33  35
ENDBRANCH   6  33
TORSDOF 11
ENDMDL
