MODEL 1
REMARK VINA RESULT: -4.394419861      0.000      0.000
REMARK  5 active torsions:
REMARK  status: ('A' for Active; 'I' for Inactive)
REMARK    1  A    between atoms: N1_2  and  C4_5 
REMARK    2  A    between atoms: C4_5  and  C5_6 
REMARK    3  A    between atoms: C7_8  and  N2_9 
REMARK    4  A    between atoms: C11_13  and  O1_14 
REMARK    5  A    between atoms: C12_16  and  O2_17 
ROOT
HETATM    1  C5  UNL     1      34.454  -0.577  80.520  1.00  0.00     0.045 C 
HETATM    2  C6  UNL     1      33.432  -1.536  79.974  1.00  0.00     0.045 C 
HETATM    3  C7  UNL     1      32.800  -0.836  78.770  1.00  0.00     0.220 C 
HETATM    4  C11 UNL     1      33.752   0.215  78.405  1.00  0.00     0.178 C 
HETATM    5  C12 UNL     1      35.002   0.038  79.245  1.00  0.00     0.154 C 
ENDROOT
BRANCH   1   6
HETATM    6  C4  UNL     1      33.915   0.535  81.346  1.00  0.00     0.243 C 
BRANCH   6   7
HETATM    7  N1  UNL     1      34.394   0.673  82.674  1.00  0.00    -0.078 N 
HETATM    8  C1  UNL     1      35.320  -0.410  82.991  1.00  0.00     0.271 C 
HETATM    9  C2  UNL     1      33.226   0.458  83.563  1.00  0.00     0.271 C 
HETATM   10  C3  UNL     1      34.921   1.953  83.042  1.00  0.00     0.271 C 
ENDBRANCH   6   7
ENDBRANCH   1   6
BRANCH   5  11
HETATM   11  O2  UNL     1      35.877  -0.883  78.682  1.00  0.00    -0.393 OA
ATOM     12  H2  UNL     1      36.636  -0.401  78.374  1.00  0.00     0.210 HD
ENDBRANCH   5  11
BRANCH   3  13
HETATM   13  N2  UNL     1      32.363  -1.759  77.792  1.00  0.00    -0.072 N 
HETATM   14  C8  UNL     1      31.560  -1.117  76.764  1.00  0.00     0.272 C 
HETATM   15  C9  UNL     1      33.324  -2.574  77.148  1.00  0.00     0.272 C 
HETATM   16  C10 UNL     1      31.437  -2.693  78.459  1.00  0.00     0.272 C 
ENDBRANCH   3  13
BRANCH   4  17
HETATM   17  O1  UNL     1      34.166   0.277  77.098  1.00  0.00    -0.391 OA
ATOM     18  H1  UNL     1      33.501   0.359  76.424  1.00  0.00     0.210 HD
ENDBRANCH   4  17
TORSDOF 5
ENDMDL
MODEL 2
REMARK VINA RESULT: -4.304718750      0.107      1.013
REMARK  5 active torsions:
REMARK  status: ('A' for Active; 'I' for Inactive)
REMARK    1  A    between atoms: N1_2  and  C4_5 
REMARK    2  A    between atoms: C4_5  and  C5_6 
REMARK    3  A    between atoms: C7_8  and  N2_9 
REMARK    4  A    between atoms: C11_13  and  O1_14 
REMARK    5  A    between atoms: C12_16  and  O2_17 
ROOT
HETATM    1  C5  UNL     1      34.554  -0.582  80.534  1.00  0.00     0.045 C 
HETATM    2  C6  UNL     1      33.531  -1.543  79.994  1.00  0.00     0.045 C 
HETATM    3  C7  UNL     1      32.893  -0.846  78.792  1.00  0.00     0.220 C 
HETATM    4  C11 UNL     1      33.842   0.205  78.420  1.00  0.00     0.178 C 
HETATM    5  C12 UNL     1      35.096   0.031  79.255  1.00  0.00     0.154 C 
ENDROOT
BRANCH   1   6
HETATM    6  C4  UNL     1      34.019   0.530  81.360  1.00  0.00     0.243 C 
BRANCH   6   7
HETATM    7  N1  UNL     1      34.394   0.589  82.727  1.00  0.00    -0.078 N 
HETATM    8  C1  UNL     1      33.214   0.470  83.578  1.00  0.00     0.271 C 
HETATM    9  C2  UNL     1      34.906   1.960  82.961  1.00  0.00     0.271 C 
HETATM   10  C3  UNL     1      35.447  -0.287  83.147  1.00  0.00     0.271 C 
ENDBRANCH   6   7
ENDBRANCH   1   6
BRANCH   5  11
HETATM   11  O2  UNL     1      35.970  -0.890  78.691  1.00  0.00    -0.393 OA
ATOM     12  H2  UNL     1      36.289  -1.446  79.392  1.00  0.00     0.210 HD
ENDBRANCH   5  11
BRANCH   3  13
HETATM   13  N2  UNL     1      32.453  -1.771  77.817  1.00  0.00    -0.072 N 
HETATM   14  C8  UNL     1      31.627  -1.135  76.803  1.00  0.00     0.272 C 
HETATM   15  C9  UNL     1      33.413  -2.573  77.157  1.00  0.00     0.272 C 
HETATM   16  C10 UNL     1      31.547  -2.717  78.495  1.00  0.00     0.272 C 
ENDBRANCH   3  13
BRANCH   4  17
HETATM   17  O1  UNL     1      34.251   0.265  77.111  1.00  0.00    -0.391 OA
ATOM     18  H1  UNL     1      34.638   1.077  76.804  1.00  0.00     0.210 HD
ENDBRANCH   4  17
TORSDOF 5
ENDMDL
MODEL 3
REMARK VINA RESULT: -4.121014990      2.677      4.349
REMARK  5 active torsions:
REMARK  status: ('A' for Active; 'I' for Inactive)
REMARK    1  A    between atoms: N1_2  and  C4_5 
REMARK    2  A    between atoms: C4_5  and  C5_6 
REMARK    3  A    between atoms: C7_8  and  N2_9 
REMARK    4  A    between atoms: C11_13  and  O1_14 
REMARK    5  A    between atoms: C12_16  and  O2_17 
ROOT
HETATM    1  C5  UNL     1      33.970   1.064  77.837  1.00  0.00     0.045 C 
HETATM    2  C6  UNL     1      33.794  -0.087  78.788  1.00  0.00     0.045 C 
HETATM    3  C7  UNL     1      34.304  -1.324  78.049  1.00  0.00     0.220 C 
HETATM    4  C11 UNL     1      35.142  -0.798  76.970  1.00  0.00     0.178 C 
HETATM    5  C12 UNL     1      35.280   0.699  77.161  1.00  0.00     0.154 C 
ENDROOT
BRANCH   1   6
HETATM    6  C4  UNL     1      32.943   1.178  76.769  1.00  0.00     0.243 C 
BRANCH   6   7
HETATM    7  N1  UNL     1      31.586   0.959  77.119  1.00  0.00    -0.078 N 
HETATM    8  C1  UNL     1      31.131  -0.322  76.587  1.00  0.00     0.271 C 
HETATM    9  C2  UNL     1      30.797   1.983  76.394  1.00  0.00     0.271 C 
HETATM   10  C3  UNL     1      31.241   1.118  78.500  1.00  0.00     0.271 C 
ENDBRANCH   6   7
ENDBRANCH   1   6
BRANCH   5  11
HETATM   11  O2  UNL     1      36.305   1.016  78.044  1.00  0.00    -0.393 OA
ATOM     12  H2  UNL     1      36.857   1.661  77.619  1.00  0.00     0.210 HD
ENDBRANCH   5  11
BRANCH   3  13
HETATM   13  N2  UNL     1      34.829  -2.291  78.939  1.00  0.00    -0.072 N 
HETATM   14  C8  UNL     1      34.072  -3.532  78.897  1.00  0.00     0.272 C 
HETATM   15  C9  UNL     1      36.204  -2.617  78.855  1.00  0.00     0.272 C 
HETATM   16  C10 UNL     1      34.628  -1.778  80.306  1.00  0.00     0.272 C 
ENDBRANCH   3  13
BRANCH   4  17
HETATM   17  O1  UNL     1      36.415  -1.295  76.847  1.00  0.00    -0.391 OA
ATOM     18  H1  UNL     1      37.110  -0.859  77.328  1.00  0.00     0.210 HD
ENDBRANCH   4  17
TORSDOF 5
ENDMDL
MODEL 4
REMARK VINA RESULT: -3.997018646      3.051      4.300
REMARK  5 active torsions:
REMARK  status: ('A' for Active; 'I' for Inactive)
REMARK    1  A    between atoms: N1_2  and  C4_5 
REMARK    2  A    between atoms: C4_5  and  C5_6 
REMARK    3  A    between atoms: C7_8  and  N2_9 
REMARK    4  A    between atoms: C11_13  and  O1_14 
REMARK    5  A    between atoms: C12_16  and  O2_17 
ROOT
HETATM    1  C5  UNL     1      33.425   0.624  78.453  1.00  0.00     0.045 C 
HETATM    2  C6  UNL     1      33.131  -0.849  78.371  1.00  0.00     0.045 C 
HETATM    3  C7  UNL     1      34.196  -1.439  77.447  1.00  0.00     0.220 C 
HETATM    4  C11 UNL     1      35.269  -0.443  77.427  1.00  0.00     0.178 C 
HETATM    5  C12 UNL     1      34.943   0.629  78.448  1.00  0.00     0.154 C 
ENDROOT
BRANCH   1   6
HETATM    6  C4  UNL     1      32.980   1.434  77.289  1.00  0.00     0.243 C 
BRANCH   6   7
HETATM    7  N1  UNL     1      31.599   1.439  76.966  1.00  0.00    -0.078 N 
HETATM    8  C1  UNL     1      31.267   0.269  76.158  1.00  0.00     0.271 C 
HETATM    9  C2  UNL     1      31.383   2.602  76.073  1.00  0.00     0.271 C 
HETATM   10  C3  UNL     1      30.681   1.617  78.052  1.00  0.00     0.271 C 
ENDBRANCH   6   7
ENDBRANCH   1   6
BRANCH   5  11
HETATM   11  O2  UNL     1      35.363   0.274  79.723  1.00  0.00    -0.393 OA
ATOM     12  H2  UNL     1      36.072  -0.353  79.625  1.00  0.00     0.210 HD
ENDBRANCH   5  11
BRANCH   3  13
HETATM   13  N2  UNL     1      34.492  -2.783  77.773  1.00  0.00    -0.072 N 
HETATM   14  C8  UNL     1      35.476  -3.354  76.868  1.00  0.00     0.272 C 
HETATM   15  C9  UNL     1      34.886  -3.092  79.096  1.00  0.00     0.272 C 
HETATM   16  C10 UNL     1      33.267  -3.568  77.533  1.00  0.00     0.272 C 
ENDBRANCH   3  13
BRANCH   4  17
HETATM   17  O1  UNL     1      36.544  -0.869  77.703  1.00  0.00    -0.391 OA
ATOM     18  H1  UNL     1      36.971  -0.522  78.477  1.00  0.00     0.210 HD
ENDBRANCH   4  17
TORSDOF 5
ENDMDL
MODEL 5
REMARK VINA RESULT: -3.831126485      1.505      2.160
REMARK  5 active torsions:
REMARK  status: ('A' for Active; 'I' for Inactive)
REMARK    1  A    between atoms: N1_2  and  C4_5 
REMARK    2  A    between atoms: C4_5  and  C5_6 
REMARK    3  A    between atoms: C7_8  and  N2_9 
REMARK    4  A    between atoms: C11_13  and  O1_14 
REMARK    5  A    between atoms: C12_16  and  O2_17 
ROOT
HETATM    1  C5  UNL     1      33.449  -0.561  80.534  1.00  0.00     0.045 C 
HETATM    2  C6  UNL     1      32.362   0.116  79.745  1.00  0.00     0.045 C 
HETATM    3  C7  UNL     1      32.988   0.489  78.401  1.00  0.00     0.220 C 
HETATM    4  C11 UNL     1      34.176  -0.359  78.292  1.00  0.00     0.178 C 
HETATM    5  C12 UNL     1      34.167  -1.342  79.448  1.00  0.00     0.154 C 
ENDROOT
BRANCH   1   6
HETATM    6  C4  UNL     1      34.449   0.343  81.158  1.00  0.00     0.243 C 
BRANCH   6   7
HETATM    7  N1  UNL     1      34.390   0.537  82.563  1.00  0.00    -0.078 N 
HETATM    8  C1  UNL     1      34.827   1.889  82.902  1.00  0.00     0.271 C 
HETATM    9  C2  UNL     1      35.412  -0.361  83.151  1.00  0.00     0.271 C 
HETATM   10  C3  UNL     1      33.161   0.193  83.212  1.00  0.00     0.271 C 
ENDBRANCH   6   7
ENDBRANCH   1   6
BRANCH   5  11
HETATM   11  O2  UNL     1      33.400  -2.465  79.166  1.00  0.00    -0.393 OA
ATOM     12  H2  UNL     1      33.821  -2.925  78.449  1.00  0.00     0.210 HD
ENDBRANCH   5  11
BRANCH   3  13
HETATM   13  N2  UNL     1      32.033   0.497  77.358  1.00  0.00    -0.072 N 
HETATM   14  C8  UNL     1      32.552   1.129  76.155  1.00  0.00     0.272 C 
HETATM   15  C9  UNL     1      31.426  -0.724  76.981  1.00  0.00     0.272 C 
HETATM   16  C10 UNL     1      30.927   1.371  77.789  1.00  0.00     0.272 C 
ENDBRANCH   3  13
BRANCH   4  17
HETATM   17  O1  UNL     1      34.329  -1.103  77.149  1.00  0.00    -0.391 OA
ATOM     18  H1  UNL     1      34.473  -2.038  77.244  1.00  0.00     0.210 HD
ENDBRANCH   4  17
TORSDOF 5
ENDMDL
