MODEL 1
REMARK VINA RESULT: -8.711740131      0.000      0.000
REMARK  7 active torsions:
REMARK  status: ('A' for Active; 'I' for Inactive)
REMARK    1  A    between atoms: C4_7  and  N3_8 
REMARK    2  A    between atoms: N3_8  and  C5_10 
REMARK    3  A    between atoms: C5_10  and  C6_11 
REMARK    4  A    between atoms: C5_10  and  C12_21 
REMARK    5  A    between atoms: C6_11  and  N4_12 
REMARK    6  A    between atoms: C13_24  and  N8_25 
REMARK    7  A    between atoms: C15_32  and  N10_33 
ROOT
HETATM    1  C5  UNL     1      28.350  74.005  -4.704  1.00  0.00     0.059 C 
ENDROOT
BRANCH   1   2
HETATM    2  N3  UNL     1      28.769  73.005  -5.588  1.00  0.00    -0.341 N 
ATOM      3  H3  UNL     1      28.640  73.289  -6.560  1.00  0.00     0.167 HD
BRANCH   2   4
HETATM    4  C4  UNL     1      29.255  71.868  -5.509  1.00  0.00     0.137 A 
HETATM    5  C3  UNL     1      30.018  71.259  -6.459  1.00  0.00     0.122 A 
HETATM    6  N2  UNL     1      30.476  71.554  -7.684  1.00  0.00    -0.346 N 
HETATM    7  C17 UNL     1      30.526  69.970  -6.230  1.00  0.00     0.140 A 
HETATM    8  C2  UNL     1      31.199  70.560  -8.182  1.00  0.00     0.184 A 
ATOM      9  H2  UNL     1      30.292  72.431  -8.171  1.00  0.00     0.167 HD
HETATM   10  N1  UNL     1      31.242  69.557  -7.287  1.00  0.00    -0.332 N 
HETATM   11  C1  UNL     1      31.937  68.293  -7.463  1.00  0.00     0.158 C 
HETATM   12  N12 UNL     1      30.270  69.311  -5.070  1.00  0.00    -0.336 N 
HETATM   13  C16 UNL     1      29.522  69.932  -4.165  1.00  0.00     0.183 A 
ATOM     14  H12 UNL     1      30.638  68.374  -4.902  1.00  0.00     0.168 HD
HETATM   15  N11 UNL     1      29.029  71.158  -4.364  1.00  0.00    -0.337 N 
ATOM     16  H11 UNL     1      28.461  71.582  -3.630  1.00  0.00     0.168 HD
ENDBRANCH   2   4
ENDBRANCH   1   2
BRANCH   1  17
HETATM   17  C6  UNL     1      27.227  73.578  -3.796  1.00  0.00     0.185 C 
BRANCH  17  18
HETATM   18  N4  UNL     1      27.379  73.868  -2.423  1.00  0.00    -0.350 N 
HETATM   19  C7  UNL     1      28.573  73.525  -1.668  1.00  0.00     0.126 C 
HETATM   20  C8  UNL     1      28.791  74.313  -0.430  1.00  0.00     0.021 C 
HETATM   21  C9  UNL     1      27.881  74.124   0.703  1.00  0.00     0.021 C 
HETATM   22  C10 UNL     1      26.510  73.611   0.452  1.00  0.00     0.122 C 
HETATM   23  N5  UNL     1      25.879  74.483  -0.553  1.00  0.00    -0.365 N 
HETATM   24  C11 UNL     1      26.304  74.554  -1.796  1.00  0.00     0.186 C 
ATOM     25  H5  UNL     1      25.082  75.054  -0.273  1.00  0.00     0.162 HD
HETATM   26  N6  UNL     1      25.539  75.486  -2.583  1.00  0.00    -0.064 NA
ENDBRANCH  17  18
ENDBRANCH   1  17
BRANCH   1  27
HETATM   27  C12 UNL     1      28.312  75.358  -5.217  1.00  0.00     0.112 A 
HETATM   28  N7  UNL     1      27.459  76.276  -4.709  1.00  0.00    -0.187 N 
HETATM   29  C13 UNL     1      27.427  77.574  -5.082  1.00  0.00     0.679 A 
ATOM     30  H7  UNL     1      26.796  75.968  -3.998  1.00  0.00     0.184 HD
HETATM   31  N9  UNL     1      28.263  78.028  -5.997  1.00  0.00    -0.154 N 
HETATM   32  C14 UNL     1      29.139  77.198  -6.555  1.00  0.00     0.295 A 
ATOM     33  H9  UNL     1      28.238  79.009  -6.275  1.00  0.00     0.187 HD
HETATM   34  O1  UNL     1      29.920  77.654  -7.422  1.00  0.00    -0.265 OA
HETATM   35  C15 UNL     1      29.171  75.835  -6.166  1.00  0.00     0.200 A 
BRANCH  29  36
HETATM   36  N8  UNL     1      26.569  78.402  -4.541  1.00  0.00    -0.234 N 
ATOM     37  H82 UNL     1      26.677  78.654  -3.558  1.00  0.00     0.174 HD
ATOM     38  H81 UNL     1      25.803  78.789  -5.092  1.00  0.00     0.174 HD
ENDBRANCH  29  36
BRANCH  35  39
HETATM   39  N10 UNL     1      30.154  75.103  -6.872  1.00  0.00    -0.107 N 
HETATM   40  O2  UNL     1      31.288  74.993  -6.391  1.00  0.00    -0.531 OA
HETATM   41  O3  UNL     1      29.833  74.470  -8.027  1.00  0.00    -0.531 OA
ENDBRANCH  35  39
ENDBRANCH   1  27
TORSDOF 7
ENDMDL
MODEL 2
REMARK VINA RESULT: -8.683596001      2.640      5.461
REMARK  7 active torsions:
REMARK  status: ('A' for Active; 'I' for Inactive)
REMARK    1  A    between atoms: C4_7  and  N3_8 
REMARK    2  A    between atoms: N3_8  and  C5_10 
REMARK    3  A    between atoms: C5_10  and  C6_11 
REMARK    4  A    between atoms: C5_10  and  C12_21 
REMARK    5  A    between atoms: C6_11  and  N4_12 
REMARK    6  A    between atoms: C13_24  and  N8_25 
REMARK    7  A    between atoms: C15_32  and  N10_33 
ROOT
HETATM    1  C5  UNL     1      27.703  75.681  -5.457  1.00  0.00     0.059 C 
ENDROOT
BRANCH   1   2
HETATM    2  N3  UNL     1      27.714  74.615  -6.362  1.00  0.00    -0.341 N 
ATOM      3  H3  UNL     1      26.832  74.549  -6.872  1.00  0.00     0.167 HD
BRANCH   2   4
HETATM    4  C4  UNL     1      28.506  73.728  -6.712  1.00  0.00     0.137 A 
HETATM    5  C3  UNL     1      28.846  72.629  -5.983  1.00  0.00     0.122 A 
HETATM    6  N2  UNL     1      28.550  72.125  -4.776  1.00  0.00    -0.346 N 
HETATM    7  C17 UNL     1      29.742  71.686  -6.512  1.00  0.00     0.140 A 
HETATM    8  C2  UNL     1      29.190  70.983  -4.560  1.00  0.00     0.184 A 
ATOM      9  H2  UNL     1      27.915  72.563  -4.110  1.00  0.00     0.167 HD
HETATM   10  N1  UNL     1      29.943  70.690  -5.635  1.00  0.00    -0.332 N 
HETATM   11  C1  UNL     1      30.791  69.520  -5.783  1.00  0.00     0.158 C 
HETATM   12  N12 UNL     1      30.283  71.849  -7.747  1.00  0.00    -0.336 N 
HETATM   13  C16 UNL     1      29.932  72.931  -8.432  1.00  0.00     0.183 A 
ATOM     14  H12 UNL     1      30.935  71.165  -8.133  1.00  0.00     0.168 HD
HETATM   15  N11 UNL     1      29.081  73.840  -7.946  1.00  0.00    -0.337 N 
ATOM     16  H11 UNL     1      28.850  74.651  -8.521  1.00  0.00     0.168 HD
ENDBRANCH   2   4
ENDBRANCH   1   2
BRANCH   1  17
HETATM   17  C6  UNL     1      29.003  76.437  -5.396  1.00  0.00     0.185 C 
BRANCH  17  18
HETATM   18  N4  UNL     1      29.074  77.635  -6.140  1.00  0.00    -0.350 N 
HETATM   19  C7  UNL     1      29.148  77.663  -7.592  1.00  0.00     0.126 C 
HETATM   20  C8  UNL     1      28.714  78.932  -8.227  1.00  0.00     0.021 C 
HETATM   21  C9  UNL     1      29.535  80.134  -8.047  1.00  0.00     0.021 C 
HETATM   22  C10 UNL     1      30.426  80.230  -6.863  1.00  0.00     0.122 C 
HETATM   23  N5  UNL     1      29.606  80.004  -5.661  1.00  0.00    -0.365 N 
HETATM   24  C11 UNL     1      29.039  78.846  -5.398  1.00  0.00     0.186 C 
ATOM     25  H5  UNL     1      29.472  80.776  -5.007  1.00  0.00     0.162 HD
HETATM   26  N6  UNL     1      28.276  78.876  -4.177  1.00  0.00    -0.064 NA
ENDBRANCH  17  18
ENDBRANCH   1  17
BRANCH   1  27
HETATM   27  C12 UNL     1      26.996  75.474  -4.211  1.00  0.00     0.112 A 
HETATM   28  N7  UNL     1      27.361  76.123  -3.083  1.00  0.00    -0.187 N 
HETATM   29  C13 UNL     1      26.697  76.041  -1.908  1.00  0.00     0.679 A 
ATOM     30  H7  UNL     1      28.192  76.714  -3.120  1.00  0.00     0.184 HD
HETATM   31  N9  UNL     1      25.615  75.292  -1.803  1.00  0.00    -0.154 N 
HETATM   32  C14 UNL     1      25.180  74.615  -2.861  1.00  0.00     0.295 A 
ATOM     33  H9  UNL     1      25.115  75.234  -0.915  1.00  0.00     0.187 HD
HETATM   34  O1  UNL     1      24.151  73.911  -2.733  1.00  0.00    -0.265 OA
HETATM   35  C15 UNL     1      25.877  74.699  -4.092  1.00  0.00     0.200 A 
BRANCH  29  36
HETATM   36  N8  UNL     1      27.115  76.702  -0.859  1.00  0.00    -0.234 N 
ATOM     37  H82 UNL     1      27.613  77.582  -0.995  1.00  0.00     0.174 HD
ATOM     38  H81 UNL     1      26.947  76.344   0.081  1.00  0.00     0.174 HD
ENDBRANCH  29  36
BRANCH  35  39
HETATM   39  N10 UNL     1      25.279  73.904  -5.098  1.00  0.00    -0.107 N 
HETATM   40  O2  UNL     1      24.560  74.444  -5.946  1.00  0.00    -0.531 OA
HETATM   41  O3  UNL     1      25.552  72.578  -5.170  1.00  0.00    -0.531 OA
ENDBRANCH  35  39
ENDBRANCH   1  27
TORSDOF 7
ENDMDL
MODEL 3
REMARK VINA RESULT: -8.664727889      3.498      6.026
REMARK  7 active torsions:
REMARK  status: ('A' for Active; 'I' for Inactive)
REMARK    1  A    between atoms: C4_7  and  N3_8 
REMARK    2  A    between atoms: N3_8  and  C5_10 
REMARK    3  A    between atoms: C5_10  and  C6_11 
REMARK    4  A    between atoms: C5_10  and  C12_21 
REMARK    5  A    between atoms: C6_11  and  N4_12 
REMARK    6  A    between atoms: C13_24  and  N8_25 
REMARK    7  A    between atoms: C15_32  and  N10_33 
ROOT
HETATM    1  C5  UNL     1      27.207  74.003  -4.118  1.00  0.00     0.059 C 
ENDROOT
BRANCH   1   2
HETATM    2  N3  UNL     1      27.190  74.993  -5.105  1.00  0.00    -0.341 N 
ATOM      3  H3  UNL     1      26.266  75.081  -5.529  1.00  0.00     0.167 HD
BRANCH   2   4
HETATM    4  C4  UNL     1      27.995  75.792  -5.605  1.00  0.00     0.137 A 
HETATM    5  C3  UNL     1      28.104  77.114  -5.294  1.00  0.00     0.122 A 
HETATM    6  N2  UNL     1      27.488  77.982  -4.480  1.00  0.00    -0.346 N 
HETATM    7  C17 UNL     1      29.081  77.904  -5.923  1.00  0.00     0.140 A 
HETATM    8  C2  UNL     1      28.015  79.196  -4.579  1.00  0.00     0.184 A 
ATOM      9  H2  UNL     1      26.713  77.741  -3.862  1.00  0.00     0.167 HD
HETATM   10  N1  UNL     1      29.014  79.168  -5.479  1.00  0.00    -0.332 N 
HETATM   11  C1  UNL     1      29.837  80.301  -5.867  1.00  0.00     0.158 C 
HETATM   12  N12 UNL     1      29.926  77.373  -6.845  1.00  0.00    -0.336 N 
HETATM   13  C16 UNL     1      29.792  76.082  -7.126  1.00  0.00     0.183 A 
ATOM     14  H12 UNL     1      30.635  77.945  -7.303  1.00  0.00     0.168 HD
HETATM   15  N11 UNL     1      28.870  75.313  -6.539  1.00  0.00    -0.337 N 
ATOM     16  H11 UNL     1      28.818  74.328  -6.798  1.00  0.00     0.168 HD
ENDBRANCH   2   4
ENDBRANCH   1   2
BRANCH   1  17
HETATM   17  C6  UNL     1      26.037  73.058  -4.188  1.00  0.00     0.185 C 
BRANCH  17  18
HETATM   18  N4  UNL     1      24.919  73.374  -3.387  1.00  0.00    -0.350 N 
HETATM   19  C7  UNL     1      24.834  73.038  -1.976  1.00  0.00     0.126 C 
HETATM   20  C8  UNL     1      23.877  73.850  -1.184  1.00  0.00     0.021 C 
HETATM   21  C9  UNL     1      22.440  73.691  -1.427  1.00  0.00     0.021 C 
HETATM   22  C10 UNL     1      21.980  73.184  -2.744  1.00  0.00     0.122 C 
HETATM   23  N5  UNL     1      22.569  74.040  -3.788  1.00  0.00    -0.365 N 
HETATM   24  C11 UNL     1      23.863  74.081  -4.023  1.00  0.00     0.186 C 
ATOM     25  H5  UNL     1      21.949  74.623  -4.350  1.00  0.00     0.162 HD
HETATM   26  N6  UNL     1      24.197  75.003  -5.077  1.00  0.00    -0.064 NA
ENDBRANCH  17  18
ENDBRANCH   1  17
BRANCH   1  27
HETATM   27  C12 UNL     1      27.663  74.399  -2.803  1.00  0.00     0.112 A 
HETATM   28  N7  UNL     1      27.231  75.543  -2.226  1.00  0.00    -0.187 N 
HETATM   29  C13 UNL     1      27.549  75.932  -0.971  1.00  0.00     0.679 A 
ATOM     30  H7  UNL     1      26.624  76.153  -2.774  1.00  0.00     0.184 HD
HETATM   31  N9  UNL     1      28.330  75.180  -0.217  1.00  0.00    -0.154 N 
HETATM   32  C14 UNL     1      28.805  74.036  -0.699  1.00  0.00     0.295 A 
ATOM     33  H9  UNL     1      28.567  75.475   0.731  1.00  0.00     0.187 HD
HETATM   34  O1  UNL     1      29.544  73.343   0.038  1.00  0.00    -0.265 OA
HETATM   35  C15 UNL     1      28.472  73.629  -2.016  1.00  0.00     0.200 A 
BRANCH  29  36
HETATM   36  N8  UNL     1      27.089  77.055  -0.485  1.00  0.00    -0.234 N 
ATOM     37  H82 UNL     1      27.537  77.932  -0.752  1.00  0.00     0.174 HD
ATOM     38  H81 UNL     1      26.293  77.057   0.155  1.00  0.00     0.174 HD
ENDBRANCH  29  36
BRANCH  35  39
HETATM   39  N10 UNL     1      29.077  72.398  -2.361  1.00  0.00    -0.107 N 
HETATM   40  O2  UNL     1      28.767  71.377  -1.736  1.00  0.00    -0.531 OA
HETATM   41  O3  UNL     1      29.930  72.329  -3.412  1.00  0.00    -0.531 OA
ENDBRANCH  35  39
ENDBRANCH   1  27
TORSDOF 7
ENDMDL
MODEL 4
REMARK VINA RESULT: -8.616952502      2.327      6.349
REMARK  7 active torsions:
REMARK  status: ('A' for Active; 'I' for Inactive)
REMARK    1  A    between atoms: C4_7  and  N3_8 
REMARK    2  A    between atoms: N3_8  and  C5_10 
REMARK    3  A    between atoms: C5_10  and  C6_11 
REMARK    4  A    between atoms: C5_10  and  C12_21 
REMARK    5  A    between atoms: C6_11  and  N4_12 
REMARK    6  A    between atoms: C13_24  and  N8_25 
REMARK    7  A    between atoms: C15_32  and  N10_33 
ROOT
HETATM    1  C5  UNL     1      28.433  74.954  -5.473  1.00  0.00     0.059 C 
ENDROOT
BRANCH   1   2
HETATM    2  N3  UNL     1      28.017  74.461  -4.233  1.00  0.00    -0.341 N 
ATOM      3  H3  UNL     1      27.694  73.495  -4.305  1.00  0.00     0.167 HD
BRANCH   2   4
HETATM    4  C4  UNL     1      27.934  74.879  -3.069  1.00  0.00     0.137 A 
HETATM    5  C3  UNL     1      28.414  74.252  -1.960  1.00  0.00     0.122 A 
HETATM    6  N2  UNL     1      29.050  73.105  -1.681  1.00  0.00    -0.346 N 
HETATM    7  C17 UNL     1      28.272  74.853  -0.698  1.00  0.00     0.140 A 
HETATM    8  C2  UNL     1      29.287  72.987  -0.381  1.00  0.00     0.184 A 
ATOM      9  H2  UNL     1      29.317  72.411  -2.379  1.00  0.00     0.167 HD
HETATM   10  N1  UNL     1      28.807  74.071   0.253  1.00  0.00    -0.332 N 
HETATM   11  C1  UNL     1      28.873  74.315   1.684  1.00  0.00     0.158 C 
HETATM   12  N12 UNL     1      27.659  76.057  -0.559  1.00  0.00    -0.336 N 
HETATM   13  C16 UNL     1      27.200  76.641  -1.660  1.00  0.00     0.183 A 
ATOM     14  H12 UNL     1      27.554  76.494   0.357  1.00  0.00     0.168 HD
HETATM   15  N11 UNL     1      27.326  76.086  -2.870  1.00  0.00    -0.337 N 
ATOM     16  H11 UNL     1      26.953  76.585  -3.678  1.00  0.00     0.168 HD
ENDBRANCH   2   4
ENDBRANCH   1   2
BRANCH   1  17
HETATM   17  C6  UNL     1      27.557  76.055  -6.012  1.00  0.00     0.185 C 
BRANCH  17  18
HETATM   18  N4  UNL     1      28.126  77.345  -6.068  1.00  0.00    -0.350 N 
HETATM   19  C7  UNL     1      29.186  77.705  -6.995  1.00  0.00     0.126 C 
HETATM   20  C8  UNL     1      29.316  79.155  -7.282  1.00  0.00     0.021 C 
HETATM   21  C9  UNL     1      29.782  80.052  -6.221  1.00  0.00     0.021 C 
HETATM   22  C10 UNL     1      29.602  79.649  -4.803  1.00  0.00     0.122 C 
HETATM   23  N5  UNL     1      28.178  79.337  -4.600  1.00  0.00    -0.365 N 
HETATM   24  C11 UNL     1      27.586  78.316  -5.180  1.00  0.00     0.186 C 
ATOM     25  H5  UNL     1      27.629  79.937  -3.984  1.00  0.00     0.162 HD
HETATM   26  N6  UNL     1      26.190  78.228  -4.841  1.00  0.00    -0.064 NA
ENDBRANCH  17  18
ENDBRANCH   1  17
BRANCH   1  27
HETATM   27  C12 UNL     1      28.947  73.990  -6.422  1.00  0.00     0.112 A 
HETATM   28  N7  UNL     1      29.086  74.300  -7.730  1.00  0.00    -0.187 N 
HETATM   29  C13 UNL     1      29.635  73.480  -8.654  1.00  0.00     0.679 A 
ATOM     30  H7  UNL     1      28.756  75.214  -8.041  1.00  0.00     0.184 HD
HETATM   31  N9  UNL     1      30.080  72.287  -8.307  1.00  0.00    -0.154 N 
HETATM   32  C14 UNL     1      29.985  71.893  -7.041  1.00  0.00     0.295 A 
ATOM     33  H9  UNL     1      30.496  71.671  -9.006  1.00  0.00     0.187 HD
HETATM   34  O1  UNL     1      30.416  70.755  -6.740  1.00  0.00    -0.265 OA
HETATM   35  C15 UNL     1      29.408  72.752  -6.073  1.00  0.00     0.200 A 
BRANCH  29  36
HETATM   36  N8  UNL     1      29.734  73.856  -9.904  1.00  0.00    -0.234 N 
ATOM     37  H82 UNL     1      29.171  73.381 -10.609  1.00  0.00     0.174 HD
ATOM     38  H81 UNL     1      30.366  74.611 -10.170  1.00  0.00     0.174 HD
ENDBRANCH  29  36
BRANCH  35  39
HETATM   39  N10 UNL     1      29.380  72.162  -4.788  1.00  0.00    -0.107 N 
HETATM   40  O2  UNL     1      30.354  72.297  -4.039  1.00  0.00    -0.531 OA
HETATM   41  O3  UNL     1      28.266  71.519  -4.358  1.00  0.00    -0.531 OA
ENDBRANCH  35  39
ENDBRANCH   1  27
TORSDOF 7
ENDMDL
MODEL 5
REMARK VINA RESULT: -8.613805632      2.948      6.596
REMARK  7 active torsions:
REMARK  status: ('A' for Active; 'I' for Inactive)
REMARK    1  A    between atoms: C4_7  and  N3_8 
REMARK    2  A    between atoms: N3_8  and  C5_10 
REMARK    3  A    between atoms: C5_10  and  C6_11 
REMARK    4  A    between atoms: C5_10  and  C12_21 
REMARK    5  A    between atoms: C6_11  and  N4_12 
REMARK    6  A    between atoms: C13_24  and  N8_25 
REMARK    7  A    between atoms: C15_32  and  N10_33 
ROOT
HETATM    1  C5  UNL     1      27.736  75.787  -5.244  1.00  0.00     0.059 C 
ENDROOT
BRANCH   1   2
HETATM    2  N3  UNL     1      27.089  75.736  -4.005  1.00  0.00    -0.341 N 
ATOM      3  H3  UNL     1      26.075  75.777  -4.112  1.00  0.00     0.167 HD
BRANCH   2   4
HETATM    4  C4  UNL     1      27.415  75.655  -2.812  1.00  0.00     0.137 A 
HETATM    5  C3  UNL     1      28.047  74.600  -2.228  1.00  0.00     0.122 A 
HETATM    6  N2  UNL     1      28.491  73.393  -2.606  1.00  0.00    -0.346 N 
HETATM    7  C17 UNL     1      28.381  74.650  -0.864  1.00  0.00     0.140 A 
HETATM    8  C2  UNL     1      29.049  72.743  -1.593  1.00  0.00     0.184 A 
ATOM      9  H2  UNL     1      28.412  73.021  -3.553  1.00  0.00     0.167 HD
HETATM   10  N1  UNL     1      28.989  73.513  -0.491  1.00  0.00    -0.332 N 
HETATM   11  C1  UNL     1      29.494  73.154   0.822  1.00  0.00     0.158 C 
HETATM   12  N12 UNL     1      28.083  75.738  -0.108  1.00  0.00    -0.336 N 
HETATM   13  C16 UNL     1      27.466  76.750  -0.708  1.00  0.00     0.183 A 
ATOM     14  H12 UNL     1      28.324  75.776   0.882  1.00  0.00     0.168 HD
HETATM   15  N11 UNL     1      27.140  76.722  -2.004  1.00  0.00    -0.337 N 
ATOM     16  H11 UNL     1      26.667  77.531  -2.407  1.00  0.00     0.168 HD
ENDBRANCH   2   4
ENDBRANCH   1   2
BRANCH   1  17
HETATM   17  C6  UNL     1      27.453  77.045  -6.023  1.00  0.00     0.185 C 
BRANCH  17  18
HETATM   18  N4  UNL     1      28.382  78.098  -5.883  1.00  0.00    -0.350 N 
HETATM   19  C7  UNL     1      28.321  79.072  -4.806  1.00  0.00     0.126 C 
HETATM   20  C8  UNL     1      29.596  79.770  -4.505  1.00  0.00     0.021 C 
HETATM   21  C9  UNL     1      30.137  80.716  -5.485  1.00  0.00     0.021 C 
HETATM   22  C10 UNL     1      29.754  80.577  -6.913  1.00  0.00     0.122 C 
HETATM   23  N5  UNL     1      30.061  79.200  -7.330  1.00  0.00    -0.365 N 
HETATM   24  C11 UNL     1      29.428  78.154  -6.845  1.00  0.00     0.186 C 
ATOM     25  H5  UNL     1      30.794  79.050  -8.024  1.00  0.00     0.162 HD
HETATM   26  N6  UNL     1      29.917  76.915  -7.393  1.00  0.00    -0.064 NA
ENDBRANCH  17  18
ENDBRANCH   1  17
BRANCH   1  27
HETATM   27  C12 UNL     1      27.821  74.550  -5.989  1.00  0.00     0.112 A 
HETATM   28  N7  UNL     1      28.892  74.272  -6.766  1.00  0.00    -0.187 N 
HETATM   29  C13 UNL     1      29.076  73.105  -7.422  1.00  0.00     0.679 A 
ATOM     30  H7  UNL     1      29.609  74.992  -6.864  1.00  0.00     0.184 HD
HETATM   31  N9  UNL     1      28.181  72.139  -7.330  1.00  0.00    -0.154 N 
HETATM   32  C14 UNL     1      27.093  72.320  -6.588  1.00  0.00     0.295 A 
ATOM     33  H9  UNL     1      28.324  71.258  -7.824  1.00  0.00     0.187 HD
HETATM   34  O1  UNL     1      26.259  71.387  -6.519  1.00  0.00    -0.265 OA
HETATM   35  C15 UNL     1      26.899  73.545  -5.902  1.00  0.00     0.200 A 
BRANCH  29  36
HETATM   36  N8  UNL     1      30.143  72.914  -8.155  1.00  0.00    -0.234 N 
ATOM     37  H82 UNL     1      30.102  73.125  -9.153  1.00  0.00     0.174 HD
ATOM     38  H81 UNL     1      31.003  72.557  -7.738  1.00  0.00     0.174 HD
ENDBRANCH  29  36
BRANCH  35  39
HETATM   39  N10 UNL     1      25.685  73.563  -5.177  1.00  0.00    -0.107 N 
HETATM   40  O2  UNL     1      25.624  72.986  -4.085  1.00  0.00    -0.531 OA
HETATM   41  O3  UNL     1      24.623  74.266  -5.643  1.00  0.00    -0.531 OA
ENDBRANCH  35  39
ENDBRANCH   1  27
TORSDOF 7
ENDMDL
