MODEL 1
REMARK VINA RESULT: -9.704601041      0.000      0.000
REMARK  6 active torsions:
REMARK  status: ('A' for Active; 'I' for Inactive)
REMARK    1  A    between atoms: N1_1  and  C1_4 
REMARK    2  A    between atoms: N5_16  and  C6_17 
REMARK    3  A    between atoms: C7_22  and  C8_23 
REMARK    4  A    between atoms: C8_23  and  N8_24 
REMARK    5  A    between atoms: C13_32  and  N10_33 
REMARK    6  A    between atoms: C15_35  and  C16_36 
ROOT
HETATM    1  C6  UNL     1      22.894  74.252   1.567  1.00  0.00     0.198 A 
HETATM    2  N6  UNL     1      24.175  73.888   1.435  1.00  0.00    -0.281 N 
ATOM      3  H6  UNL     1      24.763  73.894   2.270  1.00  0.00     0.188 HD
HETATM    4  N7  UNL     1      24.728  73.521   0.292  1.00  0.00    -0.299 N 
ATOM      5  H7  UNL     1      25.712  73.254   0.247  1.00  0.00     0.186 HD
HETATM    6  C7  UNL     1      23.964  73.509  -0.805  1.00  0.00     0.087 A 
HETATM    7  C13 UNL     1      22.613  73.876  -0.759  1.00  0.00     0.135 A 
HETATM    8  C18 UNL     1      22.086  74.249   0.451  1.00  0.00     0.248 A 
HETATM    9  O3  UNL     1      20.864  74.589   0.534  1.00  0.00    -0.282 OA
ENDROOT
BRANCH   1  10
HETATM   10  N5  UNL     1      22.326  74.645   2.822  1.00  0.00    -0.110 N 
HETATM   11  C1  UNL     1      22.869  75.600   3.589  1.00  0.00     0.688 A 
HETATM   12  N2  UNL     1      22.343  75.968   4.760  1.00  0.00    -0.154 N 
HETATM   13  C2  UNL     1      21.225  75.395   5.243  1.00  0.00     0.290 A 
ATOM     14  H2  UNL     1      22.801  76.702   5.301  1.00  0.00     0.187 HD
HETATM   15  O1  UNL     1      20.716  75.732   6.348  1.00  0.00    -0.265 OA
HETATM   16  C3  UNL     1      20.643  74.402   4.465  1.00  0.00     0.148 A 
HETATM   17  N3  UNL     1      19.534  73.669   4.701  1.00  0.00    -0.345 N 
HETATM   18  C5  UNL     1      21.209  74.042   3.259  1.00  0.00     0.164 A 
HETATM   19  C4  UNL     1      19.416  72.858   3.640  1.00  0.00     0.182 A 
ATOM     20  H3  UNL     1      18.917  73.722   5.512  1.00  0.00     0.167 HD
HETATM   21  N4  UNL     1      20.419  73.074   2.767  1.00  0.00    -0.336 N 
ATOM     22  H4  UNL     1      20.555  72.586   1.882  1.00  0.00     0.168 HD
BRANCH  11  23
HETATM   23  N1  UNL     1      23.944  76.192   3.188  1.00  0.00    -0.234 N 
ATOM     24  H12 UNL     1      24.764  76.197   3.795  1.00  0.00     0.174 HD
ATOM     25  H11 UNL     1      23.935  76.639   2.271  1.00  0.00     0.174 HD
ENDBRANCH  11  23
ENDBRANCH   1  10
BRANCH   7  26
HETATM   26  N10 UNL     1      21.794  73.867  -1.923  1.00  0.00    -0.261 N 
HETATM   27  C14 UNL     1      22.070  74.671  -2.987  1.00  0.00     0.132 A 
HETATM   28  C15 UNL     1      21.113  74.450  -3.965  1.00  0.00     0.036 A 
HETATM   29  C17 UNL     1      20.276  73.502  -3.447  1.00  0.00     0.123 A 
HETATM   30  N11 UNL     1      20.728  73.188  -2.226  1.00  0.00    -0.304 N 
ATOM     31  H11 UNL     1      20.291  72.503  -1.611  1.00  0.00     0.186 HD
BRANCH  28  32
HETATM   32  C16 UNL     1      21.073  75.127  -5.251  1.00  0.00     0.272 C 
HETATM   33  O2  UNL     1      22.067  75.748  -5.701  1.00  0.00    -0.301 OA
ENDBRANCH  28  32
ENDBRANCH   7  26
BRANCH   6  34
HETATM   34  C8  UNL     1      24.461  73.138  -2.133  1.00  0.00     0.333 C 
BRANCH  34  35
HETATM   35  N8  UNL     1      25.777  73.551  -2.476  1.00  0.00     0.097 N 
HETATM   36  C9  UNL     1      25.738  75.025  -2.493  1.00  0.00     0.300 C 
HETATM   37  C10 UNL     1      26.881  75.617  -3.249  1.00  0.00     0.262 C 
HETATM   38  N9  UNL     1      26.647  75.443  -4.654  1.00  0.00    -0.072 N 
HETATM   39  C11 UNL     1      25.800  74.276  -4.809  1.00  0.00     0.262 C 
ATOM     40  H92 UNL     1      26.263  76.276  -5.100  1.00  0.00     0.277 HD
ATOM     41  H91 UNL     1      27.508  75.386  -5.198  1.00  0.00     0.277 HD
HETATM   42  C12 UNL     1      26.162  73.181  -3.828  1.00  0.00     0.300 C 
ENDBRANCH  34  35
ENDBRANCH   6  34
TORSDOF 6
ENDMDL
MODEL 2
REMARK VINA RESULT: -9.453500732      2.620      4.253
REMARK  6 active torsions:
REMARK  status: ('A' for Active; 'I' for Inactive)
REMARK    1  A    between atoms: N1_1  and  C1_4 
REMARK    2  A    between atoms: N5_16  and  C6_17 
REMARK    3  A    between atoms: C7_22  and  C8_23 
REMARK    4  A    between atoms: C8_23  and  N8_24 
REMARK    5  A    between atoms: C13_32  and  N10_33 
REMARK    6  A    between atoms: C15_35  and  C16_36 
ROOT
HETATM    1  C6  UNL     1      23.004  74.237   1.192  1.00  0.00     0.198 A 
HETATM    2  N6  UNL     1      22.393  74.386   0.010  1.00  0.00    -0.281 N 
ATOM      3  H6  UNL     1      21.417  74.684   0.011  1.00  0.00     0.188 HD
HETATM    4  N7  UNL     1      22.974  74.170  -1.158  1.00  0.00    -0.299 N 
ATOM      5  H7  UNL     1      22.460  74.297  -2.030  1.00  0.00     0.186 HD
HETATM    6  C7  UNL     1      24.252  73.780  -1.166  1.00  0.00     0.087 A 
HETATM    7  C13 UNL     1      24.969  73.599   0.024  1.00  0.00     0.135 A 
HETATM    8  C18 UNL     1      24.322  73.835   1.211  1.00  0.00     0.248 A 
HETATM    9  O3  UNL     1      24.938  73.682   2.312  1.00  0.00    -0.282 OA
ENDROOT
BRANCH   1  10
HETATM   10  N5  UNL     1      22.345  74.479   2.440  1.00  0.00    -0.110 N 
HETATM   11  C1  UNL     1      22.819  75.345   3.347  1.00  0.00     0.688 A 
HETATM   12  N2  UNL     1      22.208  75.573   4.512  1.00  0.00    -0.154 N 
HETATM   13  C2  UNL     1      21.069  74.939   4.847  1.00  0.00     0.290 A 
ATOM     14  H2  UNL     1      22.615  76.244   5.164  1.00  0.00     0.187 HD
HETATM   15  O1  UNL     1      20.481  75.144   5.945  1.00  0.00    -0.265 OA
HETATM   16  C3  UNL     1      20.558  74.036   3.923  1.00  0.00     0.148 A 
HETATM   17  N3  UNL     1      19.448  73.272   3.997  1.00  0.00    -0.345 N 
HETATM   18  C5  UNL     1      21.211  73.821   2.727  1.00  0.00     0.164 A 
HETATM   19  C4  UNL     1      19.415  72.586   2.846  1.00  0.00     0.182 A 
ATOM     20  H3  UNL     1      18.776  73.226   4.764  1.00  0.00     0.167 HD
HETATM   21  N4  UNL     1      20.472  72.909   2.075  1.00  0.00    -0.336 N 
ATOM     22  H4  UNL     1      20.676  72.526   1.152  1.00  0.00     0.168 HD
BRANCH  11  23
HETATM   23  N1  UNL     1      23.908  75.989   3.091  1.00  0.00    -0.234 N 
ATOM     24  H12 UNL     1      24.548  76.204   3.855  1.00  0.00     0.174 HD
ATOM     25  H11 UNL     1      24.093  76.262   2.126  1.00  0.00     0.174 HD
ENDBRANCH  11  23
ENDBRANCH   1  10
BRANCH   7  26
HETATM   26  N10 UNL     1      26.330  73.183   0.024  1.00  0.00    -0.261 N 
HETATM   27  C14 UNL     1      27.247  73.767   0.844  1.00  0.00     0.132 A 
HETATM   28  C15 UNL     1      28.477  73.164   0.629  1.00  0.00     0.036 A 
HETATM   29  C17 UNL     1      28.254  72.218  -0.333  1.00  0.00     0.123 A 
HETATM   30  N11 UNL     1      26.957  72.271  -0.658  1.00  0.00    -0.304 N 
ATOM     31  H11 UNL     1      26.515  71.671  -1.354  1.00  0.00     0.186 HD
BRANCH  28  32
HETATM   32  C16 UNL     1      29.705  73.519   1.321  1.00  0.00     0.272 C 
HETATM   33  O2  UNL     1      29.782  74.542   2.044  1.00  0.00    -0.301 OA
ENDBRANCH  28  32
ENDBRANCH   7  26
BRANCH   6  34
HETATM   34  C8  UNL     1      25.004  73.494  -2.391  1.00  0.00     0.333 C 
BRANCH  34  35
HETATM   35  N8  UNL     1      25.371  74.601  -3.204  1.00  0.00     0.097 N 
HETATM   36  C9  UNL     1      26.146  74.033  -4.322  1.00  0.00     0.300 C 
HETATM   37  C10 UNL     1      26.975  75.059  -5.021  1.00  0.00     0.262 C 
HETATM   38  N9  UNL     1      28.106  75.379  -4.199  1.00  0.00    -0.072 N 
HETATM   39  C11 UNL     1      27.728  75.120  -2.824  1.00  0.00     0.262 C 
ATOM     40  H92 UNL     1      28.954  74.886  -4.479  1.00  0.00     0.277 HD
ATOM     41  H91 UNL     1      28.451  76.328  -4.346  1.00  0.00     0.277 HD
HETATM   42  C12 UNL     1      26.293  75.515  -2.549  1.00  0.00     0.300 C 
ENDBRANCH  34  35
ENDBRANCH   6  34
TORSDOF 6
ENDMDL
MODEL 3
REMARK VINA RESULT: -9.163362465      5.028     10.572
REMARK  6 active torsions:
REMARK  status: ('A' for Active; 'I' for Inactive)
REMARK    1  A    between atoms: N1_1  and  C1_4 
REMARK    2  A    between atoms: N5_16  and  C6_17 
REMARK    3  A    between atoms: C7_22  and  C8_23 
REMARK    4  A    between atoms: C8_23  and  N8_24 
REMARK    5  A    between atoms: C13_32  and  N10_33 
REMARK    6  A    between atoms: C15_35  and  C16_36 
ROOT
HETATM    1  C6  UNL     1      28.291  71.822  -5.058  1.00  0.00     0.198 A 
HETATM    2  N6  UNL     1      27.015  71.865  -5.460  1.00  0.00    -0.281 N 
ATOM      3  H6  UNL     1      26.767  71.370  -6.317  1.00  0.00     0.188 HD
HETATM    4  N7  UNL     1      26.056  72.508  -4.817  1.00  0.00    -0.299 N 
ATOM      5  H7  UNL     1      25.098  72.509  -5.169  1.00  0.00     0.186 HD
HETATM    6  C7  UNL     1      26.373  73.157  -3.693  1.00  0.00     0.087 A 
HETATM    7  C13 UNL     1      27.684  73.166  -3.198  1.00  0.00     0.135 A 
HETATM    8  C18 UNL     1      28.645  72.484  -3.902  1.00  0.00     0.248 A 
HETATM    9  O3  UNL     1      29.845  72.469  -3.486  1.00  0.00    -0.282 OA
ENDROOT
BRANCH   1  10
HETATM   10  N5  UNL     1      29.307  71.116  -5.778  1.00  0.00    -0.110 N 
HETATM   11  C1  UNL     1      29.815  69.953  -5.349  1.00  0.00     0.688 A 
HETATM   12  N2  UNL     1      30.763  69.291  -6.018  1.00  0.00    -0.154 N 
HETATM   13  C2  UNL     1      31.269  69.760  -7.174  1.00  0.00     0.290 A 
ATOM     14  H2  UNL     1      31.113  68.409  -5.643  1.00  0.00     0.187 HD
HETATM   15  O1  UNL     1      32.166  69.147  -7.817  1.00  0.00    -0.265 OA
HETATM   16  C3  UNL     1      30.758  70.965  -7.639  1.00  0.00     0.148 A 
HETATM   17  N3  UNL     1      31.077  71.657  -8.754  1.00  0.00    -0.345 N 
HETATM   18  C5  UNL     1      29.779  71.626  -6.927  1.00  0.00     0.164 A 
HETATM   19  C4  UNL     1      30.294  72.744  -8.729  1.00  0.00     0.182 A 
ATOM     20  H3  UNL     1      31.766  71.406  -9.463  1.00  0.00     0.167 HD
HETATM   21  N4  UNL     1      29.509  72.736  -7.634  1.00  0.00    -0.336 N 
ATOM     22  H4  UNL     1      28.826  73.450  -7.384  1.00  0.00     0.168 HD
BRANCH  11  23
HETATM   23  N1  UNL     1      29.377  69.444  -4.247  1.00  0.00    -0.234 N 
ATOM     24  H12 UNL     1      29.954  68.767  -3.749  1.00  0.00     0.174 HD
ATOM     25  H11 UNL     1      28.461  69.740  -3.909  1.00  0.00     0.174 HD
ENDBRANCH  11  23
ENDBRANCH   1  10
BRANCH   7  26
HETATM   26  N10 UNL     1      28.030  73.856  -2.002  1.00  0.00    -0.261 N 
HETATM   27  C14 UNL     1      28.561  73.197  -0.936  1.00  0.00     0.132 A 
HETATM   28  C15 UNL     1      28.796  74.115   0.076  1.00  0.00     0.036 A 
HETATM   29  C17 UNL     1      28.390  75.321  -0.426  1.00  0.00     0.123 A 
HETATM   30  N11 UNL     1      27.942  75.109  -1.670  1.00  0.00    -0.304 N 
ATOM     31  H11 UNL     1      27.578  75.840  -2.280  1.00  0.00     0.186 HD
BRANCH  28  32
HETATM   32  C16 UNL     1      29.360  73.789   1.376  1.00  0.00     0.272 C 
HETATM   33  O2  UNL     1      29.776  74.679   2.156  1.00  0.00    -0.301 OA
ENDBRANCH  28  32
ENDBRANCH   7  26
BRANCH   6  34
HETATM   34  C8  UNL     1      25.406  73.919  -2.897  1.00  0.00     0.333 C 
BRANCH  34  35
HETATM   35  N8  UNL     1      24.444  73.180  -2.158  1.00  0.00     0.097 N 
HETATM   36  C9  UNL     1      23.329  74.113  -1.911  1.00  0.00     0.300 C 
HETATM   37  C10 UNL     1      22.445  73.663  -0.795  1.00  0.00     0.262 C 
HETATM   38  N9  UNL     1      23.118  73.896   0.451  1.00  0.00    -0.072 N 
HETATM   39  C11 UNL     1      24.542  73.863   0.185  1.00  0.00     0.262 C 
ATOM     40  H92 UNL     1      22.817  74.756   0.911  1.00  0.00     0.277 HD
ATOM     41  H91 UNL     1      22.833  73.247   1.185  1.00  0.00     0.277 HD
HETATM   42  C12 UNL     1      24.903  72.801  -0.832  1.00  0.00     0.300 C 
ENDBRANCH  34  35
ENDBRANCH   6  34
TORSDOF 6
ENDMDL
MODEL 4
REMARK VINA RESULT: -8.947098887      4.458     10.494
REMARK  6 active torsions:
REMARK  status: ('A' for Active; 'I' for Inactive)
REMARK    1  A    between atoms: N1_1  and  C1_4 
REMARK    2  A    between atoms: N5_16  and  C6_17 
REMARK    3  A    between atoms: C7_22  and  C8_23 
REMARK    4  A    between atoms: C8_23  and  N8_24 
REMARK    5  A    between atoms: C13_32  and  N10_33 
REMARK    6  A    between atoms: C15_35  and  C16_36 
ROOT
HETATM    1  C6  UNL     1      28.156  74.383  -5.658  1.00  0.00     0.198 A 
HETATM    2  N6  UNL     1      26.944  74.948  -5.714  1.00  0.00    -0.281 N 
ATOM      3  H6  UNL     1      26.635  75.329  -6.609  1.00  0.00     0.188 HD
HETATM    4  N7  UNL     1      26.121  75.043  -4.683  1.00  0.00    -0.299 N 
ATOM      5  H7  UNL     1      25.207  75.484  -4.781  1.00  0.00     0.186 HD
HETATM    6  C7  UNL     1      26.520  74.544  -3.509  1.00  0.00     0.087 A 
HETATM    7  C13 UNL     1      27.773  73.937  -3.359  1.00  0.00     0.135 A 
HETATM    8  C18 UNL     1      28.591  73.863  -4.458  1.00  0.00     0.248 A 
HETATM    9  O3  UNL     1      29.735  73.319  -4.363  1.00  0.00    -0.282 OA
ENDROOT
BRANCH   1  10
HETATM   10  N5  UNL     1      29.023  74.297  -6.794  1.00  0.00    -0.110 N 
HETATM   11  C1  UNL     1      29.935  75.237  -7.075  1.00  0.00     0.688 A 
HETATM   12  N2  UNL     1      30.745  75.161  -8.135  1.00  0.00    -0.154 N 
HETATM   13  C2  UNL     1      30.691  74.123  -8.991  1.00  0.00     0.290 A 
ATOM     14  H2  UNL     1      31.421  75.907  -8.298  1.00  0.00     0.187 HD
HETATM   15  O1  UNL     1      31.449  74.038  -9.997  1.00  0.00    -0.265 OA
HETATM   16  C3  UNL     1      29.753  73.136  -8.721  1.00  0.00     0.148 A 
HETATM   17  N3  UNL     1      29.484  72.001  -9.401  1.00  0.00    -0.345 N 
HETATM   18  C5  UNL     1      28.929  73.242  -7.619  1.00  0.00     0.164 A 
HETATM   19  C4  UNL     1      28.496  71.407  -8.718  1.00  0.00     0.182 A 
ATOM     20  H3  UNL     1      29.936  71.667 -10.252  1.00  0.00     0.167 HD
HETATM   21  N4  UNL     1      28.154  72.145  -7.644  1.00  0.00    -0.336 N 
ATOM     22  H4  UNL     1      27.430  71.911  -6.965  1.00  0.00     0.168 HD
BRANCH  11  23
HETATM   23  N1  UNL     1      30.043  76.261  -6.297  1.00  0.00    -0.234 N 
ATOM     24  H12 UNL     1      30.761  76.958  -6.490  1.00  0.00     0.174 HD
ATOM     25  H11 UNL     1      29.399  76.338  -5.509  1.00  0.00     0.174 HD
ENDBRANCH  11  23
ENDBRANCH   1  10
BRANCH   7  26
HETATM   26  N10 UNL     1      28.204  73.405  -2.111  1.00  0.00    -0.261 N 
HETATM   27  C14 UNL     1      28.561  74.222  -1.081  1.00  0.00     0.132 A 
HETATM   28  C15 UNL     1      28.933  73.433  -0.004  1.00  0.00     0.036 A 
HETATM   29  C17 UNL     1      28.785  72.142  -0.429  1.00  0.00     0.123 A 
HETATM   30  N11 UNL     1      28.347  72.183  -1.694  1.00  0.00    -0.304 N 
ATOM     31  H11 UNL     1      28.150  71.357  -2.259  1.00  0.00     0.186 HD
BRANCH  28  32
HETATM   32  C16 UNL     1      29.379  73.945   1.282  1.00  0.00     0.272 C 
HETATM   33  O2  UNL     1      29.213  75.146   1.606  1.00  0.00    -0.301 OA
ENDBRANCH  28  32
ENDBRANCH   7  26
BRANCH   6  34
HETATM   34  C8  UNL     1      25.708  74.600  -2.289  1.00  0.00     0.333 C 
BRANCH  34  35
HETATM   35  N8  UNL     1      24.721  73.593  -2.116  1.00  0.00     0.097 N 
HETATM   36  C9  UNL     1      23.432  74.306  -2.059  1.00  0.00     0.300 C 
HETATM   37  C10 UNL     1      22.349  73.479  -1.449  1.00  0.00     0.262 C 
HETATM   38  N9  UNL     1      22.553  73.421  -0.031  1.00  0.00    -0.072 N 
HETATM   39  C11 UNL     1      23.971  73.603   0.209  1.00  0.00     0.262 C 
ATOM     40  H92 UNL     1      21.973  74.084   0.483  1.00  0.00     0.277 HD
ATOM     41  H91 UNL     1      22.184  72.568   0.391  1.00  0.00     0.277 HD
HETATM   42  C12 UNL     1      24.815  72.908  -0.838  1.00  0.00     0.300 C 
ENDBRANCH  34  35
ENDBRANCH   6  34
TORSDOF 6
ENDMDL
MODEL 5
REMARK VINA RESULT: -8.917141715      5.146     10.708
REMARK  6 active torsions:
REMARK  status: ('A' for Active; 'I' for Inactive)
REMARK    1  A    between atoms: N1_1  and  C1_4 
REMARK    2  A    between atoms: N5_16  and  C6_17 
REMARK    3  A    between atoms: C7_22  and  C8_23 
REMARK    4  A    between atoms: C8_23  and  N8_24 
REMARK    5  A    between atoms: C13_32  and  N10_33 
REMARK    6  A    between atoms: C15_35  and  C16_36 
ROOT
HETATM    1  C6  UNL     1      28.393  71.592  -5.484  1.00  0.00     0.198 A 
HETATM    2  N6  UNL     1      27.144  71.540  -5.963  1.00  0.00    -0.281 N 
ATOM      3  H6  UNL     1      26.973  70.965  -6.788  1.00  0.00     0.188 HD
HETATM    4  N7  UNL     1      26.119  72.187  -5.435  1.00  0.00    -0.299 N 
ATOM      5  H7  UNL     1      25.187  72.113  -5.842  1.00  0.00     0.186 HD
HETATM    6  C7  UNL     1      26.337  72.941  -4.354  1.00  0.00     0.087 A 
HETATM    7  C13 UNL     1      27.612  73.054  -3.785  1.00  0.00     0.135 A 
HETATM    8  C18 UNL     1      28.644  72.363  -4.370  1.00  0.00     0.248 A 
HETATM    9  O3  UNL     1      29.816  72.440  -3.883  1.00  0.00    -0.282 OA
ENDROOT
BRANCH   1  10
HETATM   10  N5  UNL     1      29.482  70.878  -6.080  1.00  0.00    -0.110 N 
HETATM   11  C1  UNL     1      30.025  69.792  -5.514  1.00  0.00     0.688 A 
HETATM   12  N2  UNL     1      31.041  69.124  -6.066  1.00  0.00    -0.154 N 
HETATM   13  C2  UNL     1      31.585  69.508  -7.237  1.00  0.00     0.290 A 
ATOM     14  H2  UNL     1      31.414  68.303  -5.590  1.00  0.00     0.187 HD
HETATM   15  O1  UNL     1      32.546  68.888  -7.771  1.00  0.00    -0.265 OA
HETATM   16  C3  UNL     1      31.039  70.632  -7.843  1.00  0.00     0.148 A 
HETATM   17  N3  UNL     1      31.382  71.232  -9.002  1.00  0.00    -0.345 N 
HETATM   18  C5  UNL     1      29.989  71.302  -7.248  1.00  0.00     0.164 A 
HETATM   19  C4  UNL     1      30.545  72.271  -9.124  1.00  0.00     0.182 A 
ATOM     20  H3  UNL     1      32.122  70.954  -9.649  1.00  0.00     0.167 HD
HETATM   21  N4  UNL     1      29.702  72.323  -8.073  1.00  0.00    -0.336 N 
ATOM     22  H4  UNL     1      28.970  73.018  -7.929  1.00  0.00     0.168 HD
BRANCH  11  23
HETATM   23  N1  UNL     1      29.553  69.367  -4.390  1.00  0.00    -0.234 N 
ATOM     24  H12 UNL     1      29.212  70.043  -3.708  1.00  0.00     0.174 HD
ATOM     25  H11 UNL     1      29.538  68.360  -4.223  1.00  0.00     0.174 HD
ENDBRANCH  11  23
ENDBRANCH   1  10
BRANCH   7  26
HETATM   26  N10 UNL     1      27.852  73.856  -2.634  1.00  0.00    -0.261 N 
HETATM   27  C14 UNL     1      28.213  73.295  -1.446  1.00  0.00     0.132 A 
HETATM   28  C15 UNL     1      28.378  74.309  -0.514  1.00  0.00     0.036 A 
HETATM   29  C17 UNL     1      28.105  75.468  -1.186  1.00  0.00     0.123 A 
HETATM   30  N11 UNL     1      27.798  75.140  -2.447  1.00  0.00    -0.304 N 
ATOM     31  H11 UNL     1      27.551  75.815  -3.171  1.00  0.00     0.186 HD
BRANCH  28  32
HETATM   32  C16 UNL     1      28.762  74.103   0.873  1.00  0.00     0.272 C 
HETATM   33  O2  UNL     1      29.171  75.048   1.590  1.00  0.00    -0.301 OA
ENDBRANCH  28  32
ENDBRANCH   7  26
BRANCH   6  34
HETATM   34  C8  UNL     1      25.290  73.718  -3.685  1.00  0.00     0.333 C 
BRANCH  34  35
HETATM   35  N8  UNL     1      24.170  73.003  -3.179  1.00  0.00     0.097 N 
HETATM   36  C9  UNL     1      23.038  73.372  -4.049  1.00  0.00     0.300 C 
HETATM   37  C10 UNL     1      21.716  73.077  -3.420  1.00  0.00     0.262 C 
HETATM   38  N9  UNL     1      21.456  74.059  -2.407  1.00  0.00    -0.072 N 
HETATM   39  C11 UNL     1      22.738  74.543  -1.935  1.00  0.00     0.262 C 
ATOM     40  H92 UNL     1      20.840  74.807  -2.726  1.00  0.00     0.277 HD
ATOM     41  H91 UNL     1      20.860  73.709  -1.656  1.00  0.00     0.277 HD
HETATM   42  C12 UNL     1      23.764  73.433  -1.851  1.00  0.00     0.300 C 
ENDBRANCH  34  35
ENDBRANCH   6  34
TORSDOF 6
ENDMDL
