MODEL 1
REMARK VINA RESULT: -9.122578344      0.000      0.000
REMARK  7 active torsions:
REMARK  status: ('A' for Active; 'I' for Inactive)
REMARK    1  A    between atoms: C2_3  and  N2_4 
REMARK    2  A    between atoms: C4_6  and  N3_7 
REMARK    3  A    between atoms: C5_9  and  C6_10 
REMARK    4  A    between atoms: C9_20  and  C10_21 
REMARK       I    between atoms: C10_21  and  N7_23 
REMARK    5  A    between atoms: N7_23  and  C11_25 
REMARK    6  A    between atoms: C12_31  and  N11_32 
REMARK    7  A    between atoms: C13_37  and  N14_38 
ROOT
HETATM    1  N1  UNL     1      32.181  66.926  -8.566  1.00  0.00    -0.196 NA
HETATM    2  C1  UNL     1      32.281  68.051  -8.327  1.00  0.00     0.079 C 
HETATM    3  C2  UNL     1      32.419  69.467  -8.014  1.00  0.00     0.251 C 
ENDROOT
BRANCH   3   4
HETATM    4  N2  UNL     1      31.437  69.874  -7.028  1.00  0.00    -0.349 N 
HETATM    5  C3  UNL     1      30.459  70.778  -7.225  1.00  0.00     0.123 A 
HETATM    6  C4  UNL     1      29.710  70.923  -6.077  1.00  0.00     0.082 A 
HETATM    7  C13 UNL     1      30.263  70.066  -5.147  1.00  0.00     0.146 A 
HETATM    8  C14 UNL     1      31.338  69.425  -5.765  1.00  0.00     0.130 A 
BRANCH   6   9
HETATM    9  N3  UNL     1      28.589  71.755  -5.819  1.00  0.00    -0.363 N 
HETATM   10  C5  UNL     1      28.668  73.036  -5.905  1.00  0.00     0.105 C 
ATOM     11  H3  UNL     1      27.699  71.327  -5.561  1.00  0.00     0.165 HD
BRANCH  10  12
HETATM   12  C6  UNL     1      27.441  73.832  -5.617  1.00  0.00     0.237 A 
HETATM   13  N4  UNL     1      27.738  75.228  -5.440  1.00  0.00    -0.348 N 
HETATM   14  C7  UNL     1      27.443  75.622  -4.253  1.00  0.00     0.168 A 
ATOM     15  H4  UNL     1      28.132  75.829  -6.164  1.00  0.00     0.163 HD
HETATM   16  C8  UNL     1      27.424  76.767  -3.317  1.00  0.00     0.147 A 
HETATM   17  N12 UNL     1      26.921  74.526  -3.524  1.00  0.00    -0.217 N 
HETATM   18  N5  UNL     1      27.829  77.933  -3.641  1.00  0.00    -0.382 N 
HETATM   19  N6  UNL     1      26.892  76.247  -2.115  1.00  0.00    -0.320 N 
ATOM     20  H52 UNL     1      28.213  78.307  -4.509  1.00  0.00     0.157 HD
ATOM     21  H51 UNL     1      27.816  78.722  -2.996  1.00  0.00     0.157 HD
HETATM   22  C9  UNL     1      26.607  74.997  -2.219  1.00  0.00     0.197 A 
ATOM     23  H6  UNL     1      26.750  76.797  -1.267  1.00  0.00     0.169 HD
HETATM   24  N13 UNL     1      26.915  73.409  -4.358  1.00  0.00    -0.099 NA
BRANCH  22  25
HETATM   25  C10 UNL     1      26.035  74.140  -1.155  1.00  0.00     0.293 C 
HETATM   26  O1  UNL     1      24.990  73.487  -1.365  1.00  0.00    -0.264 OA
HETATM   27  N7  UNL     1      26.658  74.044   0.118  1.00  0.00    -0.302 N 
ATOM     28  H7  UNL     1      26.254  74.523   0.923  1.00  0.00     0.171 HD
BRANCH  27  29
HETATM   29  C11 UNL     1      27.742  73.344   0.252  1.00  0.00     0.167 A 
HETATM   30  N8  UNL     1      28.039  72.133  -0.271  1.00  0.00    -0.266 N 
HETATM   31  N9  UNL     1      29.258  71.766   0.111  1.00  0.00    -0.019 NA
ATOM     32  H8  UNL     1      27.421  71.583  -0.868  1.00  0.00     0.186 HD
HETATM   33  N10 UNL     1      29.774  72.711   0.877  1.00  0.00    -0.267 N 
HETATM   34  C12 UNL     1      28.870  73.693   0.984  1.00  0.00     0.158 A 
ATOM     35  H10 UNL     1      30.698  72.695   1.310  1.00  0.00     0.186 HD
BRANCH  34  36
HETATM   36  N11 UNL     1      28.966  74.802   1.637  1.00  0.00    -0.382 N 
ATOM     37 2H11 UNL     1      28.261  75.258   2.217  1.00  0.00     0.157 HD
ATOM     38 1H11 UNL     1      29.812  75.372   1.642  1.00  0.00     0.157 HD
ENDBRANCH  34  36
ENDBRANCH  27  29
ENDBRANCH  22  25
ENDBRANCH  10  12
ENDBRANCH   6   9
BRANCH   7  39
HETATM   39  N14 UNL     1      29.804  69.885  -3.805  1.00  0.00    -0.112 N 
HETATM   40  O2  UNL     1      29.796  68.719  -3.332  1.00  0.00    -0.532 OA
HETATM   41  O3  UNL     1      29.395  70.980  -3.092  1.00  0.00    -0.532 OA
ENDBRANCH   7  39
ENDBRANCH   3   4
TORSDOF 7
ENDMDL
MODEL 2
REMARK VINA RESULT: -9.045189713      1.656      2.520
REMARK  7 active torsions:
REMARK  status: ('A' for Active; 'I' for Inactive)
REMARK    1  A    between atoms: C2_3  and  N2_4 
REMARK    2  A    between atoms: C4_6  and  N3_7 
REMARK    3  A    between atoms: C5_9  and  C6_10 
REMARK    4  A    between atoms: C9_20  and  C10_21 
REMARK       I    between atoms: C10_21  and  N7_23 
REMARK    5  A    between atoms: N7_23  and  C11_25 
REMARK    6  A    between atoms: C12_31  and  N11_32 
REMARK    7  A    between atoms: C13_37  and  N14_38 
ROOT
HETATM    1  N1  UNL     1      31.773  67.347  -9.096  1.00  0.00    -0.196 NA
HETATM    2  C1  UNL     1      31.891  68.427  -8.706  1.00  0.00     0.079 C 
HETATM    3  C2  UNL     1      32.054  69.785  -8.204  1.00  0.00     0.251 C 
ENDROOT
BRANCH   3   4
HETATM    4  N2  UNL     1      31.204  70.012  -7.051  1.00  0.00    -0.349 N 
HETATM    5  C3  UNL     1      30.182  70.886  -6.993  1.00  0.00     0.123 A 
HETATM    6  C4  UNL     1      29.593  70.844  -5.747  1.00  0.00     0.082 A 
HETATM    7  C13 UNL     1      30.294  69.901  -5.023  1.00  0.00     0.146 A 
HETATM    8  C14 UNL     1      31.293  69.398  -5.859  1.00  0.00     0.130 A 
BRANCH   6   9
HETATM    9  N3  UNL     1      28.493  71.581  -5.234  1.00  0.00    -0.363 N 
HETATM   10  C5  UNL     1      28.461  72.865  -5.285  1.00  0.00     0.105 C 
ATOM     11  H3  UNL     1      27.709  71.079  -4.815  1.00  0.00     0.165 HD
BRANCH  10  12
HETATM   12  C6  UNL     1      27.267  73.557  -4.722  1.00  0.00     0.237 A 
HETATM   13  N4  UNL     1      27.394  74.988  -4.793  1.00  0.00    -0.348 N 
HETATM   14  C7  UNL     1      27.401  75.516  -3.622  1.00  0.00     0.168 A 
ATOM     15  H4  UNL     1      27.468  75.516  -5.663  1.00  0.00     0.163 HD
HETATM   16  C8  UNL     1      27.485  76.776  -2.852  1.00  0.00     0.147 A 
HETATM   17  N12 UNL     1      27.280  74.488  -2.655  1.00  0.00    -0.217 N 
HETATM   18  N5  UNL     1      27.603  77.919  -3.407  1.00  0.00    -0.382 N 
HETATM   19  N6  UNL     1      27.407  76.383  -1.497  1.00  0.00    -0.320 N 
ATOM     20  H52 UNL     1      27.659  78.203  -4.385  1.00  0.00     0.157 HD
ATOM     21  H51 UNL     1      27.661  78.788  -2.876  1.00  0.00     0.157 HD
HETATM   22  C9  UNL     1      27.291  75.107  -1.375  1.00  0.00     0.197 A 
ATOM     23  H6  UNL     1      27.438  77.031  -0.710  1.00  0.00     0.169 HD
HETATM   24  N13 UNL     1      27.197  73.267  -3.324  1.00  0.00    -0.099 NA
BRANCH  22  25
HETATM   25  C10 UNL     1      27.184  74.357  -0.102  1.00  0.00     0.293 C 
HETATM   26  O1  UNL     1      27.846  74.714   0.897  1.00  0.00    -0.264 OA
HETATM   27  N7  UNL     1      26.335  73.224   0.007  1.00  0.00    -0.302 N 
ATOM     28  H7  UNL     1      26.734  72.285   0.018  1.00  0.00     0.171 HD
BRANCH  27  29
HETATM   29  C11 UNL     1      25.051  73.388   0.093  1.00  0.00     0.167 A 
HETATM   30  N8  UNL     1      24.168  73.688  -0.886  1.00  0.00    -0.266 N 
HETATM   31  N9  UNL     1      22.943  73.768  -0.376  1.00  0.00    -0.019 NA
ATOM     32  H8  UNL     1      24.405  73.830  -1.868  1.00  0.00     0.186 HD
HETATM   33  N10 UNL     1      22.998  73.528   0.922  1.00  0.00    -0.267 N 
HETATM   34  C12 UNL     1      24.277  73.291   1.242  1.00  0.00     0.158 A 
ATOM     35  H10 UNL     1      22.207  73.524   1.566  1.00  0.00     0.186 HD
BRANCH  34  36
HETATM   36  N11 UNL     1      24.774  73.013   2.401  1.00  0.00    -0.382 N 
ATOM     37 2H11 UNL     1      24.424  72.357   3.098  1.00  0.00     0.157 HD
ATOM     38 1H11 UNL     1      25.624  73.451   2.758  1.00  0.00     0.157 HD
ENDBRANCH  34  36
ENDBRANCH  27  29
ENDBRANCH  22  25
ENDBRANCH  10  12
ENDBRANCH   6   9
BRANCH   7  39
HETATM   39  N14 UNL     1      30.029  69.524  -3.669  1.00  0.00    -0.112 N 
HETATM   40  O2  UNL     1      29.602  70.406  -2.880  1.00  0.00    -0.532 OA
HETATM   41  O3  UNL     1      30.250  68.228  -3.288  1.00  0.00    -0.532 OA
ENDBRANCH   7  39
ENDBRANCH   3   4
TORSDOF 7
ENDMDL
MODEL 3
REMARK VINA RESULT: -8.937717072      1.293      1.401
REMARK  7 active torsions:
REMARK  status: ('A' for Active; 'I' for Inactive)
REMARK    1  A    between atoms: C2_3  and  N2_4 
REMARK    2  A    between atoms: C4_6  and  N3_7 
REMARK    3  A    between atoms: C5_9  and  C6_10 
REMARK    4  A    between atoms: C9_20  and  C10_21 
REMARK       I    between atoms: C10_21  and  N7_23 
REMARK    5  A    between atoms: N7_23  and  C11_25 
REMARK    6  A    between atoms: C12_31  and  N11_32 
REMARK    7  A    between atoms: C13_37  and  N14_38 
ROOT
HETATM    1  N1  UNL     1      34.309  66.926  -6.328  1.00  0.00    -0.196 NA
HETATM    2  C1  UNL     1      33.632  67.579  -6.998  1.00  0.00     0.079 C 
HETATM    3  C2  UNL     1      32.791  68.415  -7.843  1.00  0.00     0.251 C 
ENDROOT
BRANCH   3   4
HETATM    4  N2  UNL     1      31.869  69.196  -7.040  1.00  0.00    -0.349 N 
HETATM    5  C3  UNL     1      31.247  70.322  -7.436  1.00  0.00     0.123 A 
HETATM    6  C4  UNL     1      30.446  70.801  -6.422  1.00  0.00     0.082 A 
HETATM    7  C13 UNL     1      30.593  69.923  -5.368  1.00  0.00     0.146 A 
HETATM    8  C14 UNL     1      31.486  68.931  -5.779  1.00  0.00     0.130 A 
BRANCH   6   9
HETATM    9  N3  UNL     1      29.611  71.949  -6.386  1.00  0.00    -0.363 N 
HETATM   10  C5  UNL     1      28.366  71.886  -6.705  1.00  0.00     0.105 C 
ATOM     11  H3  UNL     1      30.007  72.845  -6.101  1.00  0.00     0.165 HD
BRANCH  10  12
HETATM   12  C6  UNL     1      27.565  73.140  -6.638  1.00  0.00     0.237 A 
HETATM   13  N4  UNL     1      28.397  74.312  -6.701  1.00  0.00    -0.348 N 
HETATM   14  C7  UNL     1      28.308  75.008  -5.625  1.00  0.00     0.168 A 
ATOM     15  H4  UNL     1      28.983  74.559  -7.499  1.00  0.00     0.163 HD
HETATM   16  C8  UNL     1      28.765  76.222  -4.916  1.00  0.00     0.147 A 
HETATM   17  N12 UNL     1      27.407  74.368  -4.739  1.00  0.00    -0.217 N 
HETATM   18  N5  UNL     1      29.595  77.049  -5.424  1.00  0.00    -0.382 N 
HETATM   19  N6  UNL     1      28.095  76.194  -3.672  1.00  0.00    -0.320 N 
ATOM     20  H52 UNL     1      30.079  77.069  -6.322  1.00  0.00     0.157 HD
ATOM     21  H51 UNL     1      29.911  77.886  -4.935  1.00  0.00     0.157 HD
HETATM   22  C9  UNL     1      27.333  75.164  -3.562  1.00  0.00     0.197 A 
ATOM     23  H6  UNL     1      28.202  76.906  -2.949  1.00  0.00     0.169 HD
HETATM   24  N13 UNL     1      26.939  73.208  -5.355  1.00  0.00    -0.099 NA
BRANCH  22  25
HETATM   25  C10 UNL     1      26.488  74.821  -2.395  1.00  0.00     0.293 C 
HETATM   26  O1  UNL     1      25.279  74.546  -2.551  1.00  0.00    -0.264 OA
HETATM   27  N7  UNL     1      27.032  74.801  -1.083  1.00  0.00    -0.302 N 
ATOM     28  H7  UNL     1      26.825  75.558  -0.431  1.00  0.00     0.171 HD
BRANCH  27  29
HETATM   29  C11 UNL     1      27.792  73.815  -0.717  1.00  0.00     0.167 A 
HETATM   30  N8  UNL     1      27.838  72.554  -1.204  1.00  0.00    -0.266 N 
HETATM   31  N9  UNL     1      28.759  71.854  -0.550  1.00  0.00    -0.019 NA
ATOM     32  H8  UNL     1      27.253  72.195  -1.959  1.00  0.00     0.186 HD
HETATM   33  N10 UNL     1      29.324  72.627   0.361  1.00  0.00    -0.267 N 
HETATM   34  C12 UNL     1      28.754  73.836   0.285  1.00  0.00     0.158 A 
ATOM     35  H10 UNL     1      30.064  72.351   1.006  1.00  0.00     0.186 HD
BRANCH  34  36
HETATM   36  N11 UNL     1      29.007  74.887   0.991  1.00  0.00    -0.382 N 
ATOM     37 2H11 UNL     1      29.105  75.852   0.676  1.00  0.00     0.157 HD
ATOM     38 1H11 UNL     1      29.143  74.856   2.001  1.00  0.00     0.157 HD
ENDBRANCH  34  36
ENDBRANCH  27  29
ENDBRANCH  22  25
ENDBRANCH  10  12
ENDBRANCH   6   9
BRANCH   7  39
HETATM   39  N14 UNL     1      29.943  70.027  -4.099  1.00  0.00    -0.112 N 
HETATM   40  O2  UNL     1      29.729  68.970  -3.452  1.00  0.00    -0.532 OA
HETATM   41  O3  UNL     1      29.581  71.266  -3.642  1.00  0.00    -0.532 OA
ENDBRANCH   7  39
ENDBRANCH   3   4
TORSDOF 7
ENDMDL
MODEL 4
REMARK VINA RESULT: -8.863157723      1.705      2.623
REMARK  7 active torsions:
REMARK  status: ('A' for Active; 'I' for Inactive)
REMARK    1  A    between atoms: C2_3  and  N2_4 
REMARK    2  A    between atoms: C4_6  and  N3_7 
REMARK    3  A    between atoms: C5_9  and  C6_10 
REMARK    4  A    between atoms: C9_20  and  C10_21 
REMARK       I    between atoms: C10_21  and  N7_23 
REMARK    5  A    between atoms: N7_23  and  C11_25 
REMARK    6  A    between atoms: C12_31  and  N11_32 
REMARK    7  A    between atoms: C13_37  and  N14_38 
ROOT
HETATM    1  N1  UNL     1      32.144  67.310  -8.856  1.00  0.00    -0.196 NA
HETATM    2  C1  UNL     1      32.075  68.429  -8.577  1.00  0.00     0.079 C 
HETATM    3  C2  UNL     1      32.002  69.837  -8.215  1.00  0.00     0.251 C 
ENDROOT
BRANCH   3   4
HETATM    4  N2  UNL     1      31.171  70.025  -7.040  1.00  0.00    -0.349 N 
HETATM    5  C3  UNL     1      30.145  70.889  -6.938  1.00  0.00     0.123 A 
HETATM    6  C4  UNL     1      29.579  70.806  -5.684  1.00  0.00     0.082 A 
HETATM    7  C13 UNL     1      30.298  69.846  -5.001  1.00  0.00     0.146 A 
HETATM    8  C14 UNL     1      31.285  69.375  -5.869  1.00  0.00     0.130 A 
BRANCH   6   9
HETATM    9  N3  UNL     1      28.484  71.519  -5.129  1.00  0.00    -0.363 N 
HETATM   10  C5  UNL     1      28.594  72.750  -4.772  1.00  0.00     0.105 C 
ATOM     11  H3  UNL     1      27.588  71.045  -5.012  1.00  0.00     0.165 HD
BRANCH  10  12
HETATM   12  C6  UNL     1      27.394  73.421  -4.199  1.00  0.00     0.237 A 
HETATM   13  N4  UNL     1      27.457  74.851  -4.348  1.00  0.00    -0.348 N 
HETATM   14  C7  UNL     1      27.484  75.438  -3.206  1.00  0.00     0.168 A 
ATOM     15  H4  UNL     1      27.477  75.335  -5.245  1.00  0.00     0.163 HD
HETATM   16  C8  UNL     1      27.542  76.739  -2.504  1.00  0.00     0.147 A 
HETATM   17  N12 UNL     1      27.442  74.458  -2.185  1.00  0.00    -0.217 N 
HETATM   18  N5  UNL     1      27.591  77.856  -3.120  1.00  0.00    -0.382 N 
HETATM   19  N6  UNL     1      27.530  76.414  -1.129  1.00  0.00    -0.320 N 
ATOM     20  H52 UNL     1      27.600  78.090  -4.113  1.00  0.00     0.157 HD
ATOM     21  H51 UNL     1      27.632  78.753  -2.637  1.00  0.00     0.157 HD
HETATM   22  C9  UNL     1      27.473  75.143  -0.938  1.00  0.00     0.197 A 
ATOM     23  H6  UNL     1      27.562  77.104  -0.378  1.00  0.00     0.169 HD
HETATM   24  N13 UNL     1      27.386  73.202  -2.787  1.00  0.00    -0.099 NA
BRANCH  22  25
HETATM   25  C10 UNL     1      27.444  74.457   0.374  1.00  0.00     0.293 C 
HETATM   26  O1  UNL     1      28.221  74.810   1.287  1.00  0.00    -0.264 OA
HETATM   27  N7  UNL     1      26.541  73.388   0.618  1.00  0.00    -0.302 N 
ATOM     28  H7  UNL     1      26.879  72.426   0.637  1.00  0.00     0.171 HD
BRANCH  27  29
HETATM   29  C11 UNL     1      25.284  73.642   0.817  1.00  0.00     0.167 A 
HETATM   30  N8  UNL     1      24.670  74.047   1.952  1.00  0.00    -0.266 N 
HETATM   31  N9  UNL     1      23.368  74.193   1.731  1.00  0.00    -0.019 NA
ATOM     32  H8  UNL     1      25.136  74.214   2.844  1.00  0.00     0.186 HD
HETATM   33  N10 UNL     1      23.107  73.893   0.470  1.00  0.00    -0.267 N 
HETATM   34  C12 UNL     1      24.261  73.551  -0.118  1.00  0.00     0.158 A 
ATOM     35  H10 UNL     1      22.190  73.918   0.025  1.00  0.00     0.186 HD
BRANCH  34  36
HETATM   36  N11 UNL     1      24.459  73.188  -1.341  1.00  0.00    -0.382 N 
ATOM     37 2H11 UNL     1      25.270  73.373  -1.932  1.00  0.00     0.157 HD
ATOM     38 1H11 UNL     1      23.781  72.644  -1.875  1.00  0.00     0.157 HD
ENDBRANCH  34  36
ENDBRANCH  27  29
ENDBRANCH  22  25
ENDBRANCH  10  12
ENDBRANCH   6   9
BRANCH   7  39
HETATM   39  N14 UNL     1      30.060  69.427  -3.655  1.00  0.00    -0.112 N 
HETATM   40  O2  UNL     1      30.165  68.203  -3.386  1.00  0.00    -0.532 OA
HETATM   41  O3  UNL     1      29.728  70.369  -2.719  1.00  0.00    -0.532 OA
ENDBRANCH   7  39
ENDBRANCH   3   4
TORSDOF 7
ENDMDL
MODEL 5
REMARK VINA RESULT: -8.794803648      4.553      9.643
REMARK  7 active torsions:
REMARK  status: ('A' for Active; 'I' for Inactive)
REMARK    1  A    between atoms: C2_3  and  N2_4 
REMARK    2  A    between atoms: C4_6  and  N3_7 
REMARK    3  A    between atoms: C5_9  and  C6_10 
REMARK    4  A    between atoms: C9_20  and  C10_21 
REMARK       I    between atoms: C10_21  and  N7_23 
REMARK    5  A    between atoms: N7_23  and  C11_25 
REMARK    6  A    between atoms: C12_31  and  N11_32 
REMARK    7  A    between atoms: C13_37  and  N14_38 
ROOT
HETATM    1  N1  UNL     1      21.551  75.158   5.720  1.00  0.00    -0.196 NA
HETATM    2  C1  UNL     1      20.791  74.995   4.866  1.00  0.00     0.079 C 
HETATM    3  C2  UNL     1      19.834  74.773   3.791  1.00  0.00     0.251 C 
ENDROOT
BRANCH   3   4
HETATM    4  N2  UNL     1      20.510  74.670   2.512  1.00  0.00    -0.349 N 
HETATM    5  C3  UNL     1      21.799  74.329   2.335  1.00  0.00     0.123 A 
HETATM    6  C4  UNL     1      22.109  74.331   0.992  1.00  0.00     0.082 A 
HETATM    7  C13 UNL     1      20.952  74.691   0.331  1.00  0.00     0.146 A 
HETATM    8  C14 UNL     1      19.970  74.897   1.302  1.00  0.00     0.130 A 
BRANCH   6   9
HETATM    9  N3  UNL     1      23.335  74.038   0.339  1.00  0.00    -0.363 N 
HETATM   10  C5  UNL     1      24.157  73.168   0.810  1.00  0.00     0.105 C 
ATOM     11  H3  UNL     1      23.570  74.528  -0.525  1.00  0.00     0.165 HD
BRANCH  10  12
HETATM   12  C6  UNL     1      25.421  72.923   0.060  1.00  0.00     0.237 A 
HETATM   13  N4  UNL     1      26.583  73.209   0.859  1.00  0.00    -0.348 N 
HETATM   14  C7  UNL     1      27.273  74.168   0.354  1.00  0.00     0.168 A 
ATOM     15  H4  UNL     1      26.827  72.713   1.716  1.00  0.00     0.163 HD
HETATM   16  C8  UNL     1      28.477  75.013   0.502  1.00  0.00     0.147 A 
HETATM   17  N12 UNL     1      26.639  74.615  -0.830  1.00  0.00    -0.217 N 
HETATM   18  N5  UNL     1      29.297  74.887   1.472  1.00  0.00    -0.382 N 
HETATM   19  N6  UNL     1      28.450  75.887  -0.609  1.00  0.00    -0.320 N 
ATOM     20  H52 UNL     1      29.316  74.256   2.274  1.00  0.00     0.157 HD
ATOM     21  H51 UNL     1      30.127  75.470   1.574  1.00  0.00     0.157 HD
HETATM   22  C9  UNL     1      27.428  75.673  -1.360  1.00  0.00     0.197 A 
ATOM     23  H6  UNL     1      29.155  76.601  -0.793  1.00  0.00     0.169 HD
HETATM   24  N13 UNL     1      25.488  73.851  -1.024  1.00  0.00    -0.099 NA
BRANCH  22  25
HETATM   25  C10 UNL     1      27.088  76.404  -2.603  1.00  0.00     0.293 C 
HETATM   26  O1  UNL     1      26.757  77.609  -2.555  1.00  0.00    -0.264 OA
HETATM   27  N7  UNL     1      27.130  75.755  -3.865  1.00  0.00    -0.302 N 
ATOM     28  H7  UNL     1      26.264  75.485  -4.332  1.00  0.00     0.171 HD
BRANCH  27  29
HETATM   29  C11 UNL     1      28.275  75.506  -4.423  1.00  0.00     0.167 A 
HETATM   30  N8  UNL     1      28.955  74.338  -4.480  1.00  0.00    -0.266 N 
HETATM   31  N9  UNL     1      30.091  74.512  -5.146  1.00  0.00    -0.019 NA
ATOM     32  H8  UNL     1      28.642  73.457  -4.073  1.00  0.00     0.186 HD
HETATM   33  N10 UNL     1      30.178  75.773  -5.531  1.00  0.00    -0.267 N 
HETATM   34  C12 UNL     1      29.080  76.410  -5.104  1.00  0.00     0.158 A 
ATOM     35  H10 UNL     1      30.946  76.188  -6.060  1.00  0.00     0.186 HD
BRANCH  34  36
HETATM   36  N11 UNL     1      28.761  77.651  -5.264  1.00  0.00    -0.382 N 
ATOM     37 2H11 UNL     1      28.297  78.088  -6.060  1.00  0.00     0.157 HD
ATOM     38 1H11 UNL     1      28.953  78.367  -4.562  1.00  0.00     0.157 HD
ENDBRANCH  34  36
ENDBRANCH  27  29
ENDBRANCH  22  25
ENDBRANCH  10  12
ENDBRANCH   6   9
BRANCH   7  39
HETATM   39  N14 UNL     1      20.807  74.823  -1.085  1.00  0.00    -0.112 N 
HETATM   40  O2  UNL     1      19.834  74.250  -1.639  1.00  0.00    -0.532 OA
HETATM   41  O3  UNL     1      21.728  75.562  -1.777  1.00  0.00    -0.532 OA
ENDBRANCH   7  39
ENDBRANCH   3   4
TORSDOF 7
ENDMDL
