MODEL 1
REMARK VINA RESULT: -10.440681315      0.000      0.000
REMARK  11 active torsions:
REMARK  status: ('A' for Active; 'I' for Inactive)
REMARK    1  A    between atoms: C2_2  and  C4_4 
REMARK    2  A    between atoms: C8_15  and  C9_16 
REMARK    3  A    between atoms: N5_19  and  O2_21 
REMARK    4  A    between atoms: O2_21  and  C11_22 
REMARK    5  A    between atoms: C11_22  and  C12_23 
REMARK    6  A    between atoms: C13_26  and  C14_27 
REMARK       I    between atoms: N7_30  and  C15_31 
REMARK    7  A    between atoms: C16_36  and  C17_37 
REMARK    8  A    between atoms: C17_37  and  N10_38 
REMARK    9  A    between atoms: C20_43  and  N12_44 
REMARK   10  A    between atoms: C21_47  and  N14_48 
REMARK   11  A    between atoms: C22_53  and  N16_54 
ROOT
HETATM    1  C9  UNL     1      29.234  73.087  -3.990  1.00  0.00     0.179 C 
HETATM    2  O1  UNL     1      28.511  74.246  -4.326  1.00  0.00    -0.326 OA
HETATM    3  C10 UNL     1      29.185  75.184  -5.078  1.00  0.00     0.172 C 
HETATM    4  N5  UNL     1      28.865  76.384  -5.290  1.00  0.00    -0.246 N 
ATOM      5  H5  UNL     1      29.508  76.912  -5.880  1.00  0.00     0.196 HD
HETATM    6  C13 UNL     1      30.468  74.654  -5.708  1.00  0.00     0.265 C 
HETATM    7  N7  UNL     1      30.120  73.333  -6.165  1.00  0.00    -0.325 N 
HETATM    8  C15 UNL     1      30.069  73.070  -7.543  1.00  0.00     0.185 C 
HETATM    9  N8  UNL     1      28.989  73.150  -8.244  1.00  0.00    -0.374 N 
ATOM     10  H81 UNL     1      28.952  72.959  -9.245  1.00  0.00     0.158 HD
ATOM     11  H82 UNL     1      28.131  73.414  -7.760  1.00  0.00     0.158 HD
HETATM   12  N9  UNL     1      31.269  72.702  -8.220  1.00  0.00    -0.064 NA
HETATM   13  C16 UNL     1      29.833  72.332  -5.116  1.00  0.00     0.148 C 
ENDROOT
BRANCH  13  14
HETATM   14  C17 UNL     1      29.025  71.217  -5.643  1.00  0.00     0.300 C 
BRANCH  14  15
HETATM   15  N10 UNL     1      29.849  69.995  -5.696  1.00  0.00     0.099 N 
HETATM   16  C18 UNL     1      30.774  70.169  -4.547  1.00  0.00     0.292 C 
HETATM   17  C19 UNL     1      31.410  68.817  -4.313  1.00  0.00     0.151 C 
HETATM   18  N11 UNL     1      32.007  68.414  -5.560  1.00  0.00    -0.375 N 
HETATM   19  C20 UNL     1      31.729  68.958  -6.695  1.00  0.00     0.146 C 
ATOM     20  H11 UNL     1      32.689  67.655  -5.545  1.00  0.00     0.160 HD
HETATM   21  C23 UNL     1      30.751  70.075  -6.851  1.00  0.00     0.350 C 
BRANCH  19  22
HETATM   22  N12 UNL     1      32.421  68.429  -7.836  1.00  0.00    -0.058 N 
HETATM   23  N13 UNL     1      33.351  69.011  -8.561  1.00  0.00    -0.109 N 
HETATM   24  C21 UNL     1      33.751  68.184  -9.556  1.00  0.00     0.706 A 
ATOM     25  H13 UNL     1      33.718  69.948  -8.398  1.00  0.00     0.207 HD
HETATM   26  N15 UNL     1      33.044  67.054  -9.440  1.00  0.00    -0.020 N 
HETATM   27  C22 UNL     1      32.222  67.214  -8.372  1.00  0.00     0.713 A 
ATOM     28  H15 UNL     1      33.109  66.231 -10.039  1.00  0.00     0.203 HD
BRANCH  24  29
HETATM   29  N14 UNL     1      34.637  68.404 -10.462  1.00  0.00    -0.233 N 
ATOM     30 2H14 UNL     1      35.407  69.068 -10.373  1.00  0.00     0.174 HD
ATOM     31 1H14 UNL     1      34.718  67.969 -11.382  1.00  0.00     0.174 HD
ENDBRANCH  24  29
BRANCH  27  32
HETATM   32  N16 UNL     1      31.411  66.295  -7.997  1.00  0.00    -0.232 N 
ATOM     33 2H16 UNL     1      30.412  66.344  -8.197  1.00  0.00     0.174 HD
ATOM     34 1H16 UNL     1      31.612  65.436  -7.486  1.00  0.00     0.174 HD
ENDBRANCH  27  32
ENDBRANCH  19  22
ENDBRANCH  14  15
ENDBRANCH  13  14
BRANCH   1  35
HETATM   35  C8  UNL     1      28.555  72.284  -2.903  1.00  0.00     0.132 A 
HETATM   36  N4  UNL     1      29.435  72.348  -1.767  1.00  0.00    -0.365 N 
HETATM   37  C7  UNL     1      29.211  72.717  -0.587  1.00  0.00     0.133 A 
ATOM     38  H4  UNL     1      30.392  72.044  -1.948  1.00  0.00     0.161 HD
HETATM   39  C6  UNL     1      27.946  73.142  -0.255  1.00  0.00     0.114 A 
HETATM   40  N3  UNL     1      30.161  72.717   0.395  1.00  0.00    -0.330 N 
HETATM   41  C5  UNL     1      27.616  73.564   1.038  1.00  0.00     0.148 A 
HETATM   42  N17 UNL     1      27.073  73.142  -1.158  1.00  0.00    -0.382 N 
HETATM   43  N1  UNL     1      28.606  73.532   1.935  1.00  0.00    -0.332 N 
HETATM   44  N2  UNL     1      26.290  73.990   1.323  1.00  0.00    -0.080 NA
HETATM   45  C4  UNL     1      29.857  73.121   1.637  1.00  0.00     0.087 A 
ATOM     46  H1  UNL     1      28.407  73.832   2.889  1.00  0.00     0.168 HD
HETATM   47  C24 UNL     1      27.202  72.754  -2.527  1.00  0.00     0.147 A 
ATOM     48  H17 UNL     1      26.147  73.463  -0.876  1.00  0.00     0.160 HD
ATOM     49  H3  UNL     1      31.110  72.408   0.181  1.00  0.00     0.168 HD
BRANCH  45  50
HETATM   50  C2  UNL     1      30.918  73.100   2.670  1.00  0.00     0.045 C 
HETATM   51  C1  UNL     1      30.954  74.382   3.471  1.00  0.00     0.017 C 
HETATM   52  C3  UNL     1      30.542  71.953   3.617  1.00  0.00     0.017 C 
ENDBRANCH  45  50
ENDBRANCH   1  35
BRANCH   6  53
HETATM   53  C14 UNL     1      30.956  75.599  -6.697  1.00  0.00     0.205 C 
HETATM   54  O4  UNL     1      30.346  76.471  -7.340  1.00  0.00    -0.646 OA
HETATM   55  O5  UNL     1      32.346  75.540  -6.997  1.00  0.00    -0.646 OA
ENDBRANCH   6  53
BRANCH   4  56
HETATM   56  O2  UNL     1      27.790  77.068  -4.846  1.00  0.00    -0.270 OA
BRANCH  56  57
HETATM   57  C11 UNL     1      27.798  77.711  -3.607  1.00  0.00     0.300 C 
BRANCH  57  58
HETATM   58  C12 UNL     1      27.247  76.834  -2.528  1.00  0.00     0.257 C 
HETATM   59  N6  UNL     1      27.771  76.870  -1.220  1.00  0.00    -0.060 NA
HETATM   60  O3  UNL     1      26.301  76.043  -2.777  1.00  0.00    -0.274 OA
ENDBRANCH  57  58
ENDBRANCH  56  57
ENDBRANCH   4  56
TORSDOF 11
ENDMDL
MODEL 2
REMARK VINA RESULT: -9.953416019      5.297      9.106
REMARK  11 active torsions:
REMARK  status: ('A' for Active; 'I' for Inactive)
REMARK    1  A    between atoms: C2_2  and  C4_4 
REMARK    2  A    between atoms: C8_15  and  C9_16 
REMARK    3  A    between atoms: N5_19  and  O2_21 
REMARK    4  A    between atoms: O2_21  and  C11_22 
REMARK    5  A    between atoms: C11_22  and  C12_23 
REMARK    6  A    between atoms: C13_26  and  C14_27 
REMARK       I    between atoms: N7_30  and  C15_31 
REMARK    7  A    between atoms: C16_36  and  C17_37 
REMARK    8  A    between atoms: C17_37  and  N10_38 
REMARK    9  A    between atoms: C20_43  and  N12_44 
REMARK   10  A    between atoms: C21_47  and  N14_48 
REMARK   11  A    between atoms: C22_53  and  N16_54 
ROOT
HETATM    1  C9  UNL     1      24.564  73.713  -3.943  1.00  0.00     0.179 C 
HETATM    2  O1  UNL     1      23.842  73.798  -2.739  1.00  0.00    -0.326 OA
HETATM    3  C10 UNL     1      24.519  73.421  -1.599  1.00  0.00     0.172 C 
HETATM    4  N5  UNL     1      24.040  73.167  -0.461  1.00  0.00    -0.246 N 
ATOM      5  H5  UNL     1      24.721  72.903   0.253  1.00  0.00     0.196 HD
HETATM    6  C13 UNL     1      26.027  73.313  -1.791  1.00  0.00     0.265 C 
HETATM    7  N7  UNL     1      26.364  74.453  -2.605  1.00  0.00    -0.325 N 
HETATM    8  C15 UNL     1      27.132  75.492  -2.055  1.00  0.00     0.185 C 
HETATM    9  N8  UNL     1      26.623  76.546  -1.515  1.00  0.00    -0.374 N 
ATOM     10  H81 UNL     1      27.181  77.300  -1.116  1.00  0.00     0.158 HD
ATOM     11  H82 UNL     1      25.606  76.622  -1.496  1.00  0.00     0.158 HD
HETATM   12  N9  UNL     1      28.554  75.385  -2.081  1.00  0.00    -0.064 NA
HETATM   13  C16 UNL     1      25.855  74.439  -3.993  1.00  0.00     0.148 C 
ENDROOT
BRANCH  13  14
HETATM   14  C17 UNL     1      25.804  75.800  -4.561  1.00  0.00     0.300 C 
BRANCH  14  15
HETATM   15  N10 UNL     1      26.886  75.959  -5.550  1.00  0.00     0.099 N 
HETATM   16  C18 UNL     1      27.802  74.836  -5.224  1.00  0.00     0.292 C 
HETATM   17  C19 UNL     1      28.745  74.711  -6.400  1.00  0.00     0.151 C 
HETATM   18  N11 UNL     1      29.356  76.002  -6.585  1.00  0.00    -0.375 N 
HETATM   19  C20 UNL     1      28.902  77.089  -6.063  1.00  0.00     0.146 C 
ATOM     20  H11 UNL     1      30.195  76.059  -7.162  1.00  0.00     0.160 HD
HETATM   21  C23 UNL     1      27.685  77.140  -5.200  1.00  0.00     0.350 C 
BRANCH  19  22
HETATM   22  N12 UNL     1      29.640  78.286  -6.354  1.00  0.00    -0.058 N 
HETATM   23  N13 UNL     1      30.340  79.029  -5.525  1.00  0.00    -0.109 N 
HETATM   24  C21 UNL     1      30.883  80.078  -6.185  1.00  0.00     0.706 A 
ATOM     25  H13 UNL     1      30.456  78.841  -4.529  1.00  0.00     0.207 HD
HETATM   26  N15 UNL     1      30.505  79.980  -7.465  1.00  0.00    -0.020 N 
HETATM   27  C22 UNL     1      29.735  78.867  -7.561  1.00  0.00     0.713 A 
ATOM     28  H15 UNL     1      30.749  80.619  -8.222  1.00  0.00     0.203 HD
BRANCH  24  29
HETATM   29  N14 UNL     1      31.625  81.016  -5.710  1.00  0.00    -0.233 N 
ATOM     30 2H14 UNL     1      31.545  81.400  -4.768  1.00  0.00     0.174 HD
ATOM     31 1H14 UNL     1      32.386  81.511  -6.175  1.00  0.00     0.174 HD
ENDBRANCH  24  29
BRANCH  27  32
HETATM   32  N16 UNL     1      29.218  78.495  -8.674  1.00  0.00    -0.232 N 
ATOM     33 2H16 UNL     1      29.794  78.219  -9.469  1.00  0.00     0.174 HD
ATOM     34 1H16 UNL     1      28.233  78.418  -8.926  1.00  0.00     0.174 HD
ENDBRANCH  27  32
ENDBRANCH  19  22
ENDBRANCH  14  15
ENDBRANCH  13  14
BRANCH   1  35
HETATM   35  C8  UNL     1      23.667  73.813  -5.156  1.00  0.00     0.132 A 
HETATM   36  N4  UNL     1      24.063  72.734  -6.021  1.00  0.00    -0.365 N 
HETATM   37  C7  UNL     1      23.380  71.810  -6.531  1.00  0.00     0.133 A 
ATOM     38  H4  UNL     1      25.054  72.717  -6.259  1.00  0.00     0.161 HD
HETATM   39  C6  UNL     1      22.032  71.758  -6.262  1.00  0.00     0.114 A 
HETATM   40  N3  UNL     1      23.905  70.848  -7.346  1.00  0.00    -0.330 N 
HETATM   41  C5  UNL     1      21.204  70.763  -6.796  1.00  0.00     0.148 A 
HETATM   42  N17 UNL     1      21.551  72.642  -5.512  1.00  0.00    -0.382 N 
HETATM   43  N1  UNL     1      21.800  69.863  -7.582  1.00  0.00    -0.332 N 
HETATM   44  N2  UNL     1      19.816  70.762  -6.485  1.00  0.00    -0.080 NA
HETATM   45  C4  UNL     1      23.121  69.890  -7.862  1.00  0.00     0.087 A 
ATOM     46  H1  UNL     1      21.232  69.121  -7.990  1.00  0.00     0.168 HD
HETATM   47  C24 UNL     1      22.215  73.733  -4.873  1.00  0.00     0.147 A 
ATOM     48  H17 UNL     1      20.548  72.572  -5.335  1.00  0.00     0.160 HD
ATOM     49  H3  UNL     1      24.902  70.859  -7.564  1.00  0.00     0.168 HD
BRANCH  45  50
HETATM   50  C2  UNL     1      23.733  68.870  -8.744  1.00  0.00     0.045 C 
HETATM   51  C1  UNL     1      24.994  69.378  -9.407  1.00  0.00     0.017 C 
HETATM   52  C3  UNL     1      24.114  67.708  -7.818  1.00  0.00     0.017 C 
ENDBRANCH  45  50
ENDBRANCH   1  35
BRANCH   6  53
HETATM   53  C14 UNL     1      26.680  73.196  -0.499  1.00  0.00     0.205 C 
HETATM   54  O4  UNL     1      26.535  73.871   0.535  1.00  0.00    -0.646 OA
HETATM   55  O5  UNL     1      27.641  72.154  -0.368  1.00  0.00    -0.646 OA
ENDBRANCH   6  53
BRANCH   4  56
HETATM   56  O2  UNL     1      22.755  73.194  -0.054  1.00  0.00    -0.270 OA
BRANCH  56  57
HETATM   57  C11 UNL     1      22.353  73.966   1.037  1.00  0.00     0.300 C 
BRANCH  57  58
HETATM   58  C12 UNL     1      23.347  73.904   2.152  1.00  0.00     0.257 C 
HETATM   59  N6  UNL     1      23.527  74.991   3.032  1.00  0.00    -0.060 NA
HETATM   60  O3  UNL     1      24.044  72.870   2.322  1.00  0.00    -0.274 OA
ENDBRANCH  57  58
ENDBRANCH  56  57
ENDBRANCH   4  56
TORSDOF 11
ENDMDL
MODEL 3
REMARK VINA RESULT: -9.837685429      3.268      7.407
REMARK  11 active torsions:
REMARK  status: ('A' for Active; 'I' for Inactive)
REMARK    1  A    between atoms: C2_2  and  C4_4 
REMARK    2  A    between atoms: C8_15  and  C9_16 
REMARK    3  A    between atoms: N5_19  and  O2_21 
REMARK    4  A    between atoms: O2_21  and  C11_22 
REMARK    5  A    between atoms: C11_22  and  C12_23 
REMARK    6  A    between atoms: C13_26  and  C14_27 
REMARK       I    between atoms: N7_30  and  C15_31 
REMARK    7  A    between atoms: C16_36  and  C17_37 
REMARK    8  A    between atoms: C17_37  and  N10_38 
REMARK    9  A    between atoms: C20_43  and  N12_44 
REMARK   10  A    between atoms: C21_47  and  N14_48 
REMARK   11  A    between atoms: C22_53  and  N16_54 
ROOT
HETATM    1  C9  UNL     1      28.522  71.925  -4.659  1.00  0.00     0.179 C 
HETATM    2  O1  UNL     1      28.593  72.087  -3.264  1.00  0.00    -0.326 OA
HETATM    3  C10 UNL     1      28.732  73.381  -2.811  1.00  0.00     0.172 C 
HETATM    4  N5  UNL     1      29.066  73.768  -1.659  1.00  0.00    -0.246 N 
ATOM      5  H5  UNL     1      29.110  74.780  -1.531  1.00  0.00     0.196 HD
HETATM    6  C13 UNL     1      28.434  74.435  -3.871  1.00  0.00     0.265 C 
HETATM    7  N7  UNL     1      27.275  73.928  -4.561  1.00  0.00    -0.325 N 
HETATM    8  C15 UNL     1      26.049  74.599  -4.436  1.00  0.00     0.185 C 
HETATM    9  N8  UNL     1      25.153  74.292  -3.561  1.00  0.00    -0.374 N 
ATOM     10  H81 UNL     1      24.262  74.779  -3.471  1.00  0.00     0.158 HD
ATOM     11  H82 UNL     1      25.354  73.513  -2.934  1.00  0.00     0.158 HD
HETATM   12  N9  UNL     1      25.767  75.688  -5.313  1.00  0.00    -0.064 NA
HETATM   13  C16 UNL     1      27.476  72.703  -5.364  1.00  0.00     0.148 C 
ENDROOT
BRANCH  13  14
HETATM   14  C17 UNL     1      26.201  71.999  -5.598  1.00  0.00     0.300 C 
BRANCH  14  15
HETATM   15  N10 UNL     1      25.668  72.375  -6.921  1.00  0.00     0.099 N 
HETATM   16  C18 UNL     1      24.218  72.082  -6.790  1.00  0.00     0.292 C 
HETATM   17  C19 UNL     1      23.546  72.763  -7.962  1.00  0.00     0.151 C 
HETATM   18  N11 UNL     1      24.193  72.277  -9.154  1.00  0.00    -0.375 N 
HETATM   19  C20 UNL     1      25.327  71.666  -9.154  1.00  0.00     0.146 C 
ATOM     20  H11 UNL     1      23.727  72.426 -10.049  1.00  0.00     0.160 HD
HETATM   21  C23 UNL     1      26.109  71.388  -7.913  1.00  0.00     0.350 C 
BRANCH  19  22
HETATM   22  N12 UNL     1      25.823  71.252 -10.436  1.00  0.00    -0.058 N 
HETATM   23  N13 UNL     1      25.354  70.304 -11.218  1.00  0.00    -0.109 N 
HETATM   24  C21 UNL     1      26.102  70.216 -12.342  1.00  0.00     0.706 A 
ATOM     25  H13 UNL     1      24.545  69.720 -11.007  1.00  0.00     0.207 HD
HETATM   26  N15 UNL     1      27.064  71.141 -12.252  1.00  0.00    -0.020 N 
HETATM   27  C22 UNL     1      26.884  71.779 -11.068  1.00  0.00     0.713 A 
ATOM     28  H15 UNL     1      27.793  71.331 -12.940  1.00  0.00     0.203 HD
BRANCH  24  29
HETATM   29  N14 UNL     1      25.953  69.410 -13.334  1.00  0.00    -0.233 N 
ATOM     30 2H14 UNL     1      26.712  69.068 -13.925  1.00  0.00     0.174 HD
ATOM     31 1H14 UNL     1      25.089  68.994 -13.682  1.00  0.00     0.174 HD
ENDBRANCH  24  29
BRANCH  27  32
HETATM   32  N16 UNL     1      27.653  72.731 -10.687  1.00  0.00    -0.232 N 
ATOM     33 2H16 UNL     1      28.639  72.575 -10.477  1.00  0.00     0.174 HD
ATOM     34 1H16 UNL     1      27.429  73.716 -10.546  1.00  0.00     0.174 HD
ENDBRANCH  27  32
ENDBRANCH  19  22
ENDBRANCH  14  15
ENDBRANCH  13  14
BRANCH   1  35
HETATM   35  C8  UNL     1      28.712  70.484  -5.079  1.00  0.00     0.132 A 
HETATM   36  N4  UNL     1      29.341  70.536  -6.371  1.00  0.00    -0.365 N 
HETATM   37  C7  UNL     1      30.405  70.004  -6.778  1.00  0.00     0.133 A 
ATOM     38  H4  UNL     1      28.846  71.091  -7.068  1.00  0.00     0.161 HD
HETATM   39  C6  UNL     1      31.138  69.236  -5.902  1.00  0.00     0.114 A 
HETATM   40  N3  UNL     1      30.878  70.144  -8.051  1.00  0.00    -0.330 N 
HETATM   41  C5  UNL     1      32.330  68.607  -6.280  1.00  0.00     0.148 A 
HETATM   42  N17 UNL     1      30.703  69.109  -4.731  1.00  0.00    -0.382 N 
HETATM   43  N1  UNL     1      32.718  68.797  -7.544  1.00  0.00    -0.332 N 
HETATM   44  N2  UNL     1      33.043  67.823  -5.333  1.00  0.00    -0.080 NA
HETATM   45  C4  UNL     1      32.019  69.546  -8.424  1.00  0.00     0.087 A 
ATOM     46  H1  UNL     1      33.582  68.357  -7.859  1.00  0.00     0.168 HD
HETATM   47  C24 UNL     1      29.521  69.661  -4.150  1.00  0.00     0.147 A 
ATOM     48  H17 UNL     1      31.272  68.533  -4.110  1.00  0.00     0.160 HD
ATOM     49  H3  UNL     1      30.358  70.707  -8.725  1.00  0.00     0.168 HD
BRANCH  45  50
HETATM   50  C2  UNL     1      32.491  69.723  -9.817  1.00  0.00     0.045 C 
HETATM   51  C1  UNL     1      32.568  71.182 -10.208  1.00  0.00     0.017 C 
HETATM   52  C3  UNL     1      33.911  69.144  -9.842  1.00  0.00     0.017 C 
ENDBRANCH  45  50
ENDBRANCH   1  35
BRANCH   6  53
HETATM   53  C14 UNL     1      28.325  75.742  -3.248  1.00  0.00     0.205 C 
HETATM   54  O4  UNL     1      27.865  76.063  -2.138  1.00  0.00    -0.646 OA
HETATM   55  O5  UNL     1      28.811  76.847  -4.002  1.00  0.00    -0.646 OA
ENDBRANCH   6  53
BRANCH   4  56
HETATM   56  O2  UNL     1      29.373  73.032  -0.571  1.00  0.00    -0.270 OA
BRANCH  56  57
HETATM   57  C11 UNL     1      28.714  73.221   0.645  1.00  0.00     0.300 C 
BRANCH  57  58
HETATM   58  C12 UNL     1      29.129  74.497   1.304  1.00  0.00     0.257 C 
HETATM   59  N6  UNL     1      29.981  74.496   2.427  1.00  0.00    -0.060 NA
HETATM   60  O3  UNL     1      28.718  75.601   0.861  1.00  0.00    -0.274 OA
ENDBRANCH  57  58
ENDBRANCH  56  57
ENDBRANCH   4  56
TORSDOF 11
ENDMDL
MODEL 4
REMARK VINA RESULT: -9.836977440      3.761      9.207
REMARK  11 active torsions:
REMARK  status: ('A' for Active; 'I' for Inactive)
REMARK    1  A    between atoms: C2_2  and  C4_4 
REMARK    2  A    between atoms: C8_15  and  C9_16 
REMARK    3  A    between atoms: N5_19  and  O2_21 
REMARK    4  A    between atoms: O2_21  and  C11_22 
REMARK    5  A    between atoms: C11_22  and  C12_23 
REMARK    6  A    between atoms: C13_26  and  C14_27 
REMARK       I    between atoms: N7_30  and  C15_31 
REMARK    7  A    between atoms: C16_36  and  C17_37 
REMARK    8  A    between atoms: C17_37  and  N10_38 
REMARK    9  A    between atoms: C20_43  and  N12_44 
REMARK   10  A    between atoms: C21_47  and  N14_48 
REMARK   11  A    between atoms: C22_53  and  N16_54 
ROOT
HETATM    1  C9  UNL     1      27.125  72.558  -6.123  1.00  0.00     0.179 C 
HETATM    2  O1  UNL     1      26.729  72.358  -7.457  1.00  0.00    -0.326 OA
HETATM    3  C10 UNL     1      25.433  71.930  -7.647  1.00  0.00     0.172 C 
HETATM    4  N5  UNL     1      24.921  71.445  -8.692  1.00  0.00    -0.246 N 
ATOM      5  H5  UNL     1      23.935  71.189  -8.620  1.00  0.00     0.196 HD
HETATM    6  C13 UNL     1      24.552  72.083  -6.412  1.00  0.00     0.265 C 
HETATM    7  N7  UNL     1      24.920  73.366  -5.870  1.00  0.00    -0.325 N 
HETATM    8  C15 UNL     1      23.993  74.420  -5.899  1.00  0.00     0.185 C 
HETATM    9  N8  UNL     1      23.939  75.295  -6.843  1.00  0.00    -0.374 N 
ATOM     10  H81 UNL     1      23.266  76.061  -6.865  1.00  0.00     0.158 HD
ATOM     11  H82 UNL     1      24.614  75.212  -7.603  1.00  0.00     0.158 HD
HETATM   12  N9  UNL     1      23.049  74.536  -4.837  1.00  0.00    -0.064 NA
HETATM   13  C16 UNL     1      26.285  73.473  -5.313  1.00  0.00     0.148 C 
ENDROOT
BRANCH  13  14
HETATM   14  C17 UNL     1      26.735  74.877  -5.258  1.00  0.00     0.300 C 
BRANCH  14  15
HETATM   15  N10 UNL     1      26.721  75.342  -3.859  1.00  0.00     0.099 N 
HETATM   16  C18 UNL     1      27.561  76.567  -3.909  1.00  0.00     0.292 C 
HETATM   17  C19 UNL     1      27.313  77.297  -2.607  1.00  0.00     0.151 C 
HETATM   18  N11 UNL     1      27.598  76.367  -1.545  1.00  0.00    -0.375 N 
HETATM   19  C20 UNL     1      27.699  75.094  -1.717  1.00  0.00     0.146 C 
ATOM     20  H11 UNL     1      27.729  76.737  -0.603  1.00  0.00     0.160 HD
HETATM   21  C23 UNL     1      27.530  74.429  -3.042  1.00  0.00     0.350 C 
BRANCH  19  22
HETATM   22  N12 UNL     1      27.988  74.318  -0.544  1.00  0.00    -0.058 N 
HETATM   23  N13 UNL     1      29.166  73.984  -0.064  1.00  0.00    -0.109 N 
HETATM   24  C21 UNL     1      29.018  73.243   1.059  1.00  0.00     0.706 A 
ATOM     25  H13 UNL     1      30.061  74.244  -0.478  1.00  0.00     0.207 HD
HETATM   26  N15 UNL     1      27.704  73.116   1.280  1.00  0.00    -0.020 N 
HETATM   27  C22 UNL     1      27.074  73.786   0.282  1.00  0.00     0.713 A 
ATOM     28  H15 UNL     1      27.262  72.613   2.050  1.00  0.00     0.203 HD
BRANCH  24  29
HETATM   29  N14 UNL     1      29.938  72.735   1.802  1.00  0.00    -0.233 N 
ATOM     30 2H14 UNL     1      30.440  73.241   2.532  1.00  0.00     0.174 HD
ATOM     31 1H14 UNL     1      30.303  71.783   1.788  1.00  0.00     0.174 HD
ENDBRANCH  24  29
BRANCH  27  32
HETATM   32  N16 UNL     1      25.795  73.853   0.215  1.00  0.00    -0.232 N 
ATOM     33 2H16 UNL     1      25.226  74.102   1.023  1.00  0.00     0.174 HD
ATOM     34 1H16 UNL     1      25.188  73.686  -0.588  1.00  0.00     0.174 HD
ENDBRANCH  27  32
ENDBRANCH  19  22
ENDBRANCH  14  15
ENDBRANCH  13  14
BRANCH   1  35
HETATM   35  C8  UNL     1      28.625  72.692  -5.985  1.00  0.00     0.132 A 
HETATM   36  N4  UNL     1      29.141  71.351  -6.037  1.00  0.00    -0.365 N 
HETATM   37  C7  UNL     1      30.014  70.846  -6.787  1.00  0.00     0.133 A 
ATOM     38  H4  UNL     1      28.734  70.708  -5.358  1.00  0.00     0.161 HD
HETATM   39  C6  UNL     1      30.616  71.643  -7.732  1.00  0.00     0.114 A 
HETATM   40  N3  UNL     1      30.406  69.539  -6.712  1.00  0.00    -0.330 N 
HETATM   41  C5  UNL     1      31.600  71.157  -8.601  1.00  0.00     0.148 A 
HETATM   42  N17 UNL     1      30.254  72.844  -7.800  1.00  0.00    -0.382 N 
HETATM   43  N1  UNL     1      31.921  69.868  -8.459  1.00  0.00    -0.332 N 
HETATM   44  N2  UNL     1      32.188  72.029  -9.557  1.00  0.00    -0.080 NA
HETATM   45  C4  UNL     1      31.347  69.063  -7.540  1.00  0.00     0.087 A 
ATOM     46  H1  UNL     1      32.634  69.474  -9.073  1.00  0.00     0.168 HD
HETATM   47  C24 UNL     1      29.278  73.531  -7.016  1.00  0.00     0.147 A 
ATOM     48  H17 UNL     1      30.721  73.405  -8.513  1.00  0.00     0.160 HD
ATOM     49  H3  UNL     1      29.979  68.922  -6.022  1.00  0.00     0.168 HD
BRANCH  45  50
HETATM   50  C2  UNL     1      31.743  67.640  -7.421  1.00  0.00     0.045 C 
HETATM   51  C1  UNL     1      32.364  67.116  -8.696  1.00  0.00     0.017 C 
HETATM   52  C3  UNL     1      32.809  67.606  -6.318  1.00  0.00     0.017 C 
ENDBRANCH  45  50
ENDBRANCH   1  35
BRANCH   6  53
HETATM   53  C14 UNL     1      23.160  71.882  -6.774  1.00  0.00     0.205 C 
HETATM   54  O4  UNL     1      22.335  71.053  -6.352  1.00  0.00    -0.646 OA
HETATM   55  O5  UNL     1      22.630  72.756  -7.765  1.00  0.00    -0.646 OA
ENDBRANCH   6  53
BRANCH   4  56
HETATM   56  O2  UNL     1      25.493  71.218  -9.891  1.00  0.00    -0.270 OA
BRANCH  56  57
HETATM   57  C11 UNL     1      25.314  70.009 -10.565  1.00  0.00     0.300 C 
BRANCH  57  58
HETATM   58  C12 UNL     1      24.499  69.046  -9.763  1.00  0.00     0.257 C 
HETATM   59  N6  UNL     1      23.093  69.016  -9.864  1.00  0.00    -0.060 NA
HETATM   60  O3  UNL     1      25.063  68.241  -8.977  1.00  0.00    -0.274 OA
ENDBRANCH  57  58
ENDBRANCH  56  57
ENDBRANCH   4  56
TORSDOF 11
ENDMDL
MODEL 5
REMARK VINA RESULT: -9.822606681      2.777      7.024
REMARK  11 active torsions:
REMARK  status: ('A' for Active; 'I' for Inactive)
REMARK    1  A    between atoms: C2_2  and  C4_4 
REMARK    2  A    between atoms: C8_15  and  C9_16 
REMARK    3  A    between atoms: N5_19  and  O2_21 
REMARK    4  A    between atoms: O2_21  and  C11_22 
REMARK    5  A    between atoms: C11_22  and  C12_23 
REMARK    6  A    between atoms: C13_26  and  C14_27 
REMARK       I    between atoms: N7_30  and  C15_31 
REMARK    7  A    between atoms: C16_36  and  C17_37 
REMARK    8  A    between atoms: C17_37  and  N10_38 
REMARK    9  A    between atoms: C20_43  and  N12_44 
REMARK   10  A    between atoms: C21_47  and  N14_48 
REMARK   11  A    between atoms: C22_53  and  N16_54 
ROOT
HETATM    1  C9  UNL     1      28.728  71.742  -4.867  1.00  0.00     0.179 C 
HETATM    2  O1  UNL     1      28.733  72.036  -3.492  1.00  0.00    -0.326 OA
HETATM    3  C10 UNL     1      28.857  73.368  -3.159  1.00  0.00     0.172 C 
HETATM    4  N5  UNL     1      29.138  73.863  -2.034  1.00  0.00    -0.246 N 
ATOM      5  H5  UNL     1      29.181  74.882  -2.002  1.00  0.00     0.196 HD
HETATM    6  C13 UNL     1      28.616  74.316  -4.328  1.00  0.00     0.265 C 
HETATM    7  N7  UNL     1      27.489  73.746  -5.020  1.00  0.00    -0.325 N 
HETATM    8  C15 UNL     1      26.261  74.428  -5.020  1.00  0.00     0.185 C 
HETATM    9  N8  UNL     1      25.323  74.206  -4.164  1.00  0.00    -0.374 N 
ATOM     10  H81 UNL     1      24.432  74.701  -4.163  1.00  0.00     0.158 HD
ATOM     11  H82 UNL     1      25.490  73.491  -3.456  1.00  0.00     0.158 HD
HETATM   12  N9  UNL     1      26.028  75.428  -6.009  1.00  0.00    -0.064 NA
HETATM   13  C16 UNL     1      27.721  72.450  -5.692  1.00  0.00     0.148 C 
ENDROOT
BRANCH  13  14
HETATM   14  C17 UNL     1      26.454  71.728  -5.919  1.00  0.00     0.300 C 
BRANCH  14  15
HETATM   15  N10 UNL     1      26.126  71.752  -7.356  1.00  0.00     0.099 N 
HETATM   16  C18 UNL     1      25.801  70.331  -7.646  1.00  0.00     0.292 C 
HETATM   17  C19 UNL     1      25.117  70.326  -8.996  1.00  0.00     0.151 C 
HETATM   18  N11 UNL     1      26.009  70.980  -9.919  1.00  0.00    -0.375 N 
HETATM   19  C20 UNL     1      27.007  71.709  -9.554  1.00  0.00     0.146 C 
ATOM     20  H11 UNL     1      25.841  70.859 -10.917  1.00  0.00     0.160 HD
HETATM   21  C23 UNL     1      27.358  71.964  -8.126  1.00  0.00     0.350 C 
BRANCH  19  22
HETATM   22  N12 UNL     1      27.790  72.283 -10.611  1.00  0.00    -0.058 N 
HETATM   23  N13 UNL     1      27.529  73.358 -11.321  1.00  0.00    -0.109 N 
HETATM   24  C21 UNL     1      28.512  73.568 -12.227  1.00  0.00     0.706 A 
ATOM     25  H13 UNL     1      26.705  73.948 -11.207  1.00  0.00     0.207 HD
HETATM   26  N15 UNL     1      29.412  72.590 -12.070  1.00  0.00    -0.020 N 
HETATM   27  C22 UNL     1      28.957  71.798 -11.066  1.00  0.00     0.713 A 
ATOM     28  H15 UNL     1      30.273  72.464 -12.602  1.00  0.00     0.203 HD
BRANCH  24  29
HETATM   29  N14 UNL     1      28.604  74.515 -13.095  1.00  0.00    -0.233 N 
ATOM     30 2H14 UNL     1      27.808  74.984 -13.528  1.00  0.00     0.174 HD
ATOM     31 1H14 UNL     1      29.450  74.938 -13.477  1.00  0.00     0.174 HD
ENDBRANCH  24  29
BRANCH  27  32
HETATM   32  N16 UNL     1      29.605  70.765 -10.673  1.00  0.00    -0.232 N 
ATOM     33 2H16 UNL     1      29.327  70.239  -9.844  1.00  0.00     0.174 HD
ATOM     34 1H16 UNL     1      30.431  70.333 -11.086  1.00  0.00     0.174 HD
ENDBRANCH  27  32
ENDBRANCH  19  22
ENDBRANCH  14  15
ENDBRANCH  13  14
BRANCH   1  35
HETATM   35  C8  UNL     1      28.930  70.267  -5.137  1.00  0.00     0.132 A 
HETATM   36  N4  UNL     1      29.634  70.194  -6.389  1.00  0.00    -0.365 N 
HETATM   37  C7  UNL     1      30.715  69.624  -6.680  1.00  0.00     0.133 A 
ATOM     38  H4  UNL     1      29.184  70.683  -7.163  1.00  0.00     0.161 HD
HETATM   39  C6  UNL     1      31.388  68.940  -5.695  1.00  0.00     0.114 A 
HETATM   40  N3  UNL     1      31.262  69.641  -7.932  1.00  0.00    -0.330 N 
HETATM   41  C5  UNL     1      32.595  68.274  -5.941  1.00  0.00     0.148 A 
HETATM   42  N17 UNL     1      30.885  68.925  -4.545  1.00  0.00    -0.382 N 
HETATM   43  N1  UNL     1      33.058  68.343  -7.193  1.00  0.00    -0.332 N 
HETATM   44  N2  UNL     1      33.245  67.581  -4.884  1.00  0.00    -0.080 NA
HETATM   45  C4  UNL     1      32.418  69.007  -8.179  1.00  0.00     0.087 A 
ATOM     46  H1  UNL     1      33.935  67.872  -7.413  1.00  0.00     0.168 HD
HETATM   47  C24 UNL     1      29.676  69.533  -4.089  1.00  0.00     0.147 A 
ATOM     48  H17 UNL     1      31.411  68.409  -3.840  1.00  0.00     0.160 HD
ATOM     49  H3  UNL     1      30.787  70.140  -8.685  1.00  0.00     0.168 HD
BRANCH  45  50
HETATM   50  C2  UNL     1      32.972  69.050  -9.552  1.00  0.00     0.045 C 
HETATM   51  C1  UNL     1      33.017  70.459 -10.100  1.00  0.00     0.017 C 
HETATM   52  C3  UNL     1      34.412  68.538  -9.425  1.00  0.00     0.017 C 
ENDBRANCH  45  50
ENDBRANCH   1  35
BRANCH   6  53
HETATM   53  C14 UNL     1      28.484  75.677  -3.838  1.00  0.00     0.205 C 
HETATM   54  O4  UNL     1      27.779  76.132  -2.921  1.00  0.00    -0.646 OA
HETATM   55  O5  UNL     1      29.273  76.665  -4.493  1.00  0.00    -0.646 OA
ENDBRANCH   6  53
BRANCH   4  56
HETATM   56  O2  UNL     1      29.388  73.235  -0.868  1.00  0.00    -0.270 OA
BRANCH  56  57
HETATM   57  C11 UNL     1      28.579  73.430   0.253  1.00  0.00     0.300 C 
BRANCH  57  58
HETATM   58  C12 UNL     1      28.779  74.787   0.848  1.00  0.00     0.257 C 
HETATM   59  N6  UNL     1      28.210  75.934   0.258  1.00  0.00    -0.060 NA
HETATM   60  O3  UNL     1      29.467  74.925   1.893  1.00  0.00    -0.274 OA
ENDBRANCH  57  58
ENDBRANCH  56  57
ENDBRANCH   4  56
TORSDOF 11
ENDMDL
