MODEL 1
REMARK VINA RESULT: -6.326218376      0.000      0.000
REMARK  4 active torsions:
REMARK  status: ('A' for Active; 'I' for Inactive)
REMARK    1  A    between atoms: C3_4  and  N1_5 
REMARK       I    between atoms: N1_5  and  C4_7 
REMARK    2  A    between atoms: C4_7  and  C5_9 
REMARK    3  A    between atoms: C5_9  and  S2_10 
REMARK    4  A    between atoms: S2_10  and  C6_11 
ROOT
HETATM    1  N1  UNL     1      28.869  -4.312  62.398  1.00  0.00    -0.306 N 
ATOM      2  H1  UNL     1      28.243  -3.882  63.078  1.00  0.00     0.171 HD
HETATM    3  C4  UNL     1      28.674  -5.671  61.943  1.00  0.00     0.232 C 
HETATM    4  O1  UNL     1      28.073  -5.858  60.860  1.00  0.00    -0.272 OA
ENDROOT
BRANCH   1   5
HETATM    5  C3  UNL     1      29.889  -3.660  61.894  1.00  0.00     0.152 A 
HETATM    6  S1  UNL     1      31.254  -2.986  62.660  1.00  0.00    -0.056 SA
HETATM    7  C2  UNL     1      32.026  -2.350  61.277  1.00  0.00     0.017 A 
HETATM    8  C1  UNL     1      33.326  -1.600  61.161  1.00  0.00     0.059 C 
HETATM    9  C12 UNL     1      31.162  -2.705  60.277  1.00  0.00     0.095 A 
HETATM   10  N2  UNL     1      30.089  -3.366  60.609  1.00  0.00    -0.330 N 
HETATM   11  S3  UNL     1      31.551  -2.243  58.556  1.00  0.00    -0.032 SA
ATOM     12  H2  UNL     1      29.415  -3.654  59.899  1.00  0.00     0.168 HD
ENDBRANCH   1   5
BRANCH   3  13
HETATM   13  C5  UNL     1      29.162  -6.811  62.719  1.00  0.00     0.177 C 
BRANCH  13  14
HETATM   14  S2  UNL     1      30.414  -7.760  61.851  1.00  0.00    -0.155 SA
BRANCH  14  15
HETATM   15  C6  UNL     1      31.881  -6.791  61.531  1.00  0.00     0.047 C 
HETATM   16  C7  UNL     1      33.151  -7.429  62.031  1.00  0.00     0.015 C 
HETATM   17  C8  UNL     1      34.107  -7.766  60.911  1.00  0.00     0.001 C 
HETATM   18  C9  UNL     1      34.459  -6.560  60.072  1.00  0.00     0.000 C 
HETATM   19  C10 UNL     1      33.283  -5.618  59.927  1.00  0.00     0.001 C 
HETATM   20  C11 UNL     1      31.976  -6.384  60.074  1.00  0.00     0.015 C 
ENDBRANCH  14  15
ENDBRANCH  13  14
ENDBRANCH   3  13
TORSDOF 4
ENDMDL
MODEL 2
REMARK VINA RESULT: -6.189765701      3.700      5.358
REMARK  4 active torsions:
REMARK  status: ('A' for Active; 'I' for Inactive)
REMARK    1  A    between atoms: C3_4  and  N1_5 
REMARK       I    between atoms: N1_5  and  C4_7 
REMARK    2  A    between atoms: C4_7  and  C5_9 
REMARK    3  A    between atoms: C5_9  and  S2_10 
REMARK    4  A    between atoms: S2_10  and  C6_11 
ROOT
HETATM    1  N1  UNL     1      31.656  -4.154  58.597  1.00  0.00    -0.306 N 
ATOM      2  H1  UNL     1      32.193  -3.401  58.167  1.00  0.00     0.171 HD
HETATM    3  C4  UNL     1      31.504  -5.439  57.950  1.00  0.00     0.232 C 
HETATM    4  O1  UNL     1      32.266  -6.373  58.291  1.00  0.00    -0.272 OA
ENDROOT
BRANCH   1   5
HETATM    5  C3  UNL     1      31.070  -4.005  59.761  1.00  0.00     0.152 A 
HETATM    6  S1  UNL     1      31.105  -2.695  60.852  1.00  0.00    -0.056 SA
HETATM    7  C2  UNL     1      30.096  -3.353  62.061  1.00  0.00     0.017 A 
HETATM    8  C1  UNL     1      29.644  -2.755  63.367  1.00  0.00     0.059 C 
HETATM    9  C12 UNL     1      29.782  -4.578  61.537  1.00  0.00     0.095 A 
HETATM   10  N2  UNL     1      30.284  -4.888  60.375  1.00  0.00    -0.330 N 
HETATM   11  S3  UNL     1      28.692  -5.696  62.479  1.00  0.00    -0.032 SA
ATOM     12  H2  UNL     1      30.078  -5.789  59.944  1.00  0.00     0.168 HD
ENDBRANCH   1   5
BRANCH   3  13
HETATM   13  C5  UNL     1      30.489  -5.658  56.921  1.00  0.00     0.177 C 
BRANCH  13  14
HETATM   14  S2  UNL     1      30.195  -7.398  56.590  1.00  0.00    -0.155 SA
BRANCH  14  15
HETATM   15  C6  UNL     1      28.647  -7.955  57.285  1.00  0.00     0.047 C 
HETATM   16  C7  UNL     1      28.310  -7.317  58.608  1.00  0.00     0.015 C 
HETATM   17  C8  UNL     1      27.054  -6.481  58.543  1.00  0.00     0.001 C 
HETATM   18  C9  UNL     1      25.861  -7.271  58.060  1.00  0.00     0.000 C 
HETATM   19  C10 UNL     1      26.253  -8.293  57.015  1.00  0.00     0.001 C 
HETATM   20  C11 UNL     1      27.512  -7.843  56.287  1.00  0.00     0.015 C 
ENDBRANCH  14  15
ENDBRANCH  13  14
ENDBRANCH   3  13
TORSDOF 4
ENDMDL
MODEL 3
REMARK VINA RESULT: -6.149888155      7.344      8.451
REMARK  4 active torsions:
REMARK  status: ('A' for Active; 'I' for Inactive)
REMARK    1  A    between atoms: C3_4  and  N1_5 
REMARK       I    between atoms: N1_5  and  C4_7 
REMARK    2  A    between atoms: C4_7  and  C5_9 
REMARK    3  A    between atoms: C5_9  and  S2_10 
REMARK    4  A    between atoms: S2_10  and  C6_11 
ROOT
HETATM    1  N1  UNL     1      32.204  -2.558  69.555  1.00  0.00    -0.306 N 
ATOM      2  H1  UNL     1      33.089  -3.046  69.690  1.00  0.00     0.171 HD
HETATM    3  C4  UNL     1      31.284  -2.938  68.505  1.00  0.00     0.232 C 
HETATM    4  O1  UNL     1      30.326  -3.692  68.795  1.00  0.00    -0.272 OA
ENDROOT
BRANCH   1   5
HETATM    5  C3  UNL     1      31.845  -1.558  70.323  1.00  0.00     0.152 A 
HETATM    6  S1  UNL     1      31.303  -1.549  71.940  1.00  0.00    -0.056 SA
HETATM    7  C2  UNL     1      31.071   0.133  72.114  1.00  0.00     0.017 A 
HETATM    8  C1  UNL     1      30.599   0.920  73.307  1.00  0.00     0.059 C 
HETATM    9  C12 UNL     1      31.436   0.603  70.881  1.00  0.00     0.095 A 
HETATM   10  N2  UNL     1      31.824  -0.267  69.991  1.00  0.00    -0.330 N 
HETATM   11  S3  UNL     1      31.363   2.394  70.552  1.00  0.00    -0.032 SA
ATOM     12  H2  UNL     1      32.106   0.035  69.059  1.00  0.00     0.168 HD
ENDBRANCH   1   5
BRANCH   3  13
HETATM   13  C5  UNL     1      31.453  -2.460  67.134  1.00  0.00     0.177 C 
BRANCH  13  14
HETATM   14  S2  UNL     1      32.028  -3.740  66.015  1.00  0.00    -0.155 SA
BRANCH  14  15
HETATM   15  C6  UNL     1      31.360  -3.535  64.371  1.00  0.00     0.047 C 
HETATM   16  C7  UNL     1      31.311  -4.811  63.571  1.00  0.00     0.015 C 
HETATM   17  C8  UNL     1      29.900  -5.221  63.222  1.00  0.00     0.001 C 
HETATM   18  C9  UNL     1      29.157  -4.142  62.471  1.00  0.00     0.000 C 
HETATM   19  C10 UNL     1      29.542  -2.760  62.951  1.00  0.00     0.001 C 
HETATM   20  C11 UNL     1      30.023  -2.821  64.395  1.00  0.00     0.015 C 
ENDBRANCH  14  15
ENDBRANCH  13  14
ENDBRANCH   3  13
TORSDOF 4
ENDMDL
MODEL 4
REMARK VINA RESULT: -6.143528686      7.324      8.624
REMARK  4 active torsions:
REMARK  status: ('A' for Active; 'I' for Inactive)
REMARK    1  A    between atoms: C3_4  and  N1_5 
REMARK       I    between atoms: N1_5  and  C4_7 
REMARK    2  A    between atoms: C4_7  and  C5_9 
REMARK    3  A    between atoms: C5_9  and  S2_10 
REMARK    4  A    between atoms: S2_10  and  C6_11 
ROOT
HETATM    1  N1  UNL     1      32.600  -2.961  69.017  1.00  0.00    -0.306 N 
ATOM      2  H1  UNL     1      33.438  -3.501  68.800  1.00  0.00     0.171 HD
HETATM    3  C4  UNL     1      31.454  -2.956  68.134  1.00  0.00     0.232 C 
HETATM    4  O1  UNL     1      30.499  -3.724  68.390  1.00  0.00    -0.272 OA
ENDROOT
BRANCH   1   5
HETATM    5  C3  UNL     1      32.509  -2.240  70.109  1.00  0.00     0.152 A 
HETATM    6  S1  UNL     1      33.564  -1.059  70.740  1.00  0.00    -0.056 SA
HETATM    7  C2  UNL     1      32.681  -0.665  72.147  1.00  0.00     0.017 A 
HETATM    8  C1  UNL     1      32.991   0.336  73.228  1.00  0.00     0.059 C 
HETATM    9  C12 UNL     1      31.593  -1.489  72.043  1.00  0.00     0.095 A 
HETATM   10  N2  UNL     1      31.525  -2.277  71.007  1.00  0.00    -0.330 N 
HETATM   11  S3  UNL     1      30.314  -1.444  73.341  1.00  0.00    -0.032 SA
ATOM     12  H2  UNL     1      30.734  -2.909  70.886  1.00  0.00     0.168 HD
ENDBRANCH   1   5
BRANCH   3  13
HETATM   13  C5  UNL     1      31.397  -2.077  66.966  1.00  0.00     0.177 C 
BRANCH  13  14
HETATM   14  S2  UNL     1      31.929  -2.889  65.457  1.00  0.00    -0.155 SA
BRANCH  14  15
HETATM   15  C6  UNL     1      30.570  -3.689  64.617  1.00  0.00     0.047 C 
HETATM   16  C7  UNL     1      29.607  -2.729  63.968  1.00  0.00     0.015 C 
HETATM   17  C8  UNL     1      29.567  -2.877  62.466  1.00  0.00     0.001 C 
HETATM   18  C9  UNL     1      29.225  -4.283  62.034  1.00  0.00     0.000 C 
HETATM   19  C10 UNL     1      29.816  -5.315  62.972  1.00  0.00     0.001 C 
HETATM   20  C11 UNL     1      31.056  -4.754  63.654  1.00  0.00     0.015 C 
ENDBRANCH  14  15
ENDBRANCH  13  14
ENDBRANCH   3  13
TORSDOF 4
ENDMDL
MODEL 5
REMARK VINA RESULT: -6.110201792      2.649      4.852
REMARK  4 active torsions:
REMARK  status: ('A' for Active; 'I' for Inactive)
REMARK    1  A    between atoms: C3_4  and  N1_5 
REMARK       I    between atoms: N1_5  and  C4_7 
REMARK    2  A    between atoms: C4_7  and  C5_9 
REMARK    3  A    between atoms: C5_9  and  S2_10 
REMARK    4  A    between atoms: S2_10  and  C6_11 
ROOT
HETATM    1  N1  UNL     1      33.014  -3.720  61.012  1.00  0.00    -0.306 N 
ATOM      2  H1  UNL     1      33.973  -3.699  61.359  1.00  0.00     0.171 HD
HETATM    3  C4  UNL     1      32.092  -2.636  61.270  1.00  0.00     0.232 C 
HETATM    4  O1  UNL     1      31.934  -1.763  60.386  1.00  0.00    -0.272 OA
ENDROOT
BRANCH   1   5
HETATM    5  C3  UNL     1      32.559  -4.729  60.310  1.00  0.00     0.152 A 
HETATM    6  S1  UNL     1      32.721  -6.408  60.560  1.00  0.00    -0.056 SA
HETATM    7  C2  UNL     1      31.842  -6.948  59.199  1.00  0.00     0.017 A 
HETATM    8  C1  UNL     1      31.539  -8.350  58.745  1.00  0.00     0.059 C 
HETATM    9  C12 UNL     1      31.463  -5.769  58.617  1.00  0.00     0.095 A 
HETATM   10  N2  UNL     1      31.835  -4.660  59.193  1.00  0.00    -0.330 N 
HETATM   11  S3  UNL     1      30.472  -5.809  57.087  1.00  0.00    -0.032 SA
ATOM     12  H2  UNL     1      31.576  -3.757  58.796  1.00  0.00     0.168 HD
ENDBRANCH   1   5
BRANCH   3  13
HETATM   13  C5  UNL     1      31.354  -2.547  62.529  1.00  0.00     0.177 C 
BRANCH  13  14
HETATM   14  S2  UNL     1      31.214  -4.128  63.368  1.00  0.00    -0.155 SA
BRANCH  14  15
HETATM   15  C6  UNL     1      29.623  -4.892  63.084  1.00  0.00     0.047 C 
HETATM   16  C7  UNL     1      28.831  -4.252  61.974  1.00  0.00     0.015 C 
HETATM   17  C8  UNL     1      28.588  -5.194  60.819  1.00  0.00     0.001 C 
HETATM   18  C9  UNL     1      27.895  -6.465  61.249  1.00  0.00     0.000 C 
HETATM   19  C10 UNL     1      28.344  -6.910  62.625  1.00  0.00     0.001 C 
HETATM   20  C11 UNL     1      29.747  -6.393  62.911  1.00  0.00     0.015 C 
ENDBRANCH  14  15
ENDBRANCH  13  14
ENDBRANCH   3  13
TORSDOF 4
ENDMDL
