MODEL 1
REMARK VINA RESULT: -6.475631789      0.000      0.000
REMARK  4 active torsions:
REMARK  status: ('A' for Active; 'I' for Inactive)
REMARK    1  A    between atoms: C2_2  and  C4_4 
REMARK    2  A    between atoms: C4_4  and  C5_5 
REMARK    3  A    between atoms: C5_5  and  S1_6 
REMARK    4  A    between atoms: S1_6  and  C6_7 
ROOT
HETATM    1  C6  UNL     1      32.371  -0.504  71.123  1.00  0.00     0.031 A 
HETATM    2  C7  UNL     1      32.554  -1.079  69.772  1.00  0.00     0.069 C 
HETATM    3  C8  UNL     1      32.385  -2.542  69.573  1.00  0.00     0.188 C 
HETATM    4  O1  UNL     1      32.671  -2.802  68.223  1.00  0.00    -0.345 OA
HETATM    5  C9  UNL     1      31.639  -3.517  67.690  1.00  0.00     0.160 C 
HETATM    6  C10 UNL     1      31.045  -2.810  66.466  1.00  0.00     0.078 C 
HETATM    7  C11 UNL     1      32.189  -4.871  67.239  1.00  0.00     0.078 C 
HETATM    8  O2  UNL     1      30.629  -3.633  68.607  1.00  0.00    -0.324 OA
HETATM    9  C12 UNL     1      30.900  -2.737  69.644  1.00  0.00     0.293 C 
HETATM   10  O3  UNL     1      30.283  -1.529  69.516  1.00  0.00    -0.352 OA
HETATM   11  C13 UNL     1      31.213  -0.530  69.343  1.00  0.00     0.143 C 
HETATM   12  C14 UNL     1      31.279   0.321  70.620  1.00  0.00     0.005 A 
HETATM   13  C15 UNL     1      31.284   1.788  70.498  1.00  0.00     0.020 C 
HETATM   14  C16 UNL     1      31.091  -0.431  71.855  1.00  0.00     0.014 A 
HETATM   15  C17 UNL     1      31.063   0.346  73.132  1.00  0.00     0.012 C 
ENDROOT
BRANCH   1  16
HETATM   16  S1  UNL     1      33.827   0.081  71.946  1.00  0.00    -0.157 SA
BRANCH  16  17
HETATM   17  C5  UNL     1      35.183  -1.075  72.033  1.00  0.00     0.075 C 
BRANCH  17  18
HETATM   18  C4  UNL     1      36.210  -0.726  70.992  1.00  0.00     0.014 C 
BRANCH  18  19
HETATM   19  C2  UNL     1      36.498  -1.925  70.097  1.00  0.00    -0.022 C 
HETATM   20  C1  UNL     1      36.077  -1.661  68.681  1.00  0.00     0.009 C 
HETATM   21  C3  UNL     1      35.836  -3.164  70.613  1.00  0.00     0.009 C 
ENDBRANCH  18  19
ENDBRANCH  17  18
ENDBRANCH  16  17
ENDBRANCH   1  16
TORSDOF 4
ENDMDL
MODEL 2
REMARK VINA RESULT: -6.408588792      1.008      1.450
REMARK  4 active torsions:
REMARK  status: ('A' for Active; 'I' for Inactive)
REMARK    1  A    between atoms: C2_2  and  C4_4 
REMARK    2  A    between atoms: C4_4  and  C5_5 
REMARK    3  A    between atoms: C5_5  and  S1_6 
REMARK    4  A    between atoms: S1_6  and  C6_7 
ROOT
HETATM    1  C6  UNL     1      32.389  -0.502  71.158  1.00  0.00     0.031 A 
HETATM    2  C7  UNL     1      32.566  -1.070  69.804  1.00  0.00     0.069 C 
HETATM    3  C8  UNL     1      32.395  -2.531  69.597  1.00  0.00     0.188 C 
HETATM    4  O1  UNL     1      32.675  -2.784  68.244  1.00  0.00    -0.345 OA
HETATM    5  C9  UNL     1      31.641  -3.495  67.712  1.00  0.00     0.160 C 
HETATM    6  C10 UNL     1      31.043  -2.780  66.493  1.00  0.00     0.078 C 
HETATM    7  C11 UNL     1      32.187  -4.847  67.251  1.00  0.00     0.078 C 
HETATM    8  O2  UNL     1      30.633  -3.614  68.631  1.00  0.00    -0.324 OA
HETATM    9  C12 UNL     1      30.910  -2.725  69.672  1.00  0.00     0.293 C 
HETATM   10  O3  UNL     1      30.294  -1.516  69.553  1.00  0.00    -0.352 OA
HETATM   11  C13 UNL     1      31.225  -0.517  69.382  1.00  0.00     0.143 C 
HETATM   12  C14 UNL     1      31.296   0.327  70.663  1.00  0.00     0.005 A 
HETATM   13  C15 UNL     1      31.303   1.795  70.550  1.00  0.00     0.020 C 
HETATM   14  C16 UNL     1      31.112  -0.431  71.895  1.00  0.00     0.014 A 
HETATM   15  C17 UNL     1      31.089   0.338  73.176  1.00  0.00     0.012 C 
ENDROOT
BRANCH   1  16
HETATM   16  S1  UNL     1      33.848   0.077  71.979  1.00  0.00    -0.157 SA
BRANCH  16  17
HETATM   17  C5  UNL     1      34.519  -1.013  73.222  1.00  0.00     0.075 C 
BRANCH  17  18
HETATM   18  C4  UNL     1      34.178  -2.438  72.881  1.00  0.00     0.014 C 
BRANCH  18  19
HETATM   19  C2  UNL     1      35.439  -3.235  72.570  1.00  0.00    -0.022 C 
HETATM   20  C1  UNL     1      36.632  -2.661  73.275  1.00  0.00     0.009 C 
HETATM   21  C3  UNL     1      35.690  -3.306  71.096  1.00  0.00     0.009 C 
ENDBRANCH  18  19
ENDBRANCH  17  18
ENDBRANCH  16  17
ENDBRANCH   1  16
TORSDOF 4
ENDMDL
MODEL 3
REMARK VINA RESULT: -6.388717887      7.407     10.453
REMARK  4 active torsions:
REMARK  status: ('A' for Active; 'I' for Inactive)
REMARK    1  A    between atoms: C2_2  and  C4_4 
REMARK    2  A    between atoms: C4_4  and  C5_5 
REMARK    3  A    between atoms: C5_5  and  S1_6 
REMARK    4  A    between atoms: S1_6  and  C6_7 
ROOT
HETATM    1  C6  UNL     1      30.186  -5.549  62.663  1.00  0.00     0.031 A 
HETATM    2  C7  UNL     1      30.160  -6.423  63.856  1.00  0.00     0.069 C 
HETATM    3  C8  UNL     1      31.067  -7.598  63.921  1.00  0.00     0.188 C 
HETATM    4  O1  UNL     1      30.785  -8.262  65.126  1.00  0.00    -0.345 OA
HETATM    5  C9  UNL     1      31.954  -8.451  65.802  1.00  0.00     0.160 C 
HETATM    6  C10 UNL     1      31.891  -7.835  67.205  1.00  0.00     0.078 C 
HETATM    7  C11 UNL     1      32.172  -9.957  65.951  1.00  0.00     0.078 C 
HETATM    8  O2  UNL     1      32.980  -7.828  65.145  1.00  0.00    -0.324 OA
HETATM    9  C12 UNL     1      32.412  -6.988  64.182  1.00  0.00     0.293 C 
HETATM   10  O3  UNL     1      32.248  -5.699  64.591  1.00  0.00    -0.352 OA
HETATM   11  C13 UNL     1      30.911  -5.381  64.652  1.00  0.00     0.143 C 
HETATM   12  C14 UNL     1      30.571  -4.421  63.502  1.00  0.00     0.005 A 
HETATM   13  C15 UNL     1      29.752  -3.231  63.786  1.00  0.00     0.020 C 
HETATM   14  C16 UNL     1      31.307  -4.674  62.269  1.00  0.00     0.014 A 
HETATM   15  C17 UNL     1      31.086  -3.728  61.133  1.00  0.00     0.012 C 
ENDROOT
BRANCH   1  16
HETATM   16  S1  UNL     1      28.778  -5.619  61.590  1.00  0.00    -0.157 SA
BRANCH  16  17
HETATM   17  C5  UNL     1      28.975  -6.608  60.119  1.00  0.00     0.075 C 
BRANCH  17  18
HETATM   18  C4  UNL     1      27.668  -6.676  59.378  1.00  0.00     0.014 C 
BRANCH  18  19
HETATM   19  C2  UNL     1      27.900  -6.985  57.904  1.00  0.00    -0.022 C 
HETATM   20  C1  UNL     1      27.002  -8.090  57.431  1.00  0.00     0.009 C 
HETATM   21  C3  UNL     1      29.332  -7.330  57.637  1.00  0.00     0.009 C 
ENDBRANCH  18  19
ENDBRANCH  17  18
ENDBRANCH  16  17
ENDBRANCH   1  16
TORSDOF 4
ENDMDL
MODEL 4
REMARK VINA RESULT: -6.375859510      3.968      8.021
REMARK  4 active torsions:
REMARK  status: ('A' for Active; 'I' for Inactive)
REMARK    1  A    between atoms: C2_2  and  C4_4 
REMARK    2  A    between atoms: C4_4  and  C5_5 
REMARK    3  A    between atoms: C5_5  and  S1_6 
REMARK    4  A    between atoms: S1_6  and  C6_7 
ROOT
HETATM    1  C6  UNL     1      31.616  -6.834  65.112  1.00  0.00     0.031 A 
HETATM    2  C7  UNL     1      32.114  -5.516  65.561  1.00  0.00     0.069 C 
HETATM    3  C8  UNL     1      31.194  -4.593  66.275  1.00  0.00     0.188 C 
HETATM    4  O1  UNL     1      31.916  -3.414  66.524  1.00  0.00    -0.345 OA
HETATM    5  C9  UNL     1      31.808  -3.110  67.849  1.00  0.00     0.160 C 
HETATM    6  C10 UNL     1      33.189  -2.992  68.507  1.00  0.00     0.078 C 
HETATM    7  C11 UNL     1      31.107  -1.756  67.965  1.00  0.00     0.078 C 
HETATM    8  O2  UNL     1      31.144  -4.111  68.505  1.00  0.00    -0.324 OA
HETATM    9  C12 UNL     1      31.073  -5.205  67.639  1.00  0.00     0.293 C 
HETATM   10  O3  UNL     1      32.067  -6.119  67.810  1.00  0.00    -0.352 OA
HETATM   11  C13 UNL     1      32.869  -6.171  66.693  1.00  0.00     0.143 C 
HETATM   12  C14 UNL     1      32.611  -7.491  65.951  1.00  0.00     0.005 A 
HETATM   13  C15 UNL     1      33.762  -8.280  65.478  1.00  0.00     0.020 C 
HETATM   14  C16 UNL     1      31.227  -7.948  65.999  1.00  0.00     0.014 A 
HETATM   15  C17 UNL     1      30.919  -9.267  65.366  1.00  0.00     0.012 C 
ENDROOT
BRANCH   1  16
HETATM   16  S1  UNL     1      31.410  -7.059  63.367  1.00  0.00    -0.157 SA
BRANCH  16  17
HETATM   17  C5  UNL     1      31.182  -5.567  62.416  1.00  0.00     0.075 C 
BRANCH  17  18
HETATM   18  C4  UNL     1      29.796  -5.031  62.644  1.00  0.00     0.014 C 
BRANCH  18  19
HETATM   19  C2  UNL     1      29.772  -3.515  62.489  1.00  0.00    -0.022 C 
HETATM   20  C1  UNL     1      30.855  -3.047  61.562  1.00  0.00     0.009 C 
HETATM   21  C3  UNL     1      29.888  -2.829  63.813  1.00  0.00     0.009 C 
ENDBRANCH  18  19
ENDBRANCH  17  18
ENDBRANCH  16  17
ENDBRANCH   1  16
TORSDOF 4
ENDMDL
MODEL 5
REMARK VINA RESULT: -6.374845507      8.348     11.291
REMARK  4 active torsions:
REMARK  status: ('A' for Active; 'I' for Inactive)
REMARK    1  A    between atoms: C2_2  and  C4_4 
REMARK    2  A    between atoms: C4_4  and  C5_5 
REMARK    3  A    between atoms: C5_5  and  S1_6 
REMARK    4  A    between atoms: S1_6  and  C6_7 
ROOT
HETATM    1  C6  UNL     1      29.515  -5.850  61.088  1.00  0.00     0.031 A 
HETATM    2  C7  UNL     1      29.449  -7.022  60.187  1.00  0.00     0.069 C 
HETATM    3  C8  UNL     1      28.268  -7.197  59.303  1.00  0.00     0.188 C 
HETATM    4  O1  UNL     1      28.454  -8.406  58.614  1.00  0.00    -0.345 OA
HETATM    5  C9  UNL     1      28.295  -8.175  57.279  1.00  0.00     0.160 C 
HETATM    6  C10 UNL     1      29.536  -8.608  56.488  1.00  0.00     0.078 C 
HETATM    7  C11 UNL     1      27.107  -9.007  56.796  1.00  0.00     0.078 C 
HETATM    8  O2  UNL     1      28.133  -6.835  57.053  1.00  0.00    -0.324 OA
HETATM    9  C12 UNL     1      28.474  -6.167  58.233  1.00  0.00     0.293 C 
HETATM   10  O3  UNL     1      29.764  -5.730  58.275  1.00  0.00    -0.352 OA
HETATM   11  C13 UNL     1      30.461  -6.385  59.264  1.00  0.00     0.143 C 
HETATM   12  C14 UNL     1      30.731  -5.408  60.418  1.00  0.00     0.005 A 
HETATM   13  C15 UNL     1      32.079  -5.358  61.008  1.00  0.00     0.020 C 
HETATM   14  C16 UNL     1      29.661  -4.447  60.656  1.00  0.00     0.014 A 
HETATM   15  C17 UNL     1      29.890  -3.413  61.711  1.00  0.00     0.012 C 
ENDROOT
BRANCH   1  16
HETATM   16  S1  UNL     1      29.334  -6.165  62.822  1.00  0.00    -0.157 SA
BRANCH  16  17
HETATM   17  C5  UNL     1      30.638  -7.122  63.574  1.00  0.00     0.075 C 
BRANCH  17  18
HETATM   18  C4  UNL     1      31.515  -6.220  64.398  1.00  0.00     0.014 C 
BRANCH  18  19
HETATM   19  C2  UNL     1      32.245  -7.014  65.475  1.00  0.00    -0.022 C 
HETATM   20  C1  UNL     1      31.539  -8.305  65.770  1.00  0.00     0.009 C 
HETATM   21  C3  UNL     1      32.409  -6.214  66.728  1.00  0.00     0.009 C 
ENDBRANCH  18  19
ENDBRANCH  17  18
ENDBRANCH  16  17
ENDBRANCH   1  16
TORSDOF 4
ENDMDL
