MODEL 1
REMARK VINA RESULT: -7.516240679      0.000      0.000
REMARK  6 active torsions:
REMARK  status: ('A' for Active; 'I' for Inactive)
REMARK    1  A    between atoms: C4_4  and  C5_5 
REMARK    2  A    between atoms: C5_5  and  C6_6 
REMARK    3  A    between atoms: C7_7  and  C8_8 
REMARK    4  A    between atoms: C9_9  and  O1_10 
REMARK    5  A    between atoms: C10_12  and  O2_13 
REMARK    6  A    between atoms: C13_17  and  O3_18 
ROOT
HETATM    1  C8  UNL     1      23.412  20.960   3.726  1.00  0.00     0.033 A 
HETATM    2  C9  UNL     1      24.607  20.529   4.348  1.00  0.00     0.112 A 
HETATM    3  C10 UNL     1      24.589  20.011   5.617  1.00  0.00     0.112 A 
HETATM    4  C11 UNL     1      23.381  19.917   6.276  1.00  0.00     0.031 A 
HETATM    5  C12 UNL     1      22.217  20.341   5.664  1.00  0.00    -0.009 A 
HETATM    6  C13 UNL     1      22.198  20.869   4.384  1.00  0.00     0.086 A 
HETATM    7  C14 UNL     1      20.894  20.263   6.343  1.00  0.00     0.042 C 
HETATM    8  C15 UNL     1      20.936  21.173   7.524  1.00  0.00     0.005 C 
HETATM    9  C16 UNL     1      21.970  21.027   8.529  1.00  0.00     0.006 C 
HETATM   10  C17 UNL     1      22.659  19.751   8.763  1.00  0.00     0.057 C 
HETATM   11  C18 UNL     1      23.562  19.319   7.620  1.00  0.00     0.016 C 
HETATM   12  N1  UNL     1      24.412  18.446   7.828  1.00  0.00    -0.402 N 
ATOM     13  H11 UNL     1      24.536  18.034   8.753  1.00  0.00     0.156 HD
ATOM     14  H12 UNL     1      25.018  18.156   7.060  1.00  0.00     0.156 HD
ENDROOT
BRANCH   1  15
HETATM   15  C7  UNL     1      23.547  21.487   2.396  1.00  0.00     0.013 C 
HETATM   16  C6  UNL     1      23.653  22.741   2.033  1.00  0.00    -0.022 C 
BRANCH  16  17
HETATM   17  C5  UNL     1      23.785  23.018   0.548  1.00  0.00     0.054 C 
BRANCH  17  18
HETATM   18  C4  UNL     1      22.663  23.906   0.113  1.00  0.00    -0.021 C 
HETATM   19  C2  UNL     1      22.264  23.986  -1.142  1.00  0.00    -0.091 C 
HETATM   20  C1  UNL     1      21.136  24.901  -1.475  1.00  0.00     0.042 C 
HETATM   21  C3  UNL     1      22.874  23.216  -2.249  1.00  0.00     0.042 C 
ENDBRANCH  17  18
ENDBRANCH  16  17
ENDBRANCH   1  15
BRANCH   2  22
HETATM   22  O1  UNL     1      25.809  20.634   3.661  1.00  0.00    -0.357 OA
ATOM     23  H1  UNL     1      26.596  20.881   4.132  1.00  0.00     0.217 HD
ENDBRANCH   2  22
BRANCH   6  24
HETATM   24  O3  UNL     1      21.041  21.280   3.805  1.00  0.00    -0.359 OA
ATOM     25  H3  UNL     1      20.198  21.142   4.222  1.00  0.00     0.217 HD
ENDBRANCH   6  24
BRANCH   3  26
HETATM   26  O2  UNL     1      25.712  19.586   6.262  1.00  0.00    -0.357 OA
ATOM     27  H2  UNL     1      25.999  18.680   6.260  1.00  0.00     0.217 HD
ENDBRANCH   3  26
TORSDOF 6
ENDMDL
MODEL 2
REMARK VINA RESULT: -7.230614174      1.420      1.906
REMARK  6 active torsions:
REMARK  status: ('A' for Active; 'I' for Inactive)
REMARK    1  A    between atoms: C4_4  and  C5_5 
REMARK    2  A    between atoms: C5_5  and  C6_6 
REMARK    3  A    between atoms: C7_7  and  C8_8 
REMARK    4  A    between atoms: C9_9  and  O1_10 
REMARK    5  A    between atoms: C10_12  and  O2_13 
REMARK    6  A    between atoms: C13_17  and  O3_18 
ROOT
HETATM    1  C8  UNL     1      23.834  21.023   3.760  1.00  0.00     0.033 A 
HETATM    2  C9  UNL     1      24.961  20.556   4.476  1.00  0.00     0.112 A 
HETATM    3  C10 UNL     1      24.821  20.002   5.722  1.00  0.00     0.112 A 
HETATM    4  C11 UNL     1      23.556  19.908   6.264  1.00  0.00     0.031 A 
HETATM    5  C12 UNL     1      22.459  20.368   5.561  1.00  0.00    -0.009 A 
HETATM    6  C13 UNL     1      22.564  20.933   4.302  1.00  0.00     0.086 A 
HETATM    7  C14 UNL     1      21.078  20.292   6.115  1.00  0.00     0.042 C 
HETATM    8  C15 UNL     1      21.023  21.167   7.321  1.00  0.00     0.005 C 
HETATM    9  C16 UNL     1      21.958  20.976   8.412  1.00  0.00     0.006 C 
HETATM   10  C17 UNL     1      22.606  19.683   8.669  1.00  0.00     0.057 C 
HETATM   11  C18 UNL     1      23.605  19.269   7.601  1.00  0.00     0.016 C 
HETATM   12  N1  UNL     1      24.421  18.378   7.859  1.00  0.00    -0.402 N 
ATOM     13  H11 UNL     1      24.454  17.938   8.779  1.00  0.00     0.156 HD
ATOM     14  H12 UNL     1      25.091  18.100   7.142  1.00  0.00     0.156 HD
ENDROOT
BRANCH   1  15
HETATM   15  C7  UNL     1      24.098  21.585   2.464  1.00  0.00     0.013 C 
HETATM   16  C6  UNL     1      24.123  20.969   1.309  1.00  0.00    -0.022 C 
BRANCH  16  17
HETATM   17  C5  UNL     1      24.430  21.812   0.087  1.00  0.00     0.054 C 
BRANCH  17  18
HETATM   18  C4  UNL     1      25.687  22.586   0.329  1.00  0.00    -0.021 C 
HETATM   19  C2  UNL     1      25.983  23.688  -0.334  1.00  0.00    -0.091 C 
HETATM   20  C1  UNL     1      27.260  24.388  -0.019  1.00  0.00     0.042 C 
HETATM   21  C3  UNL     1      25.116  24.276  -1.379  1.00  0.00     0.042 C 
ENDBRANCH  17  18
ENDBRANCH  16  17
ENDBRANCH   1  15
BRANCH   2  22
HETATM   22  O1  UNL     1      26.222  20.661   3.904  1.00  0.00    -0.357 OA
ATOM     23  H1  UNL     1      26.896  21.160   4.350  1.00  0.00     0.217 HD
ENDBRANCH   2  22
BRANCH   6  24
HETATM   24  O3  UNL     1      21.470  21.377   3.632  1.00  0.00    -0.359 OA
ATOM     25  H3  UNL     1      21.190  22.284   3.680  1.00  0.00     0.217 HD
ENDBRANCH   6  24
BRANCH   3  26
HETATM   26  O2  UNL     1      25.874  19.541   6.453  1.00  0.00    -0.357 OA
ATOM     27  H2  UNL     1      25.863  18.709   6.910  1.00  0.00     0.217 HD
ENDBRANCH   3  26
TORSDOF 6
ENDMDL
MODEL 3
REMARK VINA RESULT: -7.216183458      3.066      5.782
REMARK  6 active torsions:
REMARK  status: ('A' for Active; 'I' for Inactive)
REMARK    1  A    between atoms: C4_4  and  C5_5 
REMARK    2  A    between atoms: C5_5  and  C6_6 
REMARK    3  A    between atoms: C7_7  and  C8_8 
REMARK    4  A    between atoms: C9_9  and  O1_10 
REMARK    5  A    between atoms: C10_12  and  O2_13 
REMARK    6  A    between atoms: C13_17  and  O3_18 
ROOT
HETATM    1  C8  UNL     1      22.669  20.321   4.658  1.00  0.00     0.033 A 
HETATM    2  C9  UNL     1      23.436  19.897   5.769  1.00  0.00     0.112 A 
HETATM    3  C10 UNL     1      24.797  20.052   5.781  1.00  0.00     0.112 A 
HETATM    4  C11 UNL     1      25.406  20.632   4.687  1.00  0.00     0.031 A 
HETATM    5  C12 UNL     1      24.653  21.043   3.605  1.00  0.00    -0.009 A 
HETATM    6  C13 UNL     1      23.276  20.901   3.558  1.00  0.00     0.086 A 
HETATM    7  C14 UNL     1      25.272  21.666   2.402  1.00  0.00     0.042 C 
HETATM    8  C15 UNL     1      26.148  20.644   1.761  1.00  0.00     0.005 C 
HETATM    9  C16 UNL     1      27.194  19.990   2.521  1.00  0.00     0.006 C 
HETATM   10  C17 UNL     1      27.807  20.611   3.703  1.00  0.00     0.057 C 
HETATM   11  C18 UNL     1      26.871  20.730   4.894  1.00  0.00     0.016 C 
HETATM   12  N1  UNL     1      27.351  20.942   6.012  1.00  0.00    -0.402 N 
ATOM     13  H11 UNL     1      28.360  21.009   6.154  1.00  0.00     0.156 HD
ATOM     14  H12 UNL     1      26.723  21.021   6.812  1.00  0.00     0.156 HD
ENDROOT
BRANCH   1  15
HETATM   15  C7  UNL     1      21.250  20.109   4.752  1.00  0.00     0.013 C 
HETATM   16  C6  UNL     1      20.535  19.179   4.171  1.00  0.00    -0.022 C 
BRANCH  16  17
HETATM   17  C5  UNL     1      19.044  19.187   4.446  1.00  0.00     0.054 C 
BRANCH  17  18
HETATM   18  C4  UNL     1      18.343  18.416   3.373  1.00  0.00    -0.021 C 
HETATM   19  C2  UNL     1      17.033  18.261   3.348  1.00  0.00    -0.091 C 
HETATM   20  C1  UNL     1      16.429  17.474   2.237  1.00  0.00     0.042 C 
HETATM   21  C3  UNL     1      16.118  18.827   4.366  1.00  0.00     0.042 C 
ENDBRANCH  17  18
ENDBRANCH  16  17
ENDBRANCH   1  15
BRANCH   2  22
HETATM   22  O1  UNL     1      22.796  19.318   6.857  1.00  0.00    -0.357 OA
ATOM     23  H1  UNL     1      22.978  18.412   7.077  1.00  0.00     0.217 HD
ENDBRANCH   2  22
BRANCH   6  24
HETATM   24  O3  UNL     1      22.558  21.313   2.482  1.00  0.00    -0.359 OA
ATOM     25  H3  UNL     1      22.212  22.196   2.421  1.00  0.00     0.217 HD
ENDBRANCH   6  24
BRANCH   3  26
HETATM   26  O2  UNL     1      25.581  19.657   6.824  1.00  0.00    -0.357 OA
ATOM     27  H2  UNL     1      26.530  19.633   6.779  1.00  0.00     0.217 HD
ENDBRANCH   3  26
TORSDOF 6
ENDMDL
MODEL 4
REMARK VINA RESULT: -6.983778906      1.010      1.271
REMARK  6 active torsions:
REMARK  status: ('A' for Active; 'I' for Inactive)
REMARK    1  A    between atoms: C4_4  and  C5_5 
REMARK    2  A    between atoms: C5_5  and  C6_6 
REMARK    3  A    between atoms: C7_7  and  C8_8 
REMARK    4  A    between atoms: C9_9  and  O1_10 
REMARK    5  A    between atoms: C10_12  and  O2_13 
REMARK    6  A    between atoms: C13_17  and  O3_18 
ROOT
HETATM    1  C8  UNL     1      23.445  21.091   3.697  1.00  0.00     0.033 A 
HETATM    2  C9  UNL     1      24.660  20.724   4.321  1.00  0.00     0.112 A 
HETATM    3  C10 UNL     1      24.663  20.149   5.566  1.00  0.00     0.112 A 
HETATM    4  C11 UNL     1      23.455  19.935   6.198  1.00  0.00     0.031 A 
HETATM    5  C12 UNL     1      22.273  20.297   5.584  1.00  0.00    -0.009 A 
HETATM    6  C13 UNL     1      22.232  20.880   4.328  1.00  0.00     0.086 A 
HETATM    7  C14 UNL     1      20.949  20.090   6.235  1.00  0.00     0.042 C 
HETATM    8  C15 UNL     1      20.904  20.947   7.454  1.00  0.00     0.005 C 
HETATM    9  C16 UNL     1      21.931  20.834   8.471  1.00  0.00     0.006 C 
HETATM   10  C17 UNL     1      22.711  19.604   8.662  1.00  0.00     0.057 C 
HETATM   11  C18 UNL     1      23.661  19.293   7.518  1.00  0.00     0.016 C 
HETATM   12  N1  UNL     1      24.572  18.478   7.703  1.00  0.00    -0.402 N 
ATOM     13  H11 UNL     1      24.713  18.036   8.611  1.00  0.00     0.156 HD
ATOM     14  H12 UNL     1      25.210  18.269   6.934  1.00  0.00     0.156 HD
ENDROOT
BRANCH   1  15
HETATM   15  C7  UNL     1      23.560  21.686   2.393  1.00  0.00     0.013 C 
HETATM   16  C6  UNL     1      23.382  22.940   2.062  1.00  0.00    -0.022 C 
BRANCH  16  17
HETATM   17  C5  UNL     1      23.569  23.298   0.600  1.00  0.00     0.054 C 
BRANCH  17  18
HETATM   18  C4  UNL     1      24.197  24.652   0.503  1.00  0.00    -0.021 C 
HETATM   19  C2  UNL     1      23.563  25.696   0.004  1.00  0.00    -0.091 C 
HETATM   20  C1  UNL     1      24.275  27.004  -0.049  1.00  0.00     0.042 C 
HETATM   21  C3  UNL     1      22.176  25.647  -0.510  1.00  0.00     0.042 C 
ENDBRANCH  17  18
ENDBRANCH  16  17
ENDBRANCH   1  15
BRANCH   2  22
HETATM   22  O1  UNL     1      25.861  20.949   3.661  1.00  0.00    -0.357 OA
ATOM     23  H1  UNL     1      26.064  20.449   2.880  1.00  0.00     0.217 HD
ENDBRANCH   2  22
BRANCH   6  24
HETATM   24  O3  UNL     1      21.056  21.228   3.746  1.00  0.00    -0.359 OA
ATOM     25  H3  UNL     1      20.564  20.615   3.212  1.00  0.00     0.217 HD
ENDBRANCH   6  24
BRANCH   3  26
HETATM   26  O2  UNL     1      25.805  19.782   6.212  1.00  0.00    -0.357 OA
ATOM     27  H2  UNL     1      25.809  19.408   7.085  1.00  0.00     0.217 HD
ENDBRANCH   3  26
TORSDOF 6
ENDMDL
MODEL 5
REMARK VINA RESULT: -6.910443368      3.461      5.541
REMARK  6 active torsions:
REMARK  status: ('A' for Active; 'I' for Inactive)
REMARK    1  A    between atoms: C4_4  and  C5_5 
REMARK    2  A    between atoms: C5_5  and  C6_6 
REMARK    3  A    between atoms: C7_7  and  C8_8 
REMARK    4  A    between atoms: C9_9  and  O1_10 
REMARK    5  A    between atoms: C10_12  and  O2_13 
REMARK    6  A    between atoms: C13_17  and  O3_18 
ROOT
HETATM    1  C8  UNL     1      22.719  20.177   5.109  1.00  0.00     0.033 A 
HETATM    2  C9  UNL     1      23.345  20.776   3.991  1.00  0.00     0.112 A 
HETATM    3  C10 UNL     1      24.708  20.911   3.940  1.00  0.00     0.112 A 
HETATM    4  C11 UNL     1      25.458  20.450   5.002  1.00  0.00     0.031 A 
HETATM    5  C12 UNL     1      24.841  19.867   6.091  1.00  0.00    -0.009 A 
HETATM    6  C13 UNL     1      23.468  19.715   6.177  1.00  0.00     0.086 A 
HETATM    7  C14 UNL     1      25.614  19.363   7.261  1.00  0.00     0.042 C 
HETATM    8  C15 UNL     1      26.275  20.534   7.907  1.00  0.00     0.005 C 
HETATM    9  C16 UNL     1      27.137  21.409   7.138  1.00  0.00     0.006 C 
HETATM   10  C17 UNL     1      27.830  20.956   5.925  1.00  0.00     0.057 C 
HETATM   11  C18 UNL     1      26.904  20.668   4.756  1.00  0.00     0.016 C 
HETATM   12  N1  UNL     1      27.384  20.585   3.620  1.00  0.00    -0.402 N 
ATOM     13  H11 UNL     1      28.379  20.735   3.451  1.00  0.00     0.156 HD
ATOM     14  H12 UNL     1      26.762  20.391   2.835  1.00  0.00     0.156 HD
ENDROOT
BRANCH   1  15
HETATM   15  C7  UNL     1      21.285  20.087   5.057  1.00  0.00     0.013 C 
HETATM   16  C6  UNL     1      20.556  19.064   4.686  1.00  0.00    -0.022 C 
BRANCH  16  17
HETATM   17  C5  UNL     1      19.051  19.243   4.727  1.00  0.00     0.054 C 
BRANCH  17  18
HETATM   18  C4  UNL     1      18.441  18.537   3.558  1.00  0.00    -0.021 C 
HETATM   19  C2  UNL     1      17.138  18.374   3.425  1.00  0.00    -0.091 C 
HETATM   20  C1  UNL     1      16.628  17.656   2.224  1.00  0.00     0.042 C 
HETATM   21  C3  UNL     1      16.144  18.867   4.406  1.00  0.00     0.042 C 
ENDBRANCH  17  18
ENDBRANCH  16  17
ENDBRANCH   1  15
BRANCH   2  22
HETATM   22  O1  UNL     1      22.565  21.229   2.935  1.00  0.00    -0.357 OA
ATOM     23  H1  UNL     1      22.017  20.614   2.463  1.00  0.00     0.217 HD
ENDBRANCH   2  22
BRANCH   6  24
HETATM   24  O3  UNL     1      22.886  19.139   7.260  1.00  0.00    -0.359 OA
ATOM     25  H3  UNL     1      23.295  19.160   8.117  1.00  0.00     0.217 HD
ENDBRANCH   6  24
BRANCH   3  26
HETATM   26  O2  UNL     1      25.359  21.485   2.889  1.00  0.00    -0.357 OA
ATOM     27  H2  UNL     1      25.612  22.400   2.873  1.00  0.00     0.217 HD
ENDBRANCH   3  26
TORSDOF 6
ENDMDL
