MODEL 1
REMARK VINA RESULT: -7.409975803      0.000      0.000
REMARK  11 active torsions:
REMARK  status: ('A' for Active; 'I' for Inactive)
REMARK    1  A    between atoms: C2_2  and  O2_4 
REMARK    2  A    between atoms: O2_4  and  C3_5 
REMARK    3  A    between atoms: C3_5  and  C4_6 
REMARK    4  A    between atoms: C3_5  and  C5_9 
REMARK    5  A    between atoms: C4_6  and  O3_7 
REMARK    6  A    between atoms: C5_9  and  C6_11 
REMARK    7  A    between atoms: C6_11  and  N1_12 
REMARK    8  A    between atoms: C6_11  and  N5_25 
REMARK       I    between atoms: N1_12  and  C7_14 
REMARK    9  A    between atoms: C7_14  and  C8_16 
REMARK       I    between atoms: N5_25  and  C12_27 
REMARK   10  A    between atoms: C12_27  and  C13_29 
REMARK   11  A    between atoms: C13_29  and  N6_32 
ROOT
HETATM    1  C6  UNL     1      15.293 -46.805   5.434  1.00  0.00     0.260 C 
ENDROOT
BRANCH   1   2
HETATM    2  C5  UNL     1      13.928 -47.178   4.995  1.00  0.00     0.200 C 
HETATM    3  O4  UNL     1      12.989 -46.474   5.329  1.00  0.00    -0.291 OA
BRANCH   2   4
HETATM    4  C3  UNL     1      13.728 -48.398   4.159  1.00  0.00     0.228 C 
BRANCH   4   5
HETATM    5  O2  UNL     1      13.713 -48.061   2.789  1.00  0.00    -0.306 OA
BRANCH   5   6
HETATM    6  C2  UNL     1      14.866 -48.129   2.039  1.00  0.00     0.255 C 
HETATM    7  C1  UNL     1      15.941 -49.131   2.354  1.00  0.00     0.126 C 
HETATM    8  O1  UNL     1      15.029 -47.346   1.077  1.00  0.00    -0.266 OA
ENDBRANCH   5   6
ENDBRANCH   4   5
BRANCH   4   9
HETATM    9  C4  UNL     1      12.361 -48.973   4.525  1.00  0.00     0.204 C 
BRANCH   9  10
HETATM   10  O3  UNL     1      12.481 -49.362   5.881  1.00  0.00    -0.398 OA
ATOM     11  H3  UNL     1      13.390 -49.619   5.981  1.00  0.00     0.209 HD
ENDBRANCH   9  10
ENDBRANCH   4   9
ENDBRANCH   2   4
ENDBRANCH   1   2
BRANCH   1  12
HETATM   12  N1  UNL     1      15.348 -46.836   6.884  1.00  0.00    -0.328 N 
HETATM   13  C7  UNL     1      15.415 -48.042   7.556  1.00  0.00     0.273 C 
HETATM   14  O5  UNL     1      15.422 -49.101   6.829  1.00  0.00    -0.266 OA
ATOM     15  H1  UNL     1      15.337 -45.963   7.411  1.00  0.00     0.165 HD
BRANCH  13  16
HETATM   16  C8  UNL     1      15.477 -48.261   8.995  1.00  0.00     0.141 A 
HETATM   17  N2  UNL     1      15.690 -49.493   9.579  1.00  0.00    -0.279 N 
HETATM   18  N3  UNL     1      15.688 -49.338  10.877  1.00  0.00    -0.240 N 
ATOM     19  H2  UNL     1      15.825 -50.374   9.082  1.00  0.00     0.189 HD
HETATM   20  N4  UNL     1      15.489 -48.082  11.200  1.00  0.00    -0.284 N 
ATOM     21  H3  UNL     1      15.824 -50.093  11.549  1.00  0.00     0.208 HD
HETATM   22  C9  UNL     1      15.424 -47.532  12.570  1.00  0.00     0.179 C 
HETATM   23  C10 UNL     1      15.356 -47.396  10.055  1.00  0.00     0.059 A 
HETATM   24  C11 UNL     1      15.115 -45.931   9.978  1.00  0.00     0.072 C 
ENDBRANCH  13  16
ENDBRANCH   1  12
BRANCH   1  25
HETATM   25  N5  UNL     1      15.661 -45.475   4.990  1.00  0.00    -0.331 N 
HETATM   26  C12 UNL     1      16.939 -44.906   5.223  1.00  0.00     0.255 C 
HETATM   27  O6  UNL     1      17.790 -45.587   5.844  1.00  0.00    -0.271 OA
ATOM     28  H5  UNL     1      14.967 -44.923   4.487  1.00  0.00     0.165 HD
BRANCH  26  29
HETATM   29  C13 UNL     1      17.330 -43.562   4.782  1.00  0.00     0.196 C 
HETATM   30  C14 UNL     1      16.274 -43.088   3.781  1.00  0.00     0.056 C 
HETATM   31  C15 UNL     1      17.440 -42.622   5.944  1.00  0.00     0.056 C 
BRANCH  29  32
HETATM   32  N6  UNL     1      18.599 -43.550   4.081  1.00  0.00    -0.062 N 
ATOM     33  H63 UNL     1      19.380 -43.563   4.738  1.00  0.00     0.275 HD
ATOM     34  H62 UNL     1      18.766 -44.439   3.610  1.00  0.00     0.275 HD
ATOM     35  H61 UNL     1      18.683 -42.769   3.430  1.00  0.00     0.275 HD
ENDBRANCH  29  32
ENDBRANCH  26  29
ENDBRANCH   1  25
TORSDOF 11
ENDMDL
MODEL 2
REMARK VINA RESULT: -7.385910606      1.952      4.751
REMARK  11 active torsions:
REMARK  status: ('A' for Active; 'I' for Inactive)
REMARK    1  A    between atoms: C2_2  and  O2_4 
REMARK    2  A    between atoms: O2_4  and  C3_5 
REMARK    3  A    between atoms: C3_5  and  C4_6 
REMARK    4  A    between atoms: C3_5  and  C5_9 
REMARK    5  A    between atoms: C4_6  and  O3_7 
REMARK    6  A    between atoms: C5_9  and  C6_11 
REMARK    7  A    between atoms: C6_11  and  N1_12 
REMARK    8  A    between atoms: C6_11  and  N5_25 
REMARK       I    between atoms: N1_12  and  C7_14 
REMARK    9  A    between atoms: C7_14  and  C8_16 
REMARK       I    between atoms: N5_25  and  C12_27 
REMARK   10  A    between atoms: C12_27  and  C13_29 
REMARK   11  A    between atoms: C13_29  and  N6_32 
ROOT
HETATM    1  C6  UNL     1      14.910 -45.328   6.570  1.00  0.00     0.260 C 
ENDROOT
BRANCH   1   2
HETATM    2  C5  UNL     1      15.640 -44.135   6.083  1.00  0.00     0.200 C 
HETATM    3  O4  UNL     1      15.362 -43.043   6.549  1.00  0.00    -0.291 OA
BRANCH   2   4
HETATM    4  C3  UNL     1      16.696 -44.290   5.039  1.00  0.00     0.228 C 
BRANCH   4   5
HETATM    5  O2  UNL     1      17.956 -43.913   5.551  1.00  0.00    -0.306 OA
BRANCH   5   6
HETATM    6  C2  UNL     1      18.652 -42.864   4.991  1.00  0.00     0.255 C 
HETATM    7  C1  UNL     1      18.484 -41.461   5.500  1.00  0.00     0.126 C 
HETATM    8  O1  UNL     1      19.440 -43.077   4.043  1.00  0.00    -0.266 OA
ENDBRANCH   5   6
ENDBRANCH   4   5
BRANCH   4   9
HETATM    9  C4  UNL     1      16.340 -43.339   3.897  1.00  0.00     0.204 C 
BRANCH   9  10
HETATM   10  O3  UNL     1      14.959 -43.549   3.667  1.00  0.00    -0.398 OA
ATOM     11  H3  UNL     1      14.923 -44.175   2.953  1.00  0.00     0.209 HD
ENDBRANCH   9  10
ENDBRANCH   4   9
ENDBRANCH   2   4
ENDBRANCH   1   2
BRANCH   1  12
HETATM   12  N1  UNL     1      15.378 -45.655   7.905  1.00  0.00    -0.328 N 
HETATM   13  C7  UNL     1      14.789 -46.680   8.621  1.00  0.00     0.273 C 
HETATM   14  O5  UNL     1      13.826 -47.302   8.041  1.00  0.00    -0.266 OA
ATOM     15  H1  UNL     1      16.146 -45.126   8.317  1.00  0.00     0.165 HD
BRANCH  13  16
HETATM   16  C8  UNL     1      15.127 -47.143   9.961  1.00  0.00     0.141 A 
HETATM   17  N2  UNL     1      15.096 -46.341  11.084  1.00  0.00    -0.279 N 
HETATM   18  N3  UNL     1      15.452 -47.063  12.113  1.00  0.00    -0.240 N 
ATOM     19  H2  UNL     1      14.838 -45.354  11.106  1.00  0.00     0.189 HD
HETATM   20  N4  UNL     1      15.719 -48.297  11.753  1.00  0.00    -0.284 N 
ATOM     21  H3  UNL     1      15.513 -46.715  13.070  1.00  0.00     0.208 HD
HETATM   22  C9  UNL     1      16.150 -49.393  12.644  1.00  0.00     0.179 C 
HETATM   23  C10 UNL     1      15.525 -48.371  10.427  1.00  0.00     0.059 A 
HETATM   24  C11 UNL     1      15.719 -49.604   9.620  1.00  0.00     0.072 C 
ENDBRANCH  13  16
ENDBRANCH   1  12
BRANCH   1  25
HETATM   25  N5  UNL     1      15.120 -46.479   5.716  1.00  0.00    -0.331 N 
HETATM   26  C12 UNL     1      14.309 -46.766   4.587  1.00  0.00     0.255 C 
HETATM   27  O6  UNL     1      13.366 -45.984   4.318  1.00  0.00    -0.271 OA
ATOM     28  H5  UNL     1      15.886 -47.113   5.937  1.00  0.00     0.165 HD
BRANCH  26  29
HETATM   29  C13 UNL     1      14.506 -47.925   3.711  1.00  0.00     0.196 C 
HETATM   30  C14 UNL     1      13.232 -48.770   3.781  1.00  0.00     0.056 C 
HETATM   31  C15 UNL     1      14.800 -47.497   2.304  1.00  0.00     0.056 C 
BRANCH  29  32
HETATM   32  N6  UNL     1      15.594 -48.779   4.148  1.00  0.00    -0.062 N 
ATOM     33  H63 UNL     1      16.481 -48.477   3.745  1.00  0.00     0.275 HD
ATOM     34  H62 UNL     1      15.802 -48.631   5.135  1.00  0.00     0.275 HD
ATOM     35  H61 UNL     1      15.423 -49.766   3.954  1.00  0.00     0.275 HD
ENDBRANCH  29  32
ENDBRANCH  26  29
ENDBRANCH   1  25
TORSDOF 11
ENDMDL
MODEL 3
REMARK VINA RESULT: -7.357428106      1.986      4.474
REMARK  11 active torsions:
REMARK  status: ('A' for Active; 'I' for Inactive)
REMARK    1  A    between atoms: C2_2  and  O2_4 
REMARK    2  A    between atoms: O2_4  and  C3_5 
REMARK    3  A    between atoms: C3_5  and  C4_6 
REMARK    4  A    between atoms: C3_5  and  C5_9 
REMARK    5  A    between atoms: C4_6  and  O3_7 
REMARK    6  A    between atoms: C5_9  and  C6_11 
REMARK    7  A    between atoms: C6_11  and  N1_12 
REMARK    8  A    between atoms: C6_11  and  N5_25 
REMARK       I    between atoms: N1_12  and  C7_14 
REMARK    9  A    between atoms: C7_14  and  C8_16 
REMARK       I    between atoms: N5_25  and  C12_27 
REMARK   10  A    between atoms: C12_27  and  C13_29 
REMARK   11  A    between atoms: C13_29  and  N6_32 
ROOT
HETATM    1  C6  UNL     1      14.635 -45.342   6.368  1.00  0.00     0.260 C 
ENDROOT
BRANCH   1   2
HETATM    2  C5  UNL     1      15.539 -44.223   6.019  1.00  0.00     0.200 C 
HETATM    3  O4  UNL     1      15.404 -43.155   6.593  1.00  0.00    -0.291 OA
BRANCH   2   4
HETATM    4  C3  UNL     1      16.593 -44.420   4.979  1.00  0.00     0.228 C 
BRANCH   4   5
HETATM    5  O2  UNL     1      17.859 -44.059   5.485  1.00  0.00    -0.306 OA
BRANCH   5   6
HETATM    6  C2  UNL     1      18.552 -42.999   4.943  1.00  0.00     0.255 C 
HETATM    7  C1  UNL     1      18.352 -41.599   5.450  1.00  0.00     0.126 C 
HETATM    8  O1  UNL     1      19.363 -43.198   4.012  1.00  0.00    -0.266 OA
ENDBRANCH   5   6
ENDBRANCH   4   5
BRANCH   4   9
HETATM    9  C4  UNL     1      16.257 -43.485   3.818  1.00  0.00     0.204 C 
BRANCH   9  10
HETATM   10  O3  UNL     1      14.853 -43.582   3.667  1.00  0.00    -0.398 OA
ATOM     11  H3  UNL     1      14.649 -44.490   3.860  1.00  0.00     0.209 HD
ENDBRANCH   9  10
ENDBRANCH   4   9
ENDBRANCH   2   4
ENDBRANCH   1   2
BRANCH   1  12
HETATM   12  N1  UNL     1      15.270 -46.164   7.382  1.00  0.00    -0.328 N 
HETATM   13  C7  UNL     1      14.572 -47.189   7.992  1.00  0.00     0.273 C 
HETATM   14  O5  UNL     1      13.356 -47.356   7.611  1.00  0.00    -0.266 OA
ATOM     15  H1  UNL     1      16.239 -45.984   7.646  1.00  0.00     0.165 HD
BRANCH  13  16
HETATM   16  C8  UNL     1      15.046 -48.106   9.020  1.00  0.00     0.141 A 
HETATM   17  N2  UNL     1      15.301 -49.445   8.799  1.00  0.00    -0.279 N 
HETATM   18  N3  UNL     1      15.710 -49.974   9.922  1.00  0.00    -0.240 N 
ATOM     19  H2  UNL     1      15.190 -49.936   7.912  1.00  0.00     0.189 HD
HETATM   20  N4  UNL     1      15.747 -49.078  10.880  1.00  0.00    -0.284 N 
ATOM     21  H3  UNL     1      15.968 -50.955  10.039  1.00  0.00     0.208 HD
HETATM   22  C9  UNL     1      16.158 -49.310  12.279  1.00  0.00     0.179 C 
HETATM   23  C10 UNL     1      15.341 -47.915  10.347  1.00  0.00     0.059 A 
HETATM   24  C11 UNL     1      15.238 -46.638  11.101  1.00  0.00     0.072 C 
ENDBRANCH  13  16
ENDBRANCH   1  12
BRANCH   1  25
HETATM   25  N5  UNL     1      14.337 -46.177   5.222  1.00  0.00    -0.331 N 
HETATM   26  C12 UNL     1      15.159 -47.260   4.816  1.00  0.00     0.255 C 
HETATM   27  O6  UNL     1      16.193 -47.504   5.482  1.00  0.00    -0.271 OA
ATOM     28  H5  UNL     1      13.496 -45.977   4.682  1.00  0.00     0.165 HD
BRANCH  26  29
HETATM   29  C13 UNL     1      14.874 -48.116   3.660  1.00  0.00     0.196 C 
HETATM   30  C14 UNL     1      13.484 -48.721   3.873  1.00  0.00     0.056 C 
HETATM   31  C15 UNL     1      14.938 -47.337   2.381  1.00  0.00     0.056 C 
BRANCH  29  32
HETATM   32  N6  UNL     1      15.796 -49.229   3.545  1.00  0.00    -0.062 N 
ATOM     33  H63 UNL     1      16.705 -48.918   3.203  1.00  0.00     0.275 HD
ATOM     34  H62 UNL     1      16.074 -49.570   4.466  1.00  0.00     0.275 HD
ATOM     35  H61 UNL     1      15.429 -49.988   2.970  1.00  0.00     0.275 HD
ENDBRANCH  29  32
ENDBRANCH  26  29
ENDBRANCH   1  25
TORSDOF 11
ENDMDL
MODEL 4
REMARK VINA RESULT: -7.310544647      1.983      4.639
REMARK  11 active torsions:
REMARK  status: ('A' for Active; 'I' for Inactive)
REMARK    1  A    between atoms: C2_2  and  O2_4 
REMARK    2  A    between atoms: O2_4  and  C3_5 
REMARK    3  A    between atoms: C3_5  and  C4_6 
REMARK    4  A    between atoms: C3_5  and  C5_9 
REMARK    5  A    between atoms: C4_6  and  O3_7 
REMARK    6  A    between atoms: C5_9  and  C6_11 
REMARK    7  A    between atoms: C6_11  and  N1_12 
REMARK    8  A    between atoms: C6_11  and  N5_25 
REMARK       I    between atoms: N1_12  and  C7_14 
REMARK    9  A    between atoms: C7_14  and  C8_16 
REMARK       I    between atoms: N5_25  and  C12_27 
REMARK   10  A    between atoms: C12_27  and  C13_29 
REMARK   11  A    between atoms: C13_29  and  N6_32 
ROOT
HETATM    1  C6  UNL     1      14.866 -45.163   6.358  1.00  0.00     0.260 C 
ENDROOT
BRANCH   1   2
HETATM    2  C5  UNL     1      15.548 -43.942   5.873  1.00  0.00     0.200 C 
HETATM    3  O4  UNL     1      15.800 -43.053   6.670  1.00  0.00    -0.291 OA
BRANCH   2   4
HETATM    4  C3  UNL     1      15.912 -43.821   4.430  1.00  0.00     0.228 C 
BRANCH   4   5
HETATM    5  O2  UNL     1      16.757 -42.709   4.226  1.00  0.00    -0.306 OA
BRANCH   5   6
HETATM    6  C2  UNL     1      18.110 -42.806   4.467  1.00  0.00     0.255 C 
HETATM    7  C1  UNL     1      18.801 -41.861   5.409  1.00  0.00     0.126 C 
HETATM    8  O1  UNL     1      18.781 -43.692   3.894  1.00  0.00    -0.266 OA
ENDBRANCH   5   6
ENDBRANCH   4   5
BRANCH   4   9
HETATM    9  C4  UNL     1      14.615 -43.584   3.659  1.00  0.00     0.204 C 
BRANCH   9  10
HETATM   10  O3  UNL     1      14.409 -44.773   2.920  1.00  0.00    -0.398 OA
ATOM     11  H3  UNL     1      14.124 -44.481   2.062  1.00  0.00     0.209 HD
ENDBRANCH   9  10
ENDBRANCH   4   9
ENDBRANCH   2   4
ENDBRANCH   1   2
BRANCH   1  12
HETATM   12  N1  UNL     1      15.340 -45.470   7.696  1.00  0.00    -0.328 N 
HETATM   13  C7  UNL     1      14.767 -46.495   8.423  1.00  0.00     0.273 C 
HETATM   14  O5  UNL     1      13.813 -47.137   7.851  1.00  0.00    -0.266 OA
ATOM     15  H1  UNL     1      16.100 -44.925   8.101  1.00  0.00     0.165 HD
BRANCH  13  16
HETATM   16  C8  UNL     1      15.113 -46.939   9.767  1.00  0.00     0.141 A 
HETATM   17  N2  UNL     1      15.142 -46.108  10.869  1.00  0.00    -0.279 N 
HETATM   18  N3  UNL     1      15.488 -46.819  11.910  1.00  0.00    -0.240 N 
ATOM     19  H2  UNL     1      14.929 -45.110  10.871  1.00  0.00     0.189 HD
HETATM   20  N4  UNL     1      15.693 -48.072  11.577  1.00  0.00    -0.284 N 
ATOM     21  H3  UNL     1      15.586 -46.450  12.856  1.00  0.00     0.208 HD
HETATM   22  C9  UNL     1      16.095 -49.164  12.487  1.00  0.00     0.179 C 
HETATM   23  C10 UNL     1      15.467 -48.172  10.258  1.00  0.00     0.059 A 
HETATM   24  C11 UNL     1      15.589 -49.432   9.479  1.00  0.00     0.072 C 
ENDBRANCH  13  16
ENDBRANCH   1  12
BRANCH   1  25
HETATM   25  N5  UNL     1      15.128 -46.305   5.506  1.00  0.00    -0.331 N 
HETATM   26  C12 UNL     1      14.111 -46.995   4.797  1.00  0.00     0.255 C 
HETATM   27  O6  UNL     1      12.928 -46.595   4.915  1.00  0.00    -0.271 OA
ATOM     28  H5  UNL     1      16.090 -46.629   5.412  1.00  0.00     0.165 HD
BRANCH  26  29
HETATM   29  C13 UNL     1      14.357 -48.152   3.930  1.00  0.00     0.196 C 
HETATM   30  C14 UNL     1      15.467 -48.980   4.581  1.00  0.00     0.056 C 
HETATM   31  C15 UNL     1      13.110 -48.963   3.743  1.00  0.00     0.056 C 
BRANCH  29  32
HETATM   32  N6  UNL     1      14.839 -47.775   2.615  1.00  0.00    -0.062 N 
ATOM     33  H63 UNL     1      15.300 -48.560   2.156  1.00  0.00     0.275 HD
ATOM     34  H62 UNL     1      14.064 -47.636   1.967  1.00  0.00     0.275 HD
ATOM     35  H61 UNL     1      15.448 -46.956   2.638  1.00  0.00     0.275 HD
ENDBRANCH  29  32
ENDBRANCH  26  29
ENDBRANCH   1  25
TORSDOF 11
ENDMDL
MODEL 5
REMARK VINA RESULT: -6.781815568      0.830      1.245
REMARK  11 active torsions:
REMARK  status: ('A' for Active; 'I' for Inactive)
REMARK    1  A    between atoms: C2_2  and  O2_4 
REMARK    2  A    between atoms: O2_4  and  C3_5 
REMARK    3  A    between atoms: C3_5  and  C4_6 
REMARK    4  A    between atoms: C3_5  and  C5_9 
REMARK    5  A    between atoms: C4_6  and  O3_7 
REMARK    6  A    between atoms: C5_9  and  C6_11 
REMARK    7  A    between atoms: C6_11  and  N1_12 
REMARK    8  A    between atoms: C6_11  and  N5_25 
REMARK       I    between atoms: N1_12  and  C7_14 
REMARK    9  A    between atoms: C7_14  and  C8_16 
REMARK       I    between atoms: N5_25  and  C12_27 
REMARK   10  A    between atoms: C12_27  and  C13_29 
REMARK   11  A    between atoms: C13_29  and  N6_32 
ROOT
HETATM    1  C6  UNL     1      15.345 -46.456   5.482  1.00  0.00     0.260 C 
ENDROOT
BRANCH   1   2
HETATM    2  C5  UNL     1      14.003 -46.869   5.012  1.00  0.00     0.200 C 
HETATM    3  O4  UNL     1      13.046 -46.153   5.259  1.00  0.00    -0.291 OA
BRANCH   2   4
HETATM    4  C3  UNL     1      13.846 -48.143   4.250  1.00  0.00     0.228 C 
BRANCH   4   5
HETATM    5  O2  UNL     1      13.786 -47.885   2.864  1.00  0.00    -0.306 OA
BRANCH   5   6
HETATM    6  C2  UNL     1      14.893 -48.078   2.068  1.00  0.00     0.255 C 
HETATM    7  C1  UNL     1      15.937 -49.099   2.421  1.00  0.00     0.126 C 
HETATM    8  O1  UNL     1      15.040 -47.393   1.031  1.00  0.00    -0.266 OA
ENDBRANCH   5   6
ENDBRANCH   4   5
BRANCH   4   9
HETATM    9  C4  UNL     1      12.516 -48.761   4.679  1.00  0.00     0.204 C 
BRANCH   9  10
HETATM   10  O3  UNL     1      12.705 -49.123   6.035  1.00  0.00    -0.398 OA
ATOM     11  H3  UNL     1      11.848 -49.026   6.434  1.00  0.00     0.209 HD
ENDBRANCH   9  10
ENDBRANCH   4   9
ENDBRANCH   2   4
ENDBRANCH   1   2
BRANCH   1  12
HETATM   12  N1  UNL     1      15.293 -46.225   6.914  1.00  0.00    -0.328 N 
HETATM   13  C7  UNL     1      15.337 -47.287   7.797  1.00  0.00     0.273 C 
HETATM   14  O5  UNL     1      15.422 -48.458   7.276  1.00  0.00    -0.266 OA
ATOM     15  H1  UNL     1      15.223 -45.272   7.272  1.00  0.00     0.165 HD
BRANCH  13  16
HETATM   16  C8  UNL     1      15.297 -47.242   9.253  1.00  0.00     0.141 A 
HETATM   17  N2  UNL     1      15.009 -46.105   9.980  1.00  0.00    -0.279 N 
HETATM   18  N3  UNL     1      15.056 -46.409  11.251  1.00  0.00    -0.240 N 
ATOM     19  H2  UNL     1      14.796 -45.186   9.593  1.00  0.00     0.189 HD
HETATM   20  N4  UNL     1      15.356 -47.675  11.421  1.00  0.00    -0.284 N 
ATOM     21  H3  UNL     1      14.882 -45.750  12.010  1.00  0.00     0.208 HD
HETATM   22  C9  UNL     1      15.497 -48.374  12.715  1.00  0.00     0.179 C 
HETATM   23  C10 UNL     1      15.510 -48.212  10.201  1.00  0.00     0.059 A 
HETATM   24  C11 UNL     1      15.856 -49.636   9.948  1.00  0.00     0.072 C 
ENDBRANCH  13  16
ENDBRANCH   1  12
BRANCH   1  25
HETATM   25  N5  UNL     1      15.795 -45.238   4.838  1.00  0.00    -0.331 N 
HETATM   26  C12 UNL     1      17.019 -44.597   5.159  1.00  0.00     0.255 C 
HETATM   27  O6  UNL     1      17.745 -45.109   6.044  1.00  0.00    -0.271 OA
ATOM     28  H5  UNL     1      15.203 -44.822   4.119  1.00  0.00     0.165 HD
BRANCH  26  29
HETATM   29  C13 UNL     1      17.491 -43.365   4.518  1.00  0.00     0.196 C 
HETATM   30  C14 UNL     1      16.407 -42.920   3.534  1.00  0.00     0.056 C 
HETATM   31  C15 UNL     1      17.774 -42.300   5.535  1.00  0.00     0.056 C 
BRANCH  29  32
HETATM   32  N6  UNL     1      18.699 -43.564   3.741  1.00  0.00    -0.062 N 
ATOM     33  H63 UNL     1      19.335 -42.775   3.845  1.00  0.00     0.275 HD
ATOM     34  H62 UNL     1      19.279 -44.298   4.148  1.00  0.00     0.275 HD
ATOM     35  H61 UNL     1      18.508 -43.753   2.757  1.00  0.00     0.275 HD
ENDBRANCH  29  32
ENDBRANCH  26  29
ENDBRANCH   1  25
TORSDOF 11
ENDMDL
