MODEL 1
REMARK VINA RESULT: -5.707592544      0.000      0.000
REMARK  4 active torsions:
REMARK  status: ('A' for Active; 'I' for Inactive)
REMARK    1  A    between atoms: N1_2  and  C2_4 
REMARK    2  A    between atoms: C3_7  and  N3_8 
REMARK    3  A    between atoms: N6_15  and  N7_16 
REMARK    4  A    between atoms: N9_22  and  O1_23 
ROOT
HETATM    1  C2  UNL     1     -11.360 -21.056  48.814  1.00  0.00     0.717 A 
HETATM    2  N2  UNL     1     -10.388 -20.158  49.036  1.00  0.00    -0.021 N 
ATOM      3  H2  UNL     1      -9.724 -20.296  49.798  1.00  0.00     0.203 HD
HETATM    4  C3  UNL     1     -10.297 -19.061  48.236  1.00  0.00     0.693 A 
HETATM    5  N4  UNL     1     -11.182 -18.913  47.246  1.00  0.00    -0.161 N 
ATOM      6  H4  UNL     1     -11.114 -18.092  46.645  1.00  0.00     0.187 HD
HETATM    7  C4  UNL     1     -12.169 -19.814  47.011  1.00  0.00     0.247 A 
HETATM    8  N5  UNL     1     -13.085 -19.592  45.920  1.00  0.00    -0.060 NA
HETATM    9  N6  UNL     1     -12.262 -20.887  47.794  1.00  0.00    -0.039 N 
ENDROOT
BRANCH   9  10
HETATM   10  N7  UNL     1     -13.280 -21.849  47.602  1.00  0.00    -0.188 N 
HETATM   11  C5  UNL     1     -14.587 -21.646  48.167  1.00  0.00     0.288 C 
HETATM   12  N8  UNL     1     -15.584 -21.929  47.175  1.00  0.00    -0.382 N 
HETATM   13  C6  UNL     1     -15.362 -22.791  46.260  1.00  0.00     0.075 C 
ATOM     14  H8  UNL     1     -16.477 -21.438  47.201  1.00  0.00     0.160 HD
HETATM   15  C7  UNL     1     -14.109 -23.544  46.146  1.00  0.00     0.191 C 
HETATM   16  N9  UNL     1     -13.004 -22.985  46.866  1.00  0.00    -0.083 NA
BRANCH  16  17
HETATM   17  O1  UNL     1     -12.369 -23.955  47.530  1.00  0.00    -0.292 OA
ATOM     18  H1  UNL     1     -11.873 -24.560  46.990  1.00  0.00     0.239 HD
ENDBRANCH  16  17
ENDBRANCH   9  10
BRANCH   1  19
HETATM   19  N1  UNL     1     -11.489 -22.099  49.513  1.00  0.00    -0.228 N 
HETATM   20  C1  UNL     1     -10.527 -22.668  50.380  1.00  0.00     0.165 C 
ATOM     21  H1  UNL     1     -12.384 -22.584  49.446  1.00  0.00     0.177 HD
ENDBRANCH   1  19
BRANCH   4  22
HETATM   22  N3  UNL     1      -9.371 -18.192  48.439  1.00  0.00    -0.234 N 
ATOM     23  H32 UNL     1      -8.844 -18.174  49.311  1.00  0.00     0.174 HD
ATOM     24  H31 UNL     1      -9.152 -17.502  47.719  1.00  0.00     0.174 HD
ENDBRANCH   4  22
TORSDOF 4
ENDMDL
MODEL 2
REMARK VINA RESULT: -5.310453620      0.681      2.571
REMARK  4 active torsions:
REMARK  status: ('A' for Active; 'I' for Inactive)
REMARK    1  A    between atoms: N1_2  and  C2_4 
REMARK    2  A    between atoms: C3_7  and  N3_8 
REMARK    3  A    between atoms: N6_15  and  N7_16 
REMARK    4  A    between atoms: N9_22  and  O1_23 
ROOT
HETATM    1  C2  UNL     1     -11.808 -19.879  47.057  1.00  0.00     0.717 A 
HETATM    2  N2  UNL     1     -10.807 -19.000  47.214  1.00  0.00    -0.021 N 
ATOM      3  H2  UNL     1     -10.618 -18.302  46.494  1.00  0.00     0.203 HD
HETATM    4  C3  UNL     1     -10.047 -19.047  48.341  1.00  0.00     0.693 A 
HETATM    5  N4  UNL     1     -10.324 -19.974  49.263  1.00  0.00    -0.161 N 
ATOM      6  H4  UNL     1      -9.755 -20.010  50.109  1.00  0.00     0.187 HD
HETATM    7  C4  UNL     1     -11.334 -20.868  49.116  1.00  0.00     0.247 A 
HETATM    8  N5  UNL     1     -11.579 -21.836  50.157  1.00  0.00    -0.060 NA
HETATM    9  N6  UNL     1     -12.078 -20.825  48.013  1.00  0.00    -0.039 N 
ENDROOT
BRANCH   9  10
HETATM   10  N7  UNL     1     -13.132 -21.744  47.803  1.00  0.00    -0.188 N 
HETATM   11  C5  UNL     1     -14.472 -21.417  48.210  1.00  0.00     0.288 C 
HETATM   12  N8  UNL     1     -15.383 -21.738  47.149  1.00  0.00    -0.382 N 
HETATM   13  C6  UNL     1     -15.129 -22.693  46.343  1.00  0.00     0.075 C 
ATOM     14  H8  UNL     1     -16.241 -21.198  47.039  1.00  0.00     0.160 HD
HETATM   15  C7  UNL     1     -13.921 -23.521  46.426  1.00  0.00     0.191 C 
HETATM   16  N9  UNL     1     -12.858 -22.957  47.203  1.00  0.00    -0.083 NA
BRANCH  16  17
HETATM   17  O1  UNL     1     -12.354 -23.894  48.013  1.00  0.00    -0.292 OA
ATOM     18  H1  UNL     1     -11.681 -23.592  48.612  1.00  0.00     0.239 HD
ENDBRANCH  16  17
ENDBRANCH   9  10
BRANCH   1  19
HETATM   19  N1  UNL     1     -12.556 -19.878  46.039  1.00  0.00    -0.228 N 
HETATM   20  C1  UNL     1     -13.292 -18.784  45.525  1.00  0.00     0.165 C 
ATOM     21  H1  UNL     1     -12.639 -20.760  45.534  1.00  0.00     0.177 HD
ENDBRANCH   1  19
BRANCH   4  22
HETATM   22  N3  UNL     1      -9.083 -18.211  48.503  1.00  0.00    -0.234 N 
ATOM     23  H32 UNL     1      -8.363 -18.365  49.209  1.00  0.00     0.174 HD
ATOM     24  H31 UNL     1      -9.029 -17.376  47.920  1.00  0.00     0.174 HD
ENDBRANCH   4  22
TORSDOF 4
ENDMDL
MODEL 3
REMARK VINA RESULT: -5.084309864      1.800      3.302
REMARK  4 active torsions:
REMARK  status: ('A' for Active; 'I' for Inactive)
REMARK    1  A    between atoms: N1_2  and  C2_4 
REMARK    2  A    between atoms: C3_7  and  N3_8 
REMARK    3  A    between atoms: N6_15  and  N7_16 
REMARK    4  A    between atoms: N9_22  and  O1_23 
ROOT
HETATM    1  C2  UNL     1     -11.736 -19.319  46.689  1.00  0.00     0.717 A 
HETATM    2  N2  UNL     1     -10.544 -18.756  46.939  1.00  0.00    -0.021 N 
ATOM      3  H2  UNL     1     -10.186 -18.017  46.334  1.00  0.00     0.203 HD
HETATM    4  C3  UNL     1      -9.816 -19.181  48.008  1.00  0.00     0.693 A 
HETATM    5  N4  UNL     1     -10.315 -20.149  48.781  1.00  0.00    -0.161 N 
ATOM      6  H4  UNL     1      -9.771 -20.468  49.582  1.00  0.00     0.187 HD
HETATM    7  C4  UNL     1     -11.520 -20.726  48.539  1.00  0.00     0.247 A 
HETATM    8  N5  UNL     1     -11.999 -21.762  49.420  1.00  0.00    -0.060 NA
HETATM    9  N6  UNL     1     -12.233 -20.314  47.492  1.00  0.00    -0.039 N 
ENDROOT
BRANCH   9  10
HETATM   10  N7  UNL     1     -13.487 -20.891  47.186  1.00  0.00    -0.188 N 
HETATM   11  C5  UNL     1     -13.559 -22.114  46.434  1.00  0.00     0.288 C 
HETATM   12  N8  UNL     1     -14.480 -23.011  47.071  1.00  0.00    -0.382 N 
HETATM   13  C6  UNL     1     -15.472 -22.558  47.735  1.00  0.00     0.075 C 
ATOM     14  H8  UNL     1     -14.342 -24.018  46.993  1.00  0.00     0.160 HD
HETATM   15  C7  UNL     1     -15.748 -21.128  47.900  1.00  0.00     0.191 C 
HETATM   16  N9  UNL     1     -14.640 -20.265  47.618  1.00  0.00    -0.083 NA
BRANCH  16  17
HETATM   17  O1  UNL     1     -15.052 -19.243  46.862  1.00  0.00    -0.292 OA
ATOM     18  H1  UNL     1     -15.914 -19.346  46.476  1.00  0.00     0.239 HD
ENDBRANCH  16  17
ENDBRANCH   9  10
BRANCH   1  19
HETATM   19  N1  UNL     1     -12.463 -18.960  45.722  1.00  0.00    -0.228 N 
HETATM   20  C1  UNL     1     -12.652 -17.642  45.241  1.00  0.00     0.165 C 
ATOM     21  H1  UNL     1     -12.969 -19.699  45.234  1.00  0.00     0.177 HD
ENDBRANCH   1  19
BRANCH   4  22
HETATM   22  N3  UNL     1      -8.671 -18.651  48.258  1.00  0.00    -0.234 N 
ATOM     23  H32 UNL     1      -7.832 -19.224  48.349  1.00  0.00     0.174 HD
ATOM     24  H31 UNL     1      -8.589 -17.640  48.368  1.00  0.00     0.174 HD
ENDBRANCH   4  22
TORSDOF 4
ENDMDL
MODEL 4
REMARK VINA RESULT: -5.078979206      2.262      5.167
REMARK  4 active torsions:
REMARK  status: ('A' for Active; 'I' for Inactive)
REMARK    1  A    between atoms: N1_2  and  C2_4 
REMARK    2  A    between atoms: C3_7  and  N3_8 
REMARK    3  A    between atoms: N6_15  and  N7_16 
REMARK    4  A    between atoms: N9_22  and  O1_23 
ROOT
HETATM    1  C2  UNL     1     -10.799 -19.391  48.138  1.00  0.00     0.717 A 
HETATM    2  N2  UNL     1     -11.542 -19.081  47.065  1.00  0.00    -0.021 N 
ATOM      3  H2  UNL     1     -11.398 -18.197  46.578  1.00  0.00     0.203 HD
HETATM    4  C3  UNL     1     -12.490 -19.956  46.634  1.00  0.00     0.693 A 
HETATM    5  N4  UNL     1     -12.651 -21.106  47.296  1.00  0.00    -0.161 N 
ATOM      6  H4  UNL     1     -13.361 -21.763  46.973  1.00  0.00     0.187 HD
HETATM    7  C4  UNL     1     -11.905 -21.431  48.381  1.00  0.00     0.247 A 
HETATM    8  N5  UNL     1     -12.129 -22.694  49.042  1.00  0.00    -0.060 NA
HETATM    9  N6  UNL     1     -10.978 -20.575  48.807  1.00  0.00    -0.039 N 
ENDROOT
BRANCH   9  10
HETATM   10  N7  UNL     1     -10.184 -20.858  49.942  1.00  0.00    -0.188 N 
HETATM   11  C5  UNL     1      -8.974 -21.624  49.810  1.00  0.00     0.288 C 
HETATM   12  N8  UNL     1      -7.920 -20.976  50.536  1.00  0.00    -0.382 N 
HETATM   13  C6  UNL     1      -8.179 -20.283  51.576  1.00  0.00     0.075 C 
ATOM     14  H8  UNL     1      -6.955 -21.070  50.219  1.00  0.00     0.160 HD
HETATM   15  C7  UNL     1      -9.534 -20.094  52.104  1.00  0.00     0.191 C 
HETATM   16  N9  UNL     1     -10.586 -20.392  51.178  1.00  0.00    -0.083 NA
BRANCH  16  17
HETATM   17  O1  UNL     1     -11.522 -21.125  51.789  1.00  0.00    -0.292 OA
ATOM     18  H1  UNL     1     -12.099 -20.645  52.371  1.00  0.00     0.239 HD
ENDBRANCH  16  17
ENDBRANCH   9  10
BRANCH   1  19
HETATM   19  N1  UNL     1      -9.895 -18.627  48.579  1.00  0.00    -0.228 N 
HETATM   20  C1  UNL     1      -8.599 -18.443  48.043  1.00  0.00     0.165 C 
ATOM     21  H1  UNL     1     -10.125 -18.083  49.411  1.00  0.00     0.177 HD
ENDBRANCH   1  19
BRANCH   4  22
HETATM   22  N3  UNL     1     -13.211 -19.670  45.608  1.00  0.00    -0.234 N 
ATOM     23  H32 UNL     1     -12.839 -19.746  44.662  1.00  0.00     0.174 HD
ATOM     24  H31 UNL     1     -14.176 -19.361  45.732  1.00  0.00     0.174 HD
ENDBRANCH   4  22
TORSDOF 4
ENDMDL
MODEL 5
REMARK VINA RESULT: -5.002828181      1.942      5.161
REMARK  4 active torsions:
REMARK  status: ('A' for Active; 'I' for Inactive)
REMARK    1  A    between atoms: N1_2  and  C2_4 
REMARK    2  A    between atoms: C3_7  and  N3_8 
REMARK    3  A    between atoms: N6_15  and  N7_16 
REMARK    4  A    between atoms: N9_22  and  O1_23 
ROOT
HETATM    1  C2  UNL     1     -14.083 -21.097  47.132  1.00  0.00     0.717 A 
HETATM    2  N2  UNL     1     -14.964 -21.683  46.308  1.00  0.00    -0.021 N 
ATOM      3  H2  UNL     1     -15.720 -21.139  45.893  1.00  0.00     0.203 HD
HETATM    4  C3  UNL     1     -14.839 -23.009  46.031  1.00  0.00     0.693 A 
HETATM    5  N4  UNL     1     -13.836 -23.690  46.591  1.00  0.00    -0.161 N 
ATOM      6  H4  UNL     1     -13.741 -24.685  46.383  1.00  0.00     0.187 HD
HETATM    7  C4  UNL     1     -12.938 -23.109  47.426  1.00  0.00     0.247 A 
HETATM    8  N5  UNL     1     -11.875 -23.906  47.989  1.00  0.00    -0.060 NA
HETATM    9  N6  UNL     1     -13.058 -21.812  47.700  1.00  0.00    -0.039 N 
ENDROOT
BRANCH   9  10
HETATM   10  N7  UNL     1     -12.159 -21.161  48.576  1.00  0.00    -0.188 N 
HETATM   11  C5  UNL     1     -12.191 -21.436  49.987  1.00  0.00     0.288 C 
HETATM   12  N8  UNL     1     -10.853 -21.650  50.459  1.00  0.00    -0.382 N 
HETATM   13  C6  UNL     1      -9.867 -21.065  49.900  1.00  0.00     0.075 C 
ATOM     14  H8  UNL     1     -10.690 -22.274  51.249  1.00  0.00     0.160 HD
HETATM   15  C7  UNL     1     -10.008 -20.152  48.761  1.00  0.00     0.191 C 
HETATM   16  N9  UNL     1     -11.252 -20.257  48.058  1.00  0.00    -0.083 NA
BRANCH  16  17
HETATM   17  O1  UNL     1     -11.735 -19.032  47.825  1.00  0.00    -0.292 OA
ATOM     18  H1  UNL     1     -11.938 -18.522  48.600  1.00  0.00     0.239 HD
ENDBRANCH  16  17
ENDBRANCH   9  10
BRANCH   1  19
HETATM   19  N1  UNL     1     -14.138 -19.868  47.418  1.00  0.00    -0.228 N 
HETATM   20  C1  UNL     1     -15.296 -19.058  47.475  1.00  0.00     0.165 C 
ATOM     21  H1  UNL     1     -13.251 -19.410  47.630  1.00  0.00     0.177 HD
ENDBRANCH   1  19
BRANCH   4  22
HETATM   22  N3  UNL     1     -15.678 -23.584  45.243  1.00  0.00    -0.234 N 
ATOM     23  H32 UNL     1     -16.405 -23.052  44.765  1.00  0.00     0.174 HD
ATOM     24  H31 UNL     1     -15.624 -24.591  45.087  1.00  0.00     0.174 HD
ENDBRANCH   4  22
TORSDOF 4
ENDMDL
