MODEL 1
REMARK VINA RESULT: -7.616315057      0.000      0.000
REMARK  7 active torsions:
REMARK  status: ('A' for Active; 'I' for Inactive)
REMARK    1  A    between atoms: C1_2  and  C2_3 
REMARK       I    between atoms: C1_2  and  N3_26 
REMARK       I    between atoms: N1_7  and  C6_8 
REMARK    2  A    between atoms: C6_8  and  C7_10 
REMARK    3  A    between atoms: C7_10  and  C8_11 
REMARK    4  A    between atoms: C7_10  and  N2_18 
REMARK    5  A    between atoms: C8_11  and  C9_12 
REMARK    6  A    between atoms: N2_18  and  S1_20 
REMARK    7  A    between atoms: S1_20  and  C15_23 
ROOT
HETATM    1  C7  UNL     1       7.034   5.933  19.300  1.00  0.00     0.185 C 
ENDROOT
BRANCH   1   2
HETATM    2  C6  UNL     1       5.527   5.889  19.680  1.00  0.00     0.244 C 
HETATM    3  N1  UNL     1       5.065   5.341  20.830  1.00  0.00    -0.337 N 
HETATM    4  C2  UNL     1       3.685   5.380  21.412  1.00  0.00     0.179 C 
HETATM    5  C5  UNL     1       5.687   4.402  21.730  1.00  0.00     0.127 C 
HETATM    6  C3  UNL     1       3.406   3.922  21.172  1.00  0.00     0.037 C 
HETATM    7  C4  UNL     1       4.642   3.239  21.617  1.00  0.00     0.022 C 
HETATM    8  O2  UNL     1       4.757   6.384  18.830  1.00  0.00    -0.271 OA
BRANCH   4   9
HETATM    9  C1  UNL     1       3.837   5.811  22.779  1.00  0.00     0.242 C 
HETATM   10  O1  UNL     1       3.678   4.899  23.677  1.00  0.00    -0.271 OA
HETATM   11  N3  UNL     1       4.139   7.102  23.277  1.00  0.00    -0.350 N 
HETATM   12  C16 UNL     1       4.441   8.294  22.522  1.00  0.00     0.126 C 
HETATM   13  C19 UNL     1       4.187   7.485  24.712  1.00  0.00     0.126 C 
HETATM   14  C17 UNL     1       4.797   9.362  23.541  1.00  0.00     0.021 C 
HETATM   15  C18 UNL     1       3.784   8.954  24.624  1.00  0.00     0.021 C 
ENDBRANCH   4   9
ENDBRANCH   1   2
BRANCH   1  16
HETATM   16  C8  UNL     1       7.296   4.758  18.519  1.00  0.00     0.040 C 
BRANCH  16  17
HETATM   17  C9  UNL     1       8.313   3.737  19.031  1.00  0.00    -0.012 C 
HETATM   18  C10 UNL     1       9.131   3.429  17.757  1.00  0.00     0.005 C 
HETATM   19  C11 UNL     1      10.061   2.286  17.855  1.00  0.00     0.000 C 
HETATM   20  C12 UNL     1       9.418   1.056  18.417  1.00  0.00     0.000 C 
HETATM   21  C13 UNL     1       7.923   1.313  18.424  1.00  0.00     0.000 C 
HETATM   22  C14 UNL     1       7.650   2.445  19.401  1.00  0.00     0.005 C 
ENDBRANCH  16  17
ENDBRANCH   1  16
BRANCH   1  23
HETATM   23  N2  UNL     1       7.278   7.199  18.832  1.00  0.00    -0.303 N 
ATOM     24  H2  UNL     1       7.320   7.279  17.816  1.00  0.00     0.173 HD
BRANCH  23  25
HETATM   25  S1  UNL     1       7.511   8.592  19.638  1.00  0.00     0.258 S 
HETATM   26  O3  UNL     1       8.255   9.588  18.704  1.00  0.00    -0.203 OA
HETATM   27  O4  UNL     1       6.217   9.372  19.928  1.00  0.00    -0.203 OA
BRANCH  25  28
HETATM   28  C15 UNL     1       8.431   8.642  21.135  1.00  0.00     0.320 C 
HETATM   29 CL1  UNL     1       7.806   7.285  22.192  1.00  0.00    -0.089 Cl
HETATM   30 CL2  UNL     1       8.008  10.123  22.014  1.00  0.00    -0.089 Cl
ENDBRANCH  25  28
ENDBRANCH  23  25
ENDBRANCH   1  23
TORSDOF 7
ENDMDL
MODEL 2
REMARK VINA RESULT: -7.550431198      1.596      3.249
REMARK  7 active torsions:
REMARK  status: ('A' for Active; 'I' for Inactive)
REMARK    1  A    between atoms: C1_2  and  C2_3 
REMARK       I    between atoms: C1_2  and  N3_26 
REMARK       I    between atoms: N1_7  and  C6_8 
REMARK    2  A    between atoms: C6_8  and  C7_10 
REMARK    3  A    between atoms: C7_10  and  C8_11 
REMARK    4  A    between atoms: C7_10  and  N2_18 
REMARK    5  A    between atoms: C8_11  and  C9_12 
REMARK    6  A    between atoms: N2_18  and  S1_20 
REMARK    7  A    between atoms: S1_20  and  C15_23 
ROOT
HETATM    1  C7  UNL     1       7.558   6.360  19.667  1.00  0.00     0.185 C 
ENDROOT
BRANCH   1   2
HETATM    2  C6  UNL     1       6.946   6.456  21.092  1.00  0.00     0.244 C 
HETATM    3  N1  UNL     1       5.611   6.496  21.329  1.00  0.00    -0.337 N 
HETATM    4  C2  UNL     1       4.876   6.410  22.630  1.00  0.00     0.179 C 
HETATM    5  C5  UNL     1       4.520   6.834  20.449  1.00  0.00     0.127 C 
HETATM    6  C3  UNL     1       4.430   7.847  22.619  1.00  0.00     0.037 C 
HETATM    7  C4  UNL     1       3.956   8.067  21.234  1.00  0.00     0.022 C 
HETATM    8  O2  UNL     1       7.781   6.510  22.020  1.00  0.00    -0.271 OA
BRANCH   4   9
HETATM    9  C1  UNL     1       3.864   5.399  22.454  1.00  0.00     0.242 C 
HETATM   10  O1  UNL     1       2.643   5.817  22.466  1.00  0.00    -0.271 OA
HETATM   11  N3  UNL     1       4.022   4.004  22.267  1.00  0.00    -0.350 N 
HETATM   12  C16 UNL     1       5.252   3.262  22.136  1.00  0.00     0.126 C 
HETATM   13  C19 UNL     1       2.918   3.012  22.185  1.00  0.00     0.126 C 
HETATM   14  C17 UNL     1       4.853   1.826  21.844  1.00  0.00     0.021 C 
HETATM   15  C18 UNL     1       3.610   1.775  22.748  1.00  0.00     0.021 C 
ENDBRANCH   4   9
ENDBRANCH   1   2
BRANCH   1  16
HETATM   16  C8  UNL     1       7.266   5.041  19.182  1.00  0.00     0.040 C 
BRANCH  16  17
HETATM   17  C9  UNL     1       8.265   3.914  19.443  1.00  0.00    -0.012 C 
HETATM   18  C10 UNL     1       8.957   3.770  18.068  1.00  0.00     0.005 C 
HETATM   19  C11 UNL     1       9.829   2.589  17.912  1.00  0.00     0.000 C 
HETATM   20  C12 UNL     1       9.170   1.315  18.342  1.00  0.00     0.000 C 
HETATM   21  C13 UNL     1       7.696   1.628  18.522  1.00  0.00     0.000 C 
HETATM   22  C14 UNL     1       7.568   2.609  19.676  1.00  0.00     0.005 C 
ENDBRANCH  16  17
ENDBRANCH   1  16
BRANCH   1  23
HETATM   23  N2  UNL     1       7.168   7.493  19.001  1.00  0.00    -0.303 N 
ATOM     24  H2  UNL     1       6.528   7.335  18.223  1.00  0.00     0.173 HD
BRANCH  23  25
HETATM   25  S1  UNL     1       7.564   9.050  19.254  1.00  0.00     0.258 S 
HETATM   26  O3  UNL     1       9.056   9.120  19.687  1.00  0.00    -0.203 OA
HETATM   27  O4  UNL     1       7.589   9.907  17.976  1.00  0.00    -0.203 OA
BRANCH  25  28
HETATM   28  C15 UNL     1       6.727  10.027  20.453  1.00  0.00     0.320 C 
HETATM   29 CL1  UNL     1       6.881  11.772  19.922  1.00  0.00    -0.089 Cl
HETATM   30 CL2  UNL     1       7.622   9.944  21.980  1.00  0.00    -0.089 Cl
ENDBRANCH  25  28
ENDBRANCH  23  25
ENDBRANCH   1  23
TORSDOF 7
ENDMDL
MODEL 3
REMARK VINA RESULT: -7.529177811      2.962      4.664
REMARK  7 active torsions:
REMARK  status: ('A' for Active; 'I' for Inactive)
REMARK    1  A    between atoms: C1_2  and  C2_3 
REMARK       I    between atoms: C1_2  and  N3_26 
REMARK       I    between atoms: N1_7  and  C6_8 
REMARK    2  A    between atoms: C6_8  and  C7_10 
REMARK    3  A    between atoms: C7_10  and  C8_11 
REMARK    4  A    between atoms: C7_10  and  N2_18 
REMARK    5  A    between atoms: C8_11  and  C9_12 
REMARK    6  A    between atoms: N2_18  and  S1_20 
REMARK    7  A    between atoms: S1_20  and  C15_23 
ROOT
HETATM    1  C7  UNL     1       6.269   4.904  20.312  1.00  0.00     0.185 C 
ENDROOT
BRANCH   1   2
HETATM    2  C6  UNL     1       7.277   5.917  20.925  1.00  0.00     0.244 C 
HETATM    3  N1  UNL     1       7.132   7.261  20.832  1.00  0.00    -0.337 N 
HETATM    4  C2  UNL     1       7.908   8.348  21.511  1.00  0.00     0.179 C 
HETATM    5  C5  UNL     1       6.344   8.051  19.919  1.00  0.00     0.127 C 
HETATM    6  C3  UNL     1       8.590   8.819  20.255  1.00  0.00     0.037 C 
HETATM    7  C4  UNL     1       7.504   8.866  19.250  1.00  0.00     0.022 C 
HETATM    8  O2  UNL     1       8.255   5.398  21.504  1.00  0.00    -0.271 OA
BRANCH   4   9
HETATM    9  C1  UNL     1       6.932   9.226  22.107  1.00  0.00     0.242 C 
HETATM   10  O1  UNL     1       6.981  10.459  21.729  1.00  0.00    -0.271 OA
HETATM   11  N3  UNL     1       5.922   8.924  23.051  1.00  0.00    -0.350 N 
HETATM   12  C16 UNL     1       5.577   7.634  23.597  1.00  0.00     0.126 C 
HETATM   13  C19 UNL     1       5.011   9.911  23.689  1.00  0.00     0.126 C 
HETATM   14  C17 UNL     1       4.357   7.856  24.474  1.00  0.00     0.021 C 
HETATM   15  C18 UNL     1       4.758   9.232  25.031  1.00  0.00     0.021 C 
ENDBRANCH   4   9
ENDBRANCH   1   2
BRANCH   1  16
HETATM   16  C8  UNL     1       6.917   4.317  19.174  1.00  0.00     0.040 C 
BRANCH  16  17
HETATM   17  C9  UNL     1       8.075   3.344  19.398  1.00  0.00    -0.012 C 
HETATM   18  C10 UNL     1       8.906   3.526  18.108  1.00  0.00     0.005 C 
HETATM   19  C11 UNL     1       9.987   2.543  17.900  1.00  0.00     0.000 C 
HETATM   20  C12 UNL     1       9.532   1.127  18.074  1.00  0.00     0.000 C 
HETATM   21  C13 UNL     1       8.015   1.162  18.119  1.00  0.00     0.000 C 
HETATM   22  C14 UNL     1       7.605   1.921  19.371  1.00  0.00     0.005 C 
ENDBRANCH  16  17
ENDBRANCH   1  16
BRANCH   1  23
HETATM   23  N2  UNL     1       5.790   4.155  21.355  1.00  0.00    -0.303 N 
ATOM     24  H2  UNL     1       6.507   3.729  21.942  1.00  0.00     0.173 HD
BRANCH  23  25
HETATM   25  S1  UNL     1       4.260   3.838  21.806  1.00  0.00     0.258 S 
HETATM   26  O3  UNL     1       4.166   3.942  23.355  1.00  0.00    -0.203 OA
HETATM   27  O4  UNL     1       3.244   4.911  21.378  1.00  0.00    -0.203 OA
BRANCH  25  28
HETATM   28  C15 UNL     1       3.494   2.299  21.436  1.00  0.00     0.320 C 
HETATM   29 CL1  UNL     1       4.227   1.054  22.561  1.00  0.00    -0.089 Cl
HETATM   30 CL2  UNL     1       3.998   1.788  19.815  1.00  0.00    -0.089 Cl
ENDBRANCH  25  28
ENDBRANCH  23  25
ENDBRANCH   1  23
TORSDOF 7
ENDMDL
MODEL 4
REMARK VINA RESULT: -7.497215356      3.284      4.834
REMARK  7 active torsions:
REMARK  status: ('A' for Active; 'I' for Inactive)
REMARK    1  A    between atoms: C1_2  and  C2_3 
REMARK       I    between atoms: C1_2  and  N3_26 
REMARK       I    between atoms: N1_7  and  C6_8 
REMARK    2  A    between atoms: C6_8  and  C7_10 
REMARK    3  A    between atoms: C7_10  and  C8_11 
REMARK    4  A    between atoms: C7_10  and  N2_18 
REMARK    5  A    between atoms: C8_11  and  C9_12 
REMARK    6  A    between atoms: N2_18  and  S1_20 
REMARK    7  A    between atoms: S1_20  and  C15_23 
ROOT
HETATM    1  C7  UNL     1       7.350   6.204  19.629  1.00  0.00     0.185 C 
ENDROOT
BRANCH   1   2
HETATM    2  C6  UNL     1       6.797   7.028  20.825  1.00  0.00     0.244 C 
HETATM    3  N1  UNL     1       7.415   8.127  21.323  1.00  0.00    -0.337 N 
HETATM    4  C2  UNL     1       6.925   9.114  22.337  1.00  0.00     0.179 C 
HETATM    5  C5  UNL     1       8.783   8.565  21.191  1.00  0.00     0.127 C 
HETATM    6  C3  UNL     1       7.885   8.680  23.411  1.00  0.00     0.037 C 
HETATM    7  C4  UNL     1       9.182   8.554  22.706  1.00  0.00     0.022 C 
HETATM    8  O2  UNL     1       5.734   6.592  21.316  1.00  0.00    -0.271 OA
BRANCH   4   9
HETATM    9  C1  UNL     1       7.124  10.419  21.756  1.00  0.00     0.242 C 
HETATM   10  O1  UNL     1       7.868  11.227  22.432  1.00  0.00    -0.271 OA
HETATM   11  N3  UNL     1       6.614  10.939  20.542  1.00  0.00    -0.350 N 
HETATM   12  C16 UNL     1       5.823  10.256  19.548  1.00  0.00     0.126 C 
HETATM   13  C19 UNL     1       6.791  12.333  20.058  1.00  0.00     0.126 C 
HETATM   14  C17 UNL     1       5.642  11.235  18.402  1.00  0.00     0.021 C 
HETATM   15  C18 UNL     1       5.511  12.513  19.247  1.00  0.00     0.021 C 
ENDBRANCH   4   9
ENDBRANCH   1   2
BRANCH   1  16
HETATM   16  C8  UNL     1       6.948   4.844  19.846  1.00  0.00     0.040 C 
BRANCH  16  17
HETATM   17  C9  UNL     1       8.016   3.751  19.898  1.00  0.00    -0.012 C 
HETATM   18  C10 UNL     1       8.657   3.858  18.495  1.00  0.00     0.005 C 
HETATM   19  C11 UNL     1       9.583   2.768  18.131  1.00  0.00     0.000 C 
HETATM   20  C12 UNL     1       9.011   1.407  18.381  1.00  0.00     0.000 C 
HETATM   21  C13 UNL     1       7.532   1.601  18.656  1.00  0.00     0.000 C 
HETATM   22  C14 UNL     1       7.399   2.387  19.951  1.00  0.00     0.005 C 
ENDBRANCH  16  17
ENDBRANCH   1  16
BRANCH   1  23
HETATM   23  N2  UNL     1       7.019   6.899  18.494  1.00  0.00    -0.303 N 
ATOM     24  H2  UNL     1       7.516   7.781  18.371  1.00  0.00     0.173 HD
BRANCH  23  25
HETATM   25  S1  UNL     1       5.961   6.539  17.312  1.00  0.00     0.258 S 
HETATM   26  O3  UNL     1       4.577   6.244  17.957  1.00  0.00    -0.203 OA
HETATM   27  O4  UNL     1       5.613   7.728  16.400  1.00  0.00    -0.203 OA
BRANCH  25  28
HETATM   28  C15 UNL     1       6.224   5.181  16.227  1.00  0.00     0.320 C 
HETATM   29 CL1  UNL     1       5.568   5.671  14.590  1.00  0.00    -0.089 Cl
HETATM   30 CL2  UNL     1       5.191   3.835  16.738  1.00  0.00    -0.089 Cl
ENDBRANCH  25  28
ENDBRANCH  23  25
ENDBRANCH   1  23
TORSDOF 7
ENDMDL
MODEL 5
REMARK VINA RESULT: -7.481953400      2.812      4.542
REMARK  7 active torsions:
REMARK  status: ('A' for Active; 'I' for Inactive)
REMARK    1  A    between atoms: C1_2  and  C2_3 
REMARK       I    between atoms: C1_2  and  N3_26 
REMARK       I    between atoms: N1_7  and  C6_8 
REMARK    2  A    between atoms: C6_8  and  C7_10 
REMARK    3  A    between atoms: C7_10  and  C8_11 
REMARK    4  A    between atoms: C7_10  and  N2_18 
REMARK    5  A    between atoms: C8_11  and  C9_12 
REMARK    6  A    between atoms: N2_18  and  S1_20 
REMARK    7  A    between atoms: S1_20  and  C15_23 
ROOT
HETATM    1  C7  UNL     1       6.548   5.639  20.858  1.00  0.00     0.185 C 
ENDROOT
BRANCH   1   2
HETATM    2  C6  UNL     1       7.026   7.029  21.363  1.00  0.00     0.244 C 
HETATM    3  N1  UNL     1       6.303   8.166  21.215  1.00  0.00    -0.337 N 
HETATM    4  C2  UNL     1       6.542   9.525  21.796  1.00  0.00     0.179 C 
HETATM    5  C5  UNL     1       5.220   8.468  20.313  1.00  0.00     0.127 C 
HETATM    6  C3  UNL     1       6.909  10.161  20.482  1.00  0.00     0.037 C 
HETATM    7  C4  UNL     1       5.882   9.660  19.540  1.00  0.00     0.022 C 
HETATM    8  O2  UNL     1       8.150   7.031  21.909  1.00  0.00    -0.271 OA
BRANCH   4   9
HETATM    9  C1  UNL     1       5.299   9.928  22.404  1.00  0.00     0.242 C 
HETATM   10  O1  UNL     1       4.781  11.020  21.955  1.00  0.00    -0.271 OA
HETATM   11  N3  UNL     1       4.562   9.288  23.430  1.00  0.00    -0.350 N 
HETATM   12  C16 UNL     1       4.847   8.027  24.071  1.00  0.00     0.126 C 
HETATM   13  C19 UNL     1       3.330   9.819  24.070  1.00  0.00     0.126 C 
HETATM   14  C17 UNL     1       3.687   7.758  25.013  1.00  0.00     0.021 C 
HETATM   15  C18 UNL     1       3.452   9.210  25.463  1.00  0.00     0.021 C 
ENDBRANCH   4   9
ENDBRANCH   1   2
BRANCH   1  16
HETATM   16  C8  UNL     1       7.683   5.011  20.246  1.00  0.00     0.040 C 
BRANCH  16  17
HETATM   17  C9  UNL     1       7.461   4.051  19.077  1.00  0.00    -0.012 C 
HETATM   18  C10 UNL     1       7.650   2.672  19.748  1.00  0.00     0.005 C 
HETATM   19  C11 UNL     1       7.732   1.520  18.830  1.00  0.00     0.000 C 
HETATM   20  C12 UNL     1       8.704   1.732  17.711  1.00  0.00     0.000 C 
HETATM   21  C13 UNL     1       9.511   2.967  18.066  1.00  0.00     0.000 C 
HETATM   22  C14 UNL     1       8.564   4.156  18.067  1.00  0.00     0.005 C 
ENDBRANCH  16  17
ENDBRANCH   1  16
BRANCH   1  23
HETATM   23  N2  UNL     1       5.859   5.066  21.896  1.00  0.00    -0.303 N 
ATOM     24  H2  UNL     1       6.410   4.902  22.738  1.00  0.00     0.173 HD
BRANCH  23  25
HETATM   25  S1  UNL     1       4.301   4.607  21.998  1.00  0.00     0.258 S 
HETATM   26  O3  UNL     1       3.908   4.516  23.500  1.00  0.00    -0.203 OA
HETATM   27  O4  UNL     1       3.302   5.664  21.496  1.00  0.00    -0.203 OA
BRANCH  25  28
HETATM   28  C15 UNL     1       3.748   3.083  21.319  1.00  0.00     0.320 C 
HETATM   29 CL1  UNL     1       4.886   1.784  21.925  1.00  0.00    -0.089 Cl
HETATM   30 CL2  UNL     1       4.000   3.116  19.565  1.00  0.00    -0.089 Cl
ENDBRANCH  25  28
ENDBRANCH  23  25
ENDBRANCH   1  23
TORSDOF 7
ENDMDL
