MODEL 1
REMARK VINA RESULT: -7.844205766      0.000      0.000
REMARK  8 active torsions:
REMARK  status: ('A' for Active; 'I' for Inactive)
REMARK    1  A    between atoms: C2_2  and  C4_4 
REMARK    2  A    between atoms: C4_4  and  C5_5 
REMARK    3  A    between atoms: C8_8  and  C9_9 
REMARK       I    between atoms: C9_9  and  N1_11 
REMARK    4  A    between atoms: N1_11  and  C10_13 
REMARK    5  A    between atoms: C12_15  and  O2_16 
REMARK    6  A    between atoms: C12_15  and  N2_18 
REMARK    7  A    between atoms: C15_22  and  N3_23 
REMARK    8  A    between atoms: C20_29  and  C21_30 
ROOT
HETATM    1  C10 UNL     1       4.830   5.495  21.500  1.00  0.00     0.059 C 
HETATM    2  C11 UNL     1       3.379   5.075  21.103  1.00  0.00     0.073 C 
HETATM    3  C12 UNL     1       4.844   6.258  22.696  1.00  0.00     0.165 C 
ENDROOT
BRANCH   1   4
HETATM    4  N1  UNL     1       5.821   5.209  20.580  1.00  0.00    -0.325 N 
HETATM    5  C9  UNL     1       6.540   3.956  20.677  1.00  0.00     0.253 C 
HETATM    6  O1  UNL     1       6.156   3.153  21.584  1.00  0.00    -0.271 OA
ATOM      7  H1  UNL     1       6.045   5.875  19.839  1.00  0.00     0.168 HD
BRANCH   5   8
HETATM    8  C8  UNL     1       7.659   3.540  19.865  1.00  0.00     0.277 C 
HETATM    9  C7  UNL     1       8.202   4.414  18.796  1.00  0.00     0.043 C 
HETATM   10  C6  UNL     1       8.914   3.585  17.718  1.00  0.00     0.009 C 
HETATM   11  C5  UNL     1       9.416   2.263  18.178  1.00  0.00     0.011 C 
HETATM   12  C24 UNL     1       8.327   1.516  18.934  1.00  0.00     0.238 C 
HETATM   13  N4  UNL     1       7.143   2.340  19.085  1.00  0.00    -0.062 N 
ATOM     14  H42 UNL     1       6.346   1.866  19.510  1.00  0.00     0.278 HD
ATOM     15  H41 UNL     1       6.670   2.571  18.211  1.00  0.00     0.278 HD
BRANCH  11  16
HETATM   16  C4  UNL     1       9.836   1.406  17.025  1.00  0.00     0.010 C 
BRANCH  16  17
HETATM   17  C2  UNL     1      10.017  -0.047  17.309  1.00  0.00    -0.022 C 
HETATM   18  C1  UNL     1      11.490  -0.207  17.717  1.00  0.00     0.009 C 
HETATM   19  C3  UNL     1       9.809  -0.929  16.122  1.00  0.00     0.009 C 
ENDBRANCH  16  17
ENDBRANCH  11  16
ENDBRANCH   5   8
ENDBRANCH   1   4
BRANCH   3  20
HETATM   20  O2  UNL     1       4.596   5.545  23.782  1.00  0.00    -0.344 OA
ATOM     21  H2  UNL     1       3.672   5.368  23.919  1.00  0.00     0.219 HD
ENDBRANCH   3  20
BRANCH   3  22
HETATM   22  N2  UNL     1       5.038   7.585  23.008  1.00  0.00    -0.328 N 
HETATM   23  C13 UNL     1       4.126   8.452  23.726  1.00  0.00     0.170 C 
HETATM   24  C14 UNL     1       4.160   9.593  22.639  1.00  0.00     0.227 C 
HETATM   25  F1  UNL     1       3.932  10.746  23.315  1.00  0.00    -0.245 F 
HETATM   26  C15 UNL     1       5.601   9.515  22.043  1.00  0.00     0.304 C 
HETATM   27  C20 UNL     1       6.177   8.524  22.939  1.00  0.00     0.031 C 
BRANCH  26  28
HETATM   28  N3  UNL     1       6.026  10.809  21.892  1.00  0.00     0.103 N 
HETATM   29  C16 UNL     1       7.322  11.281  22.024  1.00  0.00     0.275 C 
HETATM   30  C17 UNL     1       7.972  11.112  20.638  1.00  0.00     0.052 C 
HETATM   31  C18 UNL     1       6.847  11.650  19.793  1.00  0.00     0.112 C 
HETATM   32 CL1  UNL     1       6.860  11.020  18.137  1.00  0.00    -0.123 Cl
HETATM   33  C19 UNL     1       5.598  11.314  20.559  1.00  0.00     0.293 C 
ENDBRANCH  26  28
BRANCH  27  34
HETATM   34  C21 UNL     1       7.489   7.950  22.942  1.00  0.00     0.026 C 
HETATM   35  C22 UNL     1       7.911   7.722  21.464  1.00  0.00     0.016 C 
HETATM   36  C23 UNL     1       8.656   8.386  23.677  1.00  0.00     0.016 C 
ENDBRANCH  27  34
ENDBRANCH   3  22
TORSDOF 8
ENDMDL
MODEL 2
REMARK VINA RESULT: -7.788559061      1.324      1.608
REMARK  8 active torsions:
REMARK  status: ('A' for Active; 'I' for Inactive)
REMARK    1  A    between atoms: C2_2  and  C4_4 
REMARK    2  A    between atoms: C4_4  and  C5_5 
REMARK    3  A    between atoms: C8_8  and  C9_9 
REMARK       I    between atoms: C9_9  and  N1_11 
REMARK    4  A    between atoms: N1_11  and  C10_13 
REMARK    5  A    between atoms: C12_15  and  O2_16 
REMARK    6  A    between atoms: C12_15  and  N2_18 
REMARK    7  A    between atoms: C15_22  and  N3_23 
REMARK    8  A    between atoms: C20_29  and  C21_30 
ROOT
HETATM    1  C10 UNL     1       4.217   5.633  22.440  1.00  0.00     0.059 C 
HETATM    2  C11 UNL     1       2.848   5.050  21.962  1.00  0.00     0.073 C 
HETATM    3  C12 UNL     1       4.037   6.691  23.370  1.00  0.00     0.165 C 
ENDROOT
BRANCH   1   4
HETATM    4  N1  UNL     1       5.342   5.160  21.792  1.00  0.00    -0.325 N 
HETATM    5  C9  UNL     1       5.764   5.784  20.556  1.00  0.00     0.253 C 
HETATM    6  O1  UNL     1       5.093   6.793  20.175  1.00  0.00    -0.271 OA
ATOM      7  H1  UNL     1       5.870   4.378  22.181  1.00  0.00     0.168 HD
BRANCH   5   8
HETATM    8  C8  UNL     1       6.850   5.360  19.705  1.00  0.00     0.277 C 
HETATM    9  C7  UNL     1       6.816   5.592  18.240  1.00  0.00     0.043 C 
HETATM   10  C6  UNL     1       7.698   4.576  17.502  1.00  0.00     0.009 C 
HETATM   11  C5  UNL     1       8.789   3.986  18.321  1.00  0.00     0.011 C 
HETATM   12  C24 UNL     1       8.247   3.501  19.658  1.00  0.00     0.238 C 
HETATM   13  N4  UNL     1       6.845   3.842  19.802  1.00  0.00    -0.062 N 
ATOM     14  H42 UNL     1       6.401   3.470  20.641  1.00  0.00     0.278 HD
ATOM     15  H41 UNL     1       6.223   3.375  19.142  1.00  0.00     0.278 HD
BRANCH  11  16
HETATM   16  C4  UNL     1       9.417   2.813  17.635  1.00  0.00     0.010 C 
BRANCH  16  17
HETATM   17  C2  UNL     1       9.012   1.463  18.122  1.00  0.00    -0.022 C 
HETATM   18  C1  UNL     1      10.260   0.579  17.970  1.00  0.00     0.009 C 
HETATM   19  C3  UNL     1       7.937   0.819  17.308  1.00  0.00     0.009 C 
ENDBRANCH  16  17
ENDBRANCH  11  16
ENDBRANCH   5   8
ENDBRANCH   1   4
BRANCH   3  20
HETATM   20  O2  UNL     1       3.626   6.285  24.561  1.00  0.00    -0.344 OA
ATOM     21  H2  UNL     1       2.761   5.893  24.551  1.00  0.00     0.219 HD
ENDBRANCH   3  20
BRANCH   3  22
HETATM   22  N2  UNL     1       4.170   8.061  23.331  1.00  0.00    -0.328 N 
HETATM   23  C13 UNL     1       3.102   9.039  23.369  1.00  0.00     0.170 C 
HETATM   24  C14 UNL     1       3.604   9.818  22.094  1.00  0.00     0.227 C 
HETATM   25  F1  UNL     1       3.200  11.100  22.268  1.00  0.00    -0.245 F 
HETATM   26  C15 UNL     1       5.157   9.661  22.132  1.00  0.00     0.304 C 
HETATM   27  C20 UNL     1       5.300   9.008  23.424  1.00  0.00     0.031 C 
BRANCH  26  28
HETATM   28  N3  UNL     1       5.676  10.880  21.782  1.00  0.00     0.103 N 
HETATM   29  C16 UNL     1       6.963  11.335  22.016  1.00  0.00     0.275 C 
HETATM   30  C17 UNL     1       7.802  10.853  20.817  1.00  0.00     0.052 C 
HETATM   31  C18 UNL     1       6.849  11.224  19.711  1.00  0.00     0.112 C 
HETATM   32 CL1  UNL     1       7.073  10.250  18.247  1.00  0.00    -0.123 Cl
HETATM   33  C19 UNL     1       5.483  11.095  20.322  1.00  0.00     0.293 C 
ENDBRANCH  26  28
BRANCH  27  34
HETATM   34  C21 UNL     1       6.482   8.543  24.086  1.00  0.00     0.026 C 
HETATM   35  C22 UNL     1       7.408   7.909  23.012  1.00  0.00     0.016 C 
HETATM   36  C23 UNL     1       7.315   9.250  25.033  1.00  0.00     0.016 C 
ENDBRANCH  27  34
ENDBRANCH   3  22
TORSDOF 8
ENDMDL
MODEL 3
REMARK VINA RESULT: -7.762315298      1.698      2.485
REMARK  8 active torsions:
REMARK  status: ('A' for Active; 'I' for Inactive)
REMARK    1  A    between atoms: C2_2  and  C4_4 
REMARK    2  A    between atoms: C4_4  and  C5_5 
REMARK    3  A    between atoms: C8_8  and  C9_9 
REMARK       I    between atoms: C9_9  and  N1_11 
REMARK    4  A    between atoms: N1_11  and  C10_13 
REMARK    5  A    between atoms: C12_15  and  O2_16 
REMARK    6  A    between atoms: C12_15  and  N2_18 
REMARK    7  A    between atoms: C15_22  and  N3_23 
REMARK    8  A    between atoms: C20_29  and  C21_30 
ROOT
HETATM    1  C10 UNL     1       3.945   6.394  24.003  1.00  0.00     0.059 C 
HETATM    2  C11 UNL     1       2.457   5.968  24.217  1.00  0.00     0.073 C 
HETATM    3  C12 UNL     1       4.164   7.739  24.399  1.00  0.00     0.165 C 
ENDROOT
BRANCH   1   4
HETATM    4  N1  UNL     1       4.750   5.487  23.340  1.00  0.00    -0.325 N 
HETATM    5  C9  UNL     1       4.790   5.499  21.894  1.00  0.00     0.253 C 
HETATM    6  O1  UNL     1       4.116   6.409  21.317  1.00  0.00    -0.271 OA
ATOM      7  H1  UNL     1       5.310   4.815  23.865  1.00  0.00     0.168 HD
BRANCH   5   8
HETATM    8  C8  UNL     1       5.496   4.569  21.044  1.00  0.00     0.277 C 
HETATM    9  C7  UNL     1       5.716   3.162  21.458  1.00  0.00     0.043 C 
HETATM   10  C6  UNL     1       6.944   2.568  20.754  1.00  0.00     0.009 C 
HETATM   11  C5  UNL     1       7.303   3.223  19.469  1.00  0.00     0.011 C 
HETATM   12  C24 UNL     1       7.338   4.735  19.634  1.00  0.00     0.238 C 
HETATM   13  N4  UNL     1       6.912   5.120  20.966  1.00  0.00    -0.062 N 
ATOM     14  H42 UNL     1       6.994   6.116  21.167  1.00  0.00     0.278 HD
ATOM     15  H41 UNL     1       7.530   4.812  21.717  1.00  0.00     0.278 HD
BRANCH  11  16
HETATM   16  C4  UNL     1       8.653   2.788  18.992  1.00  0.00     0.010 C 
BRANCH  16  17
HETATM   17  C2  UNL     1       8.781   1.364  18.567  1.00  0.00    -0.022 C 
HETATM   18  C1  UNL     1      10.157   1.258  17.890  1.00  0.00     0.009 C 
HETATM   19  C3  UNL     1       7.775   0.939  17.548  1.00  0.00     0.009 C 
ENDBRANCH  16  17
ENDBRANCH  11  16
ENDBRANCH   5   8
ENDBRANCH   1   4
BRANCH   3  20
HETATM   20  O2  UNL     1       4.148   7.915  25.710  1.00  0.00    -0.344 OA
ATOM     21  H2  UNL     1       4.821   7.424  26.168  1.00  0.00     0.219 HD
ENDBRANCH   3  20
BRANCH   3  22
HETATM   22  N2  UNL     1       4.376   8.930  23.741  1.00  0.00    -0.328 N 
HETATM   23  C13 UNL     1       3.432  10.019  23.591  1.00  0.00     0.170 C 
HETATM   24  C14 UNL     1       3.607  10.118  22.027  1.00  0.00     0.227 C 
HETATM   25  F1  UNL     1       3.358  11.413  21.715  1.00  0.00    -0.245 F 
HETATM   26  C15 UNL     1       5.092   9.709  21.777  1.00  0.00     0.304 C 
HETATM   27  C20 UNL     1       5.548   9.612  23.156  1.00  0.00     0.031 C 
BRANCH  26  28
HETATM   28  N3  UNL     1       5.574  10.569  20.826  1.00  0.00     0.103 N 
HETATM   29  C16 UNL     1       6.469  11.609  21.021  1.00  0.00     0.275 C 
HETATM   30  C17 UNL     1       7.871  10.985  20.886  1.00  0.00     0.052 C 
HETATM   31  C18 UNL     1       7.631  10.156  19.651  1.00  0.00     0.112 C 
HETATM   32 CL1  UNL     1       8.720   8.762  19.529  1.00  0.00    -0.123 Cl
HETATM   33  C19 UNL     1       6.177   9.785  19.715  1.00  0.00     0.293 C 
ENDBRANCH  26  28
BRANCH  27  34
HETATM   34  C21 UNL     1       6.834   9.243  23.668  1.00  0.00     0.026 C 
HETATM   35  C22 UNL     1       7.364   8.060  22.809  1.00  0.00     0.016 C 
HETATM   36  C23 UNL     1       7.953  10.102  23.984  1.00  0.00     0.016 C 
ENDBRANCH  27  34
ENDBRANCH   3  22
TORSDOF 8
ENDMDL
MODEL 4
REMARK VINA RESULT: -7.604659179      2.012      3.422
REMARK  8 active torsions:
REMARK  status: ('A' for Active; 'I' for Inactive)
REMARK    1  A    between atoms: C2_2  and  C4_4 
REMARK    2  A    between atoms: C4_4  and  C5_5 
REMARK    3  A    between atoms: C8_8  and  C9_9 
REMARK       I    between atoms: C9_9  and  N1_11 
REMARK    4  A    between atoms: N1_11  and  C10_13 
REMARK    5  A    between atoms: C12_15  and  O2_16 
REMARK    6  A    between atoms: C12_15  and  N2_18 
REMARK    7  A    between atoms: C15_22  and  N3_23 
REMARK    8  A    between atoms: C20_29  and  C21_30 
ROOT
HETATM    1  C10 UNL     1       7.827   8.492  23.449  1.00  0.00     0.059 C 
HETATM    2  C11 UNL     1       7.584   7.832  24.845  1.00  0.00     0.073 C 
HETATM    3  C12 UNL     1       7.291   9.805  23.393  1.00  0.00     0.165 C 
ENDROOT
BRANCH   1   4
HETATM    4  N1  UNL     1       8.360   7.673  22.472  1.00  0.00    -0.325 N 
HETATM    5  C9  UNL     1       7.472   6.874  21.654  1.00  0.00     0.253 C 
HETATM    6  O1  UNL     1       6.227   7.032  21.850  1.00  0.00    -0.271 OA
ATOM      7  H1  UNL     1       9.369   7.633  22.328  1.00  0.00     0.168 HD
BRANCH   5   8
HETATM    8  C8  UNL     1       7.860   5.901  20.660  1.00  0.00     0.277 C 
HETATM    9  C7  UNL     1       7.598   6.128  19.218  1.00  0.00     0.043 C 
HETATM   10  C6  UNL     1       7.513   4.797  18.459  1.00  0.00     0.009 C 
HETATM   11  C5  UNL     1       8.229   3.665  19.103  1.00  0.00     0.011 C 
HETATM   12  C24 UNL     1       7.866   3.577  20.578  1.00  0.00     0.238 C 
HETATM   13  N4  UNL     1       7.007   4.679  20.966  1.00  0.00    -0.062 N 
ATOM     14  H42 UNL     1       6.659   4.630  21.923  1.00  0.00     0.278 HD
ATOM     15  H41 UNL     1       6.088   4.679  20.523  1.00  0.00     0.278 HD
BRANCH  11  16
HETATM   16  C4  UNL     1       7.871   2.357  18.469  1.00  0.00     0.010 C 
BRANCH  16  17
HETATM   17  C2  UNL     1       8.999   1.422  18.190  1.00  0.00    -0.022 C 
HETATM   18  C1  UNL     1      10.176   2.313  17.761  1.00  0.00     0.009 C 
HETATM   19  C3  UNL     1       8.745   0.483  17.057  1.00  0.00     0.009 C 
ENDBRANCH  16  17
ENDBRANCH  11  16
ENDBRANCH   5   8
ENDBRANCH   1   4
BRANCH   3  20
HETATM   20  O2  UNL     1       7.982  10.689  24.096  1.00  0.00    -0.344 OA
ATOM     21  H2  UNL     1       8.367  11.377  23.567  1.00  0.00     0.219 HD
ENDBRANCH   3  20
BRANCH   3  22
HETATM   22  N2  UNL     1       6.201  10.392  22.791  1.00  0.00    -0.328 N 
HETATM   23  C13 UNL     1       4.826  10.342  23.246  1.00  0.00     0.170 C 
HETATM   24  C14 UNL     1       4.254   9.869  21.855  1.00  0.00     0.227 C 
HETATM   25  F1  UNL     1       2.988  10.350  21.800  1.00  0.00    -0.245 F 
HETATM   26  C15 UNL     1       5.200  10.532  20.804  1.00  0.00     0.304 C 
HETATM   27  C20 UNL     1       6.003  11.358  21.692  1.00  0.00     0.031 C 
BRANCH  26  28
HETATM   28  N3  UNL     1       4.394  10.982  19.791  1.00  0.00     0.103 N 
HETATM   29  C16 UNL     1       4.142  12.302  19.452  1.00  0.00     0.275 C 
HETATM   30  C17 UNL     1       5.263  12.704  18.474  1.00  0.00     0.052 C 
HETATM   31  C18 UNL     1       5.249  11.478  17.599  1.00  0.00     0.112 C 
HETATM   32 CL1  UNL     1       6.798  11.187  16.788  1.00  0.00    -0.123 Cl
HETATM   33  C19 UNL     1       4.823  10.361  18.509  1.00  0.00     0.293 C 
ENDBRANCH  26  28
BRANCH  27  34
HETATM   34  C21 UNL     1       7.101  12.225  21.386  1.00  0.00     0.026 C 
HETATM   35  C22 UNL     1       7.926  11.563  20.248  1.00  0.00     0.016 C 
HETATM   36  C23 UNL     1       7.078  13.651  21.150  1.00  0.00     0.016 C 
ENDBRANCH  27  34
ENDBRANCH   3  22
TORSDOF 8
ENDMDL
MODEL 5
REMARK VINA RESULT: -7.586305544      1.651      2.173
REMARK  8 active torsions:
REMARK  status: ('A' for Active; 'I' for Inactive)
REMARK    1  A    between atoms: C2_2  and  C4_4 
REMARK    2  A    between atoms: C4_4  and  C5_5 
REMARK    3  A    between atoms: C8_8  and  C9_9 
REMARK       I    between atoms: C9_9  and  N1_11 
REMARK    4  A    between atoms: N1_11  and  C10_13 
REMARK    5  A    between atoms: C12_15  and  O2_16 
REMARK    6  A    between atoms: C12_15  and  N2_18 
REMARK    7  A    between atoms: C15_22  and  N3_23 
REMARK    8  A    between atoms: C20_29  and  C21_30 
ROOT
HETATM    1  C10 UNL     1       3.454   5.821  23.415  1.00  0.00     0.059 C 
HETATM    2  C11 UNL     1       2.052   5.318  22.945  1.00  0.00     0.073 C 
HETATM    3  C12 UNL     1       3.374   7.108  24.010  1.00  0.00     0.165 C 
ENDROOT
BRANCH   1   4
HETATM    4  N1  UNL     1       4.536   5.043  23.051  1.00  0.00    -0.325 N 
HETATM    5  C9  UNL     1       5.042   5.119  21.697  1.00  0.00     0.253 C 
HETATM    6  O1  UNL     1       4.485   5.968  20.933  1.00  0.00    -0.271 OA
ATOM      7  H1  UNL     1       4.975   4.419  23.730  1.00  0.00     0.168 HD
BRANCH   5   8
HETATM    8  C8  UNL     1       6.094   4.314  21.123  1.00  0.00     0.277 C 
HETATM    9  C7  UNL     1       7.299   4.936  20.522  1.00  0.00     0.043 C 
HETATM   10  C6  UNL     1       7.936   4.006  19.481  1.00  0.00     0.009 C 
HETATM   11  C5  UNL     1       7.634   2.562  19.666  1.00  0.00     0.011 C 
HETATM   12  C24 UNL     1       6.141   2.354  19.872  1.00  0.00     0.238 C 
HETATM   13  N4  UNL     1       5.445   3.625  19.932  1.00  0.00    -0.062 N 
ATOM     14  H42 UNL     1       4.429   3.552  19.984  1.00  0.00     0.278 HD
ATOM     15  H41 UNL     1       5.464   4.163  19.066  1.00  0.00     0.278 HD
BRANCH  11  16
HETATM   16  C4  UNL     1       8.043   1.759  18.472  1.00  0.00     0.010 C 
BRANCH  16  17
HETATM   17  C2  UNL     1       9.470   1.871  18.054  1.00  0.00    -0.022 C 
HETATM   18  C1  UNL     1       9.435   2.338  16.589  1.00  0.00     0.009 C 
HETATM   19  C3  UNL     1      10.212   0.574  18.065  1.00  0.00     0.009 C 
ENDBRANCH  16  17
ENDBRANCH  11  16
ENDBRANCH   5   8
ENDBRANCH   1   4
BRANCH   3  20
HETATM   20  O2  UNL     1       2.811   7.103  25.208  1.00  0.00    -0.344 OA
ATOM     21  H2  UNL     1       2.629   7.972  25.546  1.00  0.00     0.219 HD
ENDBRANCH   3  20
BRANCH   3  22
HETATM   22  N2  UNL     1       3.728   8.384  23.634  1.00  0.00    -0.328 N 
HETATM   23  C13 UNL     1       2.842   9.517  23.463  1.00  0.00     0.170 C 
HETATM   24  C14 UNL     1       3.372   9.871  22.022  1.00  0.00     0.227 C 
HETATM   25  F1  UNL     1       3.199  11.209  21.889  1.00  0.00    -0.245 F 
HETATM   26  C15 UNL     1       4.877   9.455  22.051  1.00  0.00     0.304 C 
HETATM   27  C20 UNL     1       5.002   9.111  23.459  1.00  0.00     0.031 C 
BRANCH  26  28
HETATM   28  N3  UNL     1       5.563  10.445  21.398  1.00  0.00     0.103 N 
HETATM   29  C16 UNL     1       6.542  11.269  21.929  1.00  0.00     0.275 C 
HETATM   30  C17 UNL     1       7.869  10.505  21.756  1.00  0.00     0.052 C 
HETATM   31  C18 UNL     1       7.682  10.046  20.334  1.00  0.00     0.112 C 
HETATM   32 CL1  UNL     1       8.609   8.586  19.949  1.00  0.00    -0.123 Cl
HETATM   33  C19 UNL     1       6.197   9.880  20.177  1.00  0.00     0.293 C 
ENDBRANCH  26  28
BRANCH  27  34
HETATM   34  C21 UNL     1       6.136   8.613  24.179  1.00  0.00     0.026 C 
HETATM   35  C22 UNL     1       6.963   7.727  23.206  1.00  0.00     0.016 C 
HETATM   36  C23 UNL     1       7.062   9.348  25.011  1.00  0.00     0.016 C 
ENDBRANCH  27  34
ENDBRANCH   3  22
TORSDOF 8
ENDMDL
