MODEL 1
REMARK VINA RESULT: -8.571040666      0.000      0.000
REMARK  8 active torsions:
REMARK  status: ('A' for Active; 'I' for Inactive)
REMARK    1  A    between atoms: C1_2  and  C2_3 
REMARK       I    between atoms: C1_2  and  N4_29 
REMARK    2  A    between atoms: C2_3  and  N1_4 
REMARK    3  A    between atoms: N1_4  and  C3_5 
REMARK    4  A    between atoms: N1_4  and  C10_16 
REMARK    5  A    between atoms: C4_6  and  O2_7 
REMARK    6  A    between atoms: C4_6  and  N2_9 
REMARK    7  A    between atoms: N2_9  and  C5_11 
REMARK    8  A    between atoms: N4_29  and  C19_31 
ROOT
HETATM    1  N1  UNL     1       6.947   6.984  20.462  1.00  0.00    -0.325 N 
ENDROOT
BRANCH   1   2
HETATM    2  C2  UNL     1       7.444   5.676  20.487  1.00  0.00     0.170 C 
BRANCH   2   3
HETATM    3  C1  UNL     1       7.618   4.788  19.394  1.00  0.00     0.257 C 
HETATM    4  O1  UNL     1       7.414   5.033  18.204  1.00  0.00    -0.267 OA
HETATM    5  N4  UNL     1       8.079   3.459  19.675  1.00  0.00    -0.352 N 
ATOM      6  H4  UNL     1       8.266   3.182  20.638  1.00  0.00     0.163 HD
BRANCH   5   7
HETATM    7  C19 UNL     1       8.279   2.513  18.612  1.00  0.00     0.084 C 
HETATM    8  C20 UNL     1       9.705   2.441  18.148  1.00  0.00     0.025 C 
HETATM    9  C21 UNL     1       9.741   1.161  17.314  1.00  0.00     0.002 C 
HETATM   10  C22 UNL     1       8.643   0.287  17.892  1.00  0.00     0.002 C 
HETATM   11  C23 UNL     1       8.027   1.074  19.028  1.00  0.00     0.025 C 
ENDBRANCH   5   7
ENDBRANCH   2   3
ENDBRANCH   1   2
BRANCH   1  12
HETATM   12  C3  UNL     1       7.525   8.233  20.191  1.00  0.00     0.152 C 
HETATM   13  C4  UNL     1       8.619   8.901  20.760  1.00  0.00     0.152 C 
BRANCH  13  14
HETATM   14  O2  UNL     1       8.885  10.062  20.164  1.00  0.00    -0.345 OA
ATOM     15  H2  UNL     1       9.506  10.594  20.649  1.00  0.00     0.219 HD
ENDBRANCH  13  14
BRANCH  13  16
HETATM   16  N2  UNL     1       9.518   8.675  21.807  1.00  0.00    -0.365 N 
ATOM     17  H2  UNL     1      10.420   8.252  21.586  1.00  0.00     0.162 HD
BRANCH  16  18
HETATM   18  C5  UNL     1       9.235   9.015  23.203  1.00  0.00     0.083 C 
HETATM   19  C6  UNL     1      10.527   8.962  24.017  1.00  0.00     0.025 C 
HETATM   20  C7  UNL     1      10.024   8.837  25.443  1.00  0.00     0.002 C 
HETATM   21  C8  UNL     1       8.884   7.836  25.304  1.00  0.00     0.002 C 
HETATM   22  C9  UNL     1       8.408   7.943  23.871  1.00  0.00     0.025 C 
ENDBRANCH  16  18
ENDBRANCH  13  16
ENDBRANCH   1  12
BRANCH   1  23
HETATM   23  C10 UNL     1       5.520   7.087  20.803  1.00  0.00     0.035 C 
HETATM   24  C11 UNL     1       4.681   6.737  19.857  1.00  0.00     0.001 C 
HETATM   25  C12 UNL     1       3.197   6.725  19.888  1.00  0.00     0.034 C 
HETATM   26  C13 UNL     1       2.662   6.146  21.171  1.00  0.00     0.048 C 
HETATM   27  C14 UNL     1       3.695   5.584  22.084  1.00  0.00     0.059 C 
HETATM   28  N3  UNL     1       4.335   6.576  22.851  1.00  0.00    -0.376 N 
HETATM   29  C15 UNL     1       3.557   7.056  23.929  1.00  0.00     0.214 C 
HETATM   30  C18 UNL     1       5.126   7.545  22.135  1.00  0.00     0.143 C 
HETATM   31  C16 UNL     1       4.308   8.013  24.857  1.00  0.00     0.307 C 
HETATM   32  F1  UNL     1       5.526   7.513  25.238  1.00  0.00    -0.192 F 
HETATM   33  F2  UNL     1       3.474   8.300  25.910  1.00  0.00    -0.192 F 
HETATM   34  S1  UNL     1       4.503   9.534  23.841  1.00  0.00    -0.089 SA
HETATM   35  C17 UNL     1       4.397   8.897  22.118  1.00  0.00     0.111 C 
ENDBRANCH   1  23
TORSDOF 8
ENDMDL
MODEL 2
REMARK VINA RESULT: -8.567012870      2.229      2.941
REMARK  8 active torsions:
REMARK  status: ('A' for Active; 'I' for Inactive)
REMARK    1  A    between atoms: C1_2  and  C2_3 
REMARK       I    between atoms: C1_2  and  N4_29 
REMARK    2  A    between atoms: C2_3  and  N1_4 
REMARK    3  A    between atoms: N1_4  and  C3_5 
REMARK    4  A    between atoms: N1_4  and  C10_16 
REMARK    5  A    between atoms: C4_6  and  O2_7 
REMARK    6  A    between atoms: C4_6  and  N2_9 
REMARK    7  A    between atoms: N2_9  and  C5_11 
REMARK    8  A    between atoms: N4_29  and  C19_31 
ROOT
HETATM    1  N1  UNL     1       7.115   6.747  21.029  1.00  0.00    -0.325 N 
ENDROOT
BRANCH   1   2
HETATM    2  C2  UNL     1       7.033   5.354  20.911  1.00  0.00     0.170 C 
BRANCH   2   3
HETATM    3  C1  UNL     1       7.261   4.562  19.757  1.00  0.00     0.257 C 
HETATM    4  O1  UNL     1       6.992   4.860  18.592  1.00  0.00    -0.267 OA
HETATM    5  N4  UNL     1       7.870   3.275  19.935  1.00  0.00    -0.352 N 
ATOM      6  H4  UNL     1       8.118   2.959  20.872  1.00  0.00     0.163 HD
BRANCH   5   7
HETATM    7  C19 UNL     1       8.132   2.426  18.806  1.00  0.00     0.084 C 
HETATM    8  C20 UNL     1       9.513   2.602  18.244  1.00  0.00     0.025 C 
HETATM    9  C21 UNL     1       9.683   1.388  17.333  1.00  0.00     0.002 C 
HETATM   10  C22 UNL     1       8.778   0.323  17.929  1.00  0.00     0.002 C 
HETATM   11  C23 UNL     1       8.136   0.947  19.150  1.00  0.00     0.025 C 
ENDBRANCH   5   7
ENDBRANCH   2   3
ENDBRANCH   1   2
BRANCH   1  12
HETATM   12  C3  UNL     1       8.050   7.699  20.599  1.00  0.00     0.152 C 
HETATM   13  C4  UNL     1       8.781   8.675  21.294  1.00  0.00     0.152 C 
BRANCH  13  14
HETATM   14  O2  UNL     1       9.625   9.346  20.512  1.00  0.00    -0.345 OA
ATOM     15  H2  UNL     1       9.891  10.179  20.885  1.00  0.00     0.219 HD
ENDBRANCH  13  14
BRANCH  13  16
HETATM   16  N2  UNL     1       8.860   9.143  22.609  1.00  0.00    -0.365 N 
ATOM     17  H2  UNL     1       8.545  10.094  22.803  1.00  0.00     0.162 HD
BRANCH  16  18
HETATM   18  C5  UNL     1       9.370   8.341  23.724  1.00  0.00     0.083 C 
HETATM   19  C6  UNL     1       8.510   8.581  24.965  1.00  0.00     0.025 C 
HETATM   20  C7  UNL     1       9.409   8.116  26.094  1.00  0.00     0.002 C 
HETATM   21  C8  UNL     1      10.766   8.679  25.690  1.00  0.00     0.002 C 
HETATM   22  C9  UNL     1      10.718   8.839  24.185  1.00  0.00     0.025 C 
ENDBRANCH  16  18
ENDBRANCH  13  16
ENDBRANCH   1  12
BRANCH   1  23
HETATM   23  C10 UNL     1       5.998   7.350  21.770  1.00  0.00     0.035 C 
HETATM   24  C11 UNL     1       5.882   6.983  23.025  1.00  0.00     0.001 C 
HETATM   25  C12 UNL     1       4.874   7.409  24.028  1.00  0.00     0.034 C 
HETATM   26  C13 UNL     1       4.631   8.895  23.992  1.00  0.00     0.048 C 
HETATM   27  C14 UNL     1       5.523   9.654  23.074  1.00  0.00     0.059 C 
HETATM   28  N3  UNL     1       5.096   9.596  21.735  1.00  0.00    -0.376 N 
HETATM   29  C15 UNL     1       3.992  10.433  21.451  1.00  0.00     0.214 C 
HETATM   30  C18 UNL     1       5.115   8.303  21.099  1.00  0.00     0.143 C 
HETATM   31  C16 UNL     1       3.628  10.495  19.965  1.00  0.00     0.307 C 
HETATM   32  F1  UNL     1       4.721  10.740  19.176  1.00  0.00    -0.192 F 
HETATM   33  F2  UNL     1       2.627  11.426  19.829  1.00  0.00    -0.192 F 
HETATM   34  S1  UNL     1       2.923   8.831  19.625  1.00  0.00    -0.089 SA
HETATM   35  C17 UNL     1       3.678   7.785  20.937  1.00  0.00     0.111 C 
ENDBRANCH   1  23
TORSDOF 8
ENDMDL
MODEL 3
REMARK VINA RESULT: -8.249834065      3.132      5.459
REMARK  8 active torsions:
REMARK  status: ('A' for Active; 'I' for Inactive)
REMARK    1  A    between atoms: C1_2  and  C2_3 
REMARK       I    between atoms: C1_2  and  N4_29 
REMARK    2  A    between atoms: C2_3  and  N1_4 
REMARK    3  A    between atoms: N1_4  and  C3_5 
REMARK    4  A    between atoms: N1_4  and  C10_16 
REMARK    5  A    between atoms: C4_6  and  O2_7 
REMARK    6  A    between atoms: C4_6  and  N2_9 
REMARK    7  A    between atoms: N2_9  and  C5_11 
REMARK    8  A    between atoms: N4_29  and  C19_31 
ROOT
HETATM    1  N1  UNL     1       6.546   9.799  22.952  1.00  0.00    -0.325 N 
ENDROOT
BRANCH   1   2
HETATM    2  C2  UNL     1       6.859   9.350  24.240  1.00  0.00     0.170 C 
BRANCH   2   3
HETATM    3  C1  UNL     1       7.811   8.366  24.613  1.00  0.00     0.257 C 
HETATM    4  O1  UNL     1       7.696   7.145  24.494  1.00  0.00    -0.267 OA
HETATM    5  N4  UNL     1       9.046   8.810  25.192  1.00  0.00    -0.352 N 
ATOM      6  H4  UNL     1       9.212   9.808  25.324  1.00  0.00     0.163 HD
BRANCH   5   7
HETATM    7  C19 UNL     1      10.053   7.865  25.587  1.00  0.00     0.084 C 
HETATM    8  C20 UNL     1      11.447   8.411  25.483  1.00  0.00     0.025 C 
HETATM    9  C21 UNL     1      12.282   7.404  26.274  1.00  0.00     0.002 C 
HETATM   10  C22 UNL     1      11.319   6.810  27.287  1.00  0.00     0.002 C 
HETATM   11  C23 UNL     1       9.987   7.491  27.057  1.00  0.00     0.025 C 
ENDBRANCH   5   7
ENDBRANCH   2   3
ENDBRANCH   1   2
BRANCH   1  12
HETATM   12  C3  UNL     1       7.265  10.499  21.972  1.00  0.00     0.152 C 
HETATM   13  C4  UNL     1       8.312  10.111  21.123  1.00  0.00     0.152 C 
BRANCH  13  14
HETATM   14  O2  UNL     1       8.680  11.074  20.279  1.00  0.00    -0.345 OA
ATOM     15  H2  UNL     1       9.266  10.765  19.598  1.00  0.00     0.219 HD
ENDBRANCH  13  14
BRANCH  13  16
HETATM   16  N2  UNL     1       9.091   8.967  20.924  1.00  0.00    -0.365 N 
ATOM     17  H2  UNL     1      10.055   8.975  21.257  1.00  0.00     0.162 HD
BRANCH  16  18
HETATM   18  C5  UNL     1       8.595   7.757  20.263  1.00  0.00     0.083 C 
HETATM   19  C6  UNL     1       7.474   8.125  19.292  1.00  0.00     0.025 C 
HETATM   20  C7  UNL     1       6.760   6.804  19.083  1.00  0.00     0.002 C 
HETATM   21  C8  UNL     1       6.717   6.225  20.492  1.00  0.00     0.002 C 
HETATM   22  C9  UNL     1       7.873   6.857  21.236  1.00  0.00     0.025 C 
ENDBRANCH  16  18
ENDBRANCH  13  16
ENDBRANCH   1  12
BRANCH   1  23
HETATM   23  C10 UNL     1       5.172   9.491  22.530  1.00  0.00     0.035 C 
HETATM   24  C11 UNL     1       4.959   9.497  21.235  1.00  0.00     0.001 C 
HETATM   25  C12 UNL     1       3.699   9.227  20.499  1.00  0.00     0.034 C 
HETATM   26  C13 UNL     1       2.967   8.030  21.049  1.00  0.00     0.048 C 
HETATM   27  C14 UNL     1       3.695   7.283  22.110  1.00  0.00     0.059 C 
HETATM   28  N3  UNL     1       3.571   7.884  23.376  1.00  0.00    -0.376 N 
HETATM   29  C15 UNL     1       2.320   7.661  23.995  1.00  0.00     0.214 C 
HETATM   30  C18 UNL     1       4.155   9.192  23.537  1.00  0.00     0.143 C 
HETATM   31  C16 UNL     1       2.241   8.175  25.434  1.00  0.00     0.307 C 
HETATM   32  F1  UNL     1       3.308   7.764  26.189  1.00  0.00    -0.192 F 
HETATM   33  F2  UNL     1       1.023   7.788  25.939  1.00  0.00    -0.192 F 
HETATM   34  S1  UNL     1       2.231  10.004  25.239  1.00  0.00    -0.089 SA
HETATM   35  C17 UNL     1       3.043  10.250  23.607  1.00  0.00     0.111 C 
ENDBRANCH   1  23
TORSDOF 8
ENDMDL
MODEL 4
REMARK VINA RESULT: -8.233684199      2.483      3.675
REMARK  8 active torsions:
REMARK  status: ('A' for Active; 'I' for Inactive)
REMARK    1  A    between atoms: C1_2  and  C2_3 
REMARK       I    between atoms: C1_2  and  N4_29 
REMARK    2  A    between atoms: C2_3  and  N1_4 
REMARK    3  A    between atoms: N1_4  and  C3_5 
REMARK    4  A    between atoms: N1_4  and  C10_16 
REMARK    5  A    between atoms: C4_6  and  O2_7 
REMARK    6  A    between atoms: C4_6  and  N2_9 
REMARK    7  A    between atoms: N2_9  and  C5_11 
REMARK    8  A    between atoms: N4_29  and  C19_31 
ROOT
HETATM    1  N1  UNL     1       7.398   8.529  23.064  1.00  0.00    -0.325 N 
ENDROOT
BRANCH   1   2
HETATM    2  C2  UNL     1       7.801   7.304  22.521  1.00  0.00     0.170 C 
BRANCH   2   3
HETATM    3  C1  UNL     1       7.982   6.974  21.153  1.00  0.00     0.257 C 
HETATM    4  O1  UNL     1       8.523   7.669  20.291  1.00  0.00    -0.267 OA
HETATM    5  N4  UNL     1       7.495   5.703  20.698  1.00  0.00    -0.352 N 
ATOM      6  H4  UNL     1       7.034   5.074  21.355  1.00  0.00     0.163 HD
BRANCH   5   7
HETATM    7  C19 UNL     1       7.652   5.307  19.326  1.00  0.00     0.084 C 
HETATM    8  C20 UNL     1       8.108   3.885  19.171  1.00  0.00     0.025 C 
HETATM    9  C21 UNL     1       7.853   3.590  17.694  1.00  0.00     0.002 C 
HETATM   10  C22 UNL     1       6.712   4.512  17.303  1.00  0.00     0.002 C 
HETATM   11  C23 UNL     1       6.346   5.288  18.550  1.00  0.00     0.025 C 
ENDBRANCH   5   7
ENDBRANCH   2   3
ENDBRANCH   1   2
BRANCH   1  12
HETATM   12  C3  UNL     1       8.062   9.737  23.321  1.00  0.00     0.152 C 
HETATM   13  C4  UNL     1       9.359  10.013  23.781  1.00  0.00     0.152 C 
BRANCH  13  14
HETATM   14  O2  UNL     1       9.624  11.317  23.833  1.00  0.00    -0.345 OA
ATOM     15  H2  UNL     1       9.250  11.800  23.106  1.00  0.00     0.219 HD
ENDBRANCH  13  14
BRANCH  13  16
HETATM   16  N2  UNL     1      10.465   9.274  24.213  1.00  0.00    -0.365 N 
ATOM     17  H2  UNL     1      11.151   8.981  23.517  1.00  0.00     0.162 HD
BRANCH  16  18
HETATM   18  C5  UNL     1      10.691   8.900  25.611  1.00  0.00     0.083 C 
HETATM   19  C6  UNL     1      11.840   7.896  25.694  1.00  0.00     0.025 C 
HETATM   20  C7  UNL     1      11.630   7.252  27.050  1.00  0.00     0.002 C 
HETATM   21  C8  UNL     1      10.119   7.054  27.092  1.00  0.00     0.002 C 
HETATM   22  C9  UNL     1       9.539   8.092  26.155  1.00  0.00     0.025 C 
ENDBRANCH  16  18
ENDBRANCH  13  16
ENDBRANCH   1  12
BRANCH   1  23
HETATM   23  C10 UNL     1       5.984   8.568  23.466  1.00  0.00     0.035 C 
HETATM   24  C11 UNL     1       5.715   9.279  24.536  1.00  0.00     0.001 C 
HETATM   25  C12 UNL     1       4.403   9.515  25.188  1.00  0.00     0.034 C 
HETATM   26  C13 UNL     1       3.319   9.819  24.188  1.00  0.00     0.048 C 
HETATM   27  C14 UNL     1       3.785   9.955  22.781  1.00  0.00     0.059 C 
HETATM   28  N3  UNL     1       3.960   8.711  22.147  1.00  0.00    -0.376 N 
HETATM   29  C15 UNL     1       2.750   8.097  21.749  1.00  0.00     0.214 C 
HETATM   30  C18 UNL     1       4.987   7.849  22.674  1.00  0.00     0.143 C 
HETATM   31  C16 UNL     1       2.944   6.826  20.919  1.00  0.00     0.307 C 
HETATM   32  F1  UNL     1       3.829   7.013  19.890  1.00  0.00    -0.192 F 
HETATM   33  F2  UNL     1       1.699   6.412  20.511  1.00  0.00    -0.192 F 
HETATM   34  S1  UNL     1       3.589   5.609  22.138  1.00  0.00    -0.089 SA
HETATM   35  C17 UNL     1       4.341   6.679  23.432  1.00  0.00     0.111 C 
ENDBRANCH   1  23
TORSDOF 8
ENDMDL
MODEL 5
REMARK VINA RESULT: -8.220203885      3.772      6.323
REMARK  8 active torsions:
REMARK  status: ('A' for Active; 'I' for Inactive)
REMARK    1  A    between atoms: C1_2  and  C2_3 
REMARK       I    between atoms: C1_2  and  N4_29 
REMARK    2  A    between atoms: C2_3  and  N1_4 
REMARK    3  A    between atoms: N1_4  and  C3_5 
REMARK    4  A    between atoms: N1_4  and  C10_16 
REMARK    5  A    between atoms: C4_6  and  O2_7 
REMARK    6  A    between atoms: C4_6  and  N2_9 
REMARK    7  A    between atoms: N2_9  and  C5_11 
REMARK    8  A    between atoms: N4_29  and  C19_31 
ROOT
HETATM    1  N1  UNL     1       7.635   8.765  23.301  1.00  0.00    -0.325 N 
ENDROOT
BRANCH   1   2
HETATM    2  C2  UNL     1       7.019   7.786  24.090  1.00  0.00     0.170 C 
BRANCH   2   3
HETATM    3  C1  UNL     1       5.631   7.535  24.240  1.00  0.00     0.257 C 
HETATM    4  O1  UNL     1       5.048   6.467  24.043  1.00  0.00    -0.267 OA
HETATM    5  N4  UNL     1       4.793   8.619  24.667  1.00  0.00    -0.352 N 
ATOM      6  H4  UNL     1       5.205   9.534  24.847  1.00  0.00     0.163 HD
BRANCH   5   7
HETATM    7  C19 UNL     1       3.381   8.428  24.843  1.00  0.00     0.084 C 
HETATM    8  C20 UNL     1       2.794   9.312  25.905  1.00  0.00     0.025 C 
HETATM    9  C21 UNL     1       1.289   9.207  25.663  1.00  0.00     0.002 C 
HETATM   10  C22 UNL     1       1.153   8.889  24.184  1.00  0.00     0.002 C 
HETATM   11  C23 UNL     1       2.561   8.834  23.630  1.00  0.00     0.025 C 
ENDBRANCH   5   7
ENDBRANCH   2   3
ENDBRANCH   1   2
BRANCH   1  12
HETATM   12  C3  UNL     1       8.459   9.861  23.591  1.00  0.00     0.152 C 
HETATM   13  C4  UNL     1       9.778   9.942  24.066  1.00  0.00     0.152 C 
BRANCH  13  14
HETATM   14  O2  UNL     1      10.223  11.195  24.150  1.00  0.00    -0.345 OA
ATOM     15  H2  UNL     1      11.091  11.254  24.531  1.00  0.00     0.219 HD
ENDBRANCH  13  14
BRANCH  13  16
HETATM   16  N2  UNL     1      10.766   9.046  24.485  1.00  0.00    -0.365 N 
ATOM     17  H2  UNL     1      11.376   8.635  23.779  1.00  0.00     0.162 HD
BRANCH  16  18
HETATM   18  C5  UNL     1      10.971   8.667  25.885  1.00  0.00     0.083 C 
HETATM   19  C6  UNL     1      12.093   7.634  25.979  1.00  0.00     0.025 C 
HETATM   20  C7  UNL     1      11.855   6.996  27.334  1.00  0.00     0.002 C 
HETATM   21  C8  UNL     1      10.339   6.837  27.363  1.00  0.00     0.002 C 
HETATM   22  C9  UNL     1       9.793   7.889  26.421  1.00  0.00     0.025 C 
ENDBRANCH  16  18
ENDBRANCH  13  16
ENDBRANCH   1  12
BRANCH   1  23
HETATM   23  C10 UNL     1       7.356   8.636  21.863  1.00  0.00     0.035 C 
HETATM   24  C11 UNL     1       8.020   7.693  21.236  1.00  0.00     0.001 C 
HETATM   25  C12 UNL     1       7.962   7.312  19.803  1.00  0.00     0.034 C 
HETATM   26  C13 UNL     1       6.548   7.255  19.289  1.00  0.00     0.048 C 
HETATM   27  C14 UNL     1       5.496   7.454  20.322  1.00  0.00     0.059 C 
HETATM   28  N3  UNL     1       5.284   8.812  20.624  1.00  0.00    -0.376 N 
HETATM   29  C15 UNL     1       4.536   9.505  19.645  1.00  0.00     0.214 C 
HETATM   30  C18 UNL     1       6.379   9.523  21.233  1.00  0.00     0.143 C 
HETATM   31  C16 UNL     1       4.167  10.935  20.045  1.00  0.00     0.307 C 
HETATM   32  F1  UNL     1       3.619  10.995  21.299  1.00  0.00    -0.192 F 
HETATM   33  F2  UNL     1       3.352  11.437  19.060  1.00  0.00    -0.192 F 
HETATM   34  S1  UNL     1       5.774  11.829  19.978  1.00  0.00    -0.089 SA
HETATM   35  C17 UNL     1       7.006  10.483  20.210  1.00  0.00     0.111 C 
ENDBRANCH   1  23
TORSDOF 8
ENDMDL
