MODEL 1
REMARK VINA RESULT: -5.486102199      0.000      0.000
REMARK  4 active torsions:
REMARK  status: ('A' for Active; 'I' for Inactive)
REMARK    1  A    between atoms: N1_2  and  N2_3 
REMARK    2  A    between atoms: N1_2  and  C2_6 
REMARK    3  A    between atoms: C3_9  and  N4_10 
REMARK    4  A    between atoms: C5_17  and  N6_18 
ROOT
HETATM    1  C2  UNL     1      43.126  23.248 101.292  1.00  0.00     0.176 A 
HETATM    2  N3  UNL     1      42.529  22.422 102.177  1.00  0.00    -0.173 N 
ATOM      3  H3  UNL     1      42.232  22.801 103.077  1.00  0.00     0.186 HD
HETATM    4  C3  UNL     1      42.309  21.117 101.923  1.00  0.00     0.680 A 
HETATM    5  N5  UNL     1      42.676  20.550 100.759  1.00  0.00    -0.154 N 
ATOM      6  H5  UNL     1      42.503  19.561 100.580  1.00  0.00     0.187 HD
HETATM    7  C4  UNL     1      43.276  21.325  99.839  1.00  0.00     0.296 A 
HETATM    8  O1  UNL     1      43.620  20.795  98.741  1.00  0.00    -0.265 OA
HETATM    9  C5  UNL     1      43.504  22.672 100.097  1.00  0.00     0.216 A 
ENDROOT
BRANCH   1  10
HETATM   10  N1  UNL     1      43.359  24.621 101.553  1.00  0.00    -0.285 N 
HETATM   11  C1  UNL     1      44.509  24.947 102.402  1.00  0.00     0.179 C 
BRANCH  10  12
HETATM   12  N2  UNL     1      42.544  25.624 101.043  1.00  0.00    -0.342 N 
ATOM     13  H22 UNL     1      42.622  26.595 101.343  1.00  0.00     0.177 HD
ATOM     14  H21 UNL     1      41.836  25.414 100.339  1.00  0.00     0.177 HD
ENDBRANCH  10  12
ENDBRANCH   1  10
BRANCH   9  15
HETATM   15  N6  UNL     1      44.146  23.436  99.094  1.00  0.00    -0.106 N 
HETATM   16  O2  UNL     1      45.376  23.477  98.910  1.00  0.00    -0.531 OA
HETATM   17  O3  UNL     1      43.373  24.208  98.237  1.00  0.00    -0.531 OA
ENDBRANCH   9  15
BRANCH   4  18
HETATM   18  N4  UNL     1      41.740  20.359 102.788  1.00  0.00    -0.234 N 
ATOM     19  H42 UNL     1      42.006  20.488 103.765  1.00  0.00     0.174 HD
ATOM     20  H41 UNL     1      41.052  19.661 102.507  1.00  0.00     0.174 HD
ENDBRANCH   4  18
TORSDOF 4
ENDMDL
MODEL 2
REMARK VINA RESULT: -5.331615834      1.849      3.576
REMARK  4 active torsions:
REMARK  status: ('A' for Active; 'I' for Inactive)
REMARK    1  A    between atoms: N1_2  and  N2_3 
REMARK    2  A    between atoms: N1_2  and  C2_6 
REMARK    3  A    between atoms: C3_9  and  N4_10 
REMARK    4  A    between atoms: C5_17  and  N6_18 
ROOT
HETATM    1  C2  UNL     1      43.704  24.175 100.615  1.00  0.00     0.176 A 
HETATM    2  N3  UNL     1      43.949  25.169  99.735  1.00  0.00    -0.173 N 
ATOM      3  H3  UNL     1      43.941  26.133 100.070  1.00  0.00     0.186 HD
HETATM    4  C3  UNL     1      44.205  24.942  98.432  1.00  0.00     0.680 A 
HETATM    5  N5  UNL     1      44.231  23.697  97.921  1.00  0.00    -0.154 N 
ATOM      6  H5  UNL     1      44.426  23.540  96.932  1.00  0.00     0.187 HD
HETATM    7  C4  UNL     1      43.993  22.667  98.751  1.00  0.00     0.296 A 
HETATM    8  O1  UNL     1      44.019  21.494  98.274  1.00  0.00    -0.265 OA
HETATM    9  C5  UNL     1      43.729  22.898 100.097  1.00  0.00     0.216 A 
ENDROOT
BRANCH   1  10
HETATM   10  N1  UNL     1      43.435  24.408 101.987  1.00  0.00    -0.285 N 
HETATM   11  C1  UNL     1      44.593  24.520 102.878  1.00  0.00     0.179 C 
BRANCH  10  12
HETATM   12  N2  UNL     1      42.142  24.520 102.482  1.00  0.00    -0.342 N 
ATOM     13  H22 UNL     1      41.949  24.700 103.467  1.00  0.00     0.177 HD
ATOM     14  H21 UNL     1      41.336  24.428 101.864  1.00  0.00     0.177 HD
ENDBRANCH  10  12
ENDBRANCH   1  10
BRANCH   9  15
HETATM   15  N6  UNL     1      43.479  21.775 100.921  1.00  0.00    -0.106 N 
HETATM   16  O2  UNL     1      44.358  21.101 101.489  1.00  0.00    -0.531 OA
HETATM   17  O3  UNL     1      42.167  21.370 101.130  1.00  0.00    -0.531 OA
ENDBRANCH   9  15
BRANCH   4  18
HETATM   18  N4  UNL     1      44.432  25.911  97.621  1.00  0.00    -0.234 N 
ATOM     19  H42 UNL     1      45.405  26.087  97.369  1.00  0.00     0.174 HD
ATOM     20  H41 UNL     1      43.670  26.475  97.247  1.00  0.00     0.174 HD
ENDBRANCH   4  18
TORSDOF 4
ENDMDL
MODEL 3
REMARK VINA RESULT: -5.298677906      1.518      3.544
REMARK  4 active torsions:
REMARK  status: ('A' for Active; 'I' for Inactive)
REMARK    1  A    between atoms: N1_2  and  N2_3 
REMARK    2  A    between atoms: N1_2  and  C2_6 
REMARK    3  A    between atoms: C3_9  and  N4_10 
REMARK    4  A    between atoms: C5_17  and  N6_18 
ROOT
HETATM    1  C2  UNL     1      43.338  23.499 101.864  1.00  0.00     0.176 A 
HETATM    2  N3  UNL     1      42.885  24.638 102.431  1.00  0.00    -0.173 N 
ATOM      3  H3  UNL     1      42.844  24.696 103.449  1.00  0.00     0.186 HD
HETATM    4  C3  UNL     1      42.484  25.702 101.708  1.00  0.00     0.680 A 
HETATM    5  N5  UNL     1      42.510  25.696 100.362  1.00  0.00    -0.154 N 
ATOM      6  H5  UNL     1      42.203  26.508  99.828  1.00  0.00     0.187 HD
HETATM    7  C4  UNL     1      42.951  24.587  99.743  1.00  0.00     0.296 A 
HETATM    8  O1  UNL     1      42.979  24.578  98.478  1.00  0.00    -0.265 OA
HETATM    9  C5  UNL     1      43.366  23.486 100.486  1.00  0.00     0.216 A 
ENDROOT
BRANCH   1  10
HETATM   10  N1  UNL     1      43.762  22.377 102.620  1.00  0.00    -0.285 N 
HETATM   11  C1  UNL     1      45.141  22.394 103.112  1.00  0.00     0.179 C 
BRANCH  10  12
HETATM   12  N2  UNL     1      42.925  21.300 102.884  1.00  0.00    -0.342 N 
ATOM     13  H22 UNL     1      42.243  21.312 103.642  1.00  0.00     0.177 HD
ATOM     14  H21 UNL     1      42.965  20.455 102.314  1.00  0.00     0.177 HD
ENDBRANCH  10  12
ENDBRANCH   1  10
BRANCH   9  15
HETATM   15  N6  UNL     1      43.814  22.345  99.779  1.00  0.00    -0.106 N 
HETATM   16  O2  UNL     1      43.207  21.261  99.723  1.00  0.00    -0.531 OA
HETATM   17  O3  UNL     1      45.017  22.409  99.089  1.00  0.00    -0.531 OA
ENDBRANCH   9  15
BRANCH   4  18
HETATM   18  N4  UNL     1      42.057  26.769 102.279  1.00  0.00    -0.234 N 
ATOM     19  H42 UNL     1      42.757  27.391 102.683  1.00  0.00     0.174 HD
ATOM     20  H41 UNL     1      41.061  26.982 102.321  1.00  0.00     0.174 HD
ENDBRANCH   4  18
TORSDOF 4
ENDMDL
MODEL 4
REMARK VINA RESULT: -5.202710130      2.026      3.533
REMARK  4 active torsions:
REMARK  status: ('A' for Active; 'I' for Inactive)
REMARK    1  A    between atoms: N1_2  and  N2_3 
REMARK    2  A    between atoms: N1_2  and  C2_6 
REMARK    3  A    between atoms: C3_9  and  N4_10 
REMARK    4  A    between atoms: C5_17  and  N6_18 
ROOT
HETATM    1  C2  UNL     1      44.163  24.016 100.703  1.00  0.00     0.176 A 
HETATM    2  N3  UNL     1      44.591  24.863 101.664  1.00  0.00    -0.173 N 
ATOM      3  H3  UNL     1      44.889  25.801 101.392  1.00  0.00     0.186 HD
HETATM    4  C3  UNL     1      44.642  24.522 102.966  1.00  0.00     0.680 A 
HETATM    5  N5  UNL     1      44.266  23.303 103.395  1.00  0.00    -0.154 N 
ATOM      6  H5  UNL     1      44.310  23.058 104.384  1.00  0.00     0.187 HD
HETATM    7  C4  UNL     1      43.832  22.417 102.482  1.00  0.00     0.296 A 
HETATM    8  O1  UNL     1      43.475  21.270 102.883  1.00  0.00    -0.265 OA
HETATM    9  C5  UNL     1      43.778  22.765 101.137  1.00  0.00     0.216 A 
ENDROOT
BRANCH   1  10
HETATM   10  N1  UNL     1      44.107  24.369  99.331  1.00  0.00    -0.285 N 
HETATM   11  C1  UNL     1      42.908  25.081  98.880  1.00  0.00     0.179 C 
BRANCH  10  12
HETATM   12  N2  UNL     1      45.127  24.057  98.442  1.00  0.00    -0.342 N 
ATOM     13  H22 UNL     1      45.120  24.371  97.471  1.00  0.00     0.177 HD
ATOM     14  H21 UNL     1      45.928  23.501  98.739  1.00  0.00     0.177 HD
ENDBRANCH  10  12
ENDBRANCH   1  10
BRANCH   9  15
HETATM   15  N6  UNL     1      43.319  21.789 100.221  1.00  0.00    -0.106 N 
HETATM   16  O2  UNL     1      43.960  21.381  99.237  1.00  0.00    -0.531 OA
HETATM   17  O3  UNL     1      42.062  21.227 100.408  1.00  0.00    -0.531 OA
ENDBRANCH   9  15
BRANCH   4  18
HETATM   18  N4  UNL     1      45.056  25.352 103.853  1.00  0.00    -0.234 N 
ATOM     19  H42 UNL     1      45.941  25.825 103.670  1.00  0.00     0.174 HD
ATOM     20  H41 UNL     1      44.518  25.528 104.702  1.00  0.00     0.174 HD
ENDBRANCH   4  18
TORSDOF 4
ENDMDL
MODEL 5
REMARK VINA RESULT: -5.027052903      1.386      3.502
REMARK  4 active torsions:
REMARK  status: ('A' for Active; 'I' for Inactive)
REMARK    1  A    between atoms: N1_2  and  N2_3 
REMARK    2  A    between atoms: N1_2  and  C2_6 
REMARK    3  A    between atoms: C3_9  and  N4_10 
REMARK    4  A    between atoms: C5_17  and  N6_18 
ROOT
HETATM    1  C2  UNL     1      42.989  23.114 101.500  1.00  0.00     0.176 A 
HETATM    2  N3  UNL     1      42.666  24.270 102.119  1.00  0.00    -0.173 N 
ATOM      3  H3  UNL     1      42.511  24.259 103.127  1.00  0.00     0.186 HD
HETATM    4  C3  UNL     1      42.540  25.439 101.460  1.00  0.00     0.680 A 
HETATM    5  N5  UNL     1      42.730  25.528 100.131  1.00  0.00    -0.154 N 
ATOM      6  H5  UNL     1      42.631  26.419  99.645  1.00  0.00     0.187 HD
HETATM    7  C4  UNL     1      43.052  24.407  99.461  1.00  0.00     0.296 A 
HETATM    8  O1  UNL     1      43.233  24.488  98.211  1.00  0.00    -0.265 OA
HETATM    9  C5  UNL     1      43.183  23.199 100.137  1.00  0.00     0.216 A 
ENDROOT
BRANCH   1  10
HETATM   10  N1  UNL     1      43.123  21.882 102.187  1.00  0.00    -0.285 N 
HETATM   11  C1  UNL     1      44.441  21.579 102.750  1.00  0.00     0.179 C 
BRANCH  10  12
HETATM   12  N2  UNL     1      42.068  20.989 102.323  1.00  0.00    -0.342 N 
ATOM     13  H22 UNL     1      41.156  21.153 101.898  1.00  0.00     0.177 HD
ATOM     14  H21 UNL     1      42.179  20.126 102.856  1.00  0.00     0.177 HD
ENDBRANCH  10  12
ENDBRANCH   1  10
BRANCH   9  15
HETATM   15  N6  UNL     1      43.517  22.052  99.379  1.00  0.00    -0.106 N 
HETATM   16  O2  UNL     1      44.477  21.978  98.590  1.00  0.00    -0.531 OA
HETATM   17  O3  UNL     1      42.735  20.911  99.501  1.00  0.00    -0.531 OA
ENDBRANCH   9  15
BRANCH   4  18
HETATM   18  N4  UNL     1      42.231  26.519 102.079  1.00  0.00    -0.234 N 
ATOM     19  H42 UNL     1      41.503  26.455 102.792  1.00  0.00     0.174 HD
ATOM     20  H41 UNL     1      42.696  27.401 101.866  1.00  0.00     0.174 HD
ENDBRANCH   4  18
TORSDOF 4
ENDMDL
