MODEL 1
REMARK VINA RESULT: -6.203285348      0.000      0.000
REMARK  3 active torsions:
REMARK  status: ('A' for Active; 'I' for Inactive)
REMARK    1  A    between atoms: C1_4  and  N2_5 
REMARK    2  A    between atoms: C1_4  and  C3_10 
REMARK    3  A    between atoms: C3_10  and  N5_11 
ROOT
HETATM    1  C3  UNL     1      50.158  42.016  72.172  1.00  0.00     0.335 A 
HETATM    2  N6  UNL     1      49.209  42.302  71.116  1.00  0.00    -0.340 N 
ATOM      3  H6  UNL     1      48.365  41.757  70.941  1.00  0.00     0.163 HD
HETATM    4  C4  UNL     1      49.562  43.329  70.427  1.00  0.00     0.181 A 
HETATM    5  N7  UNL     1      50.773  43.868  70.907  1.00  0.00    -0.319 N 
ATOM      6  H7  UNL     1      51.266  44.680  70.536  1.00  0.00     0.169 HD
HETATM    7  C5  UNL     1      51.170  43.066  72.002  1.00  0.00     0.287 A 
HETATM    8  O1  UNL     1      52.228  43.250  72.696  1.00  0.00    -0.268 OA
ENDROOT
BRANCH   1   9
HETATM    9  C1  UNL     1      50.810  40.702  71.983  1.00  0.00     0.144 C 
HETATM   10  N1  UNL     1      50.172  39.644  72.295  1.00  0.00    -0.385 N 
ATOM     11  H12 UNL     1      50.621  38.738  72.164  1.00  0.00     0.157 HD
ATOM     12  H11 UNL     1      49.225  39.696  72.670  1.00  0.00     0.157 HD
BRANCH   9  13
HETATM   13  N2  UNL     1      52.115  40.630  71.466  1.00  0.00    -0.319 N 
HETATM   14  C2  UNL     1      52.425  40.430  70.245  1.00  0.00     0.202 C 
HETATM   15  N3  UNL     1      53.785  40.380  69.868  1.00  0.00    -0.066 NA
HETATM   16  N4  UNL     1      51.395  40.260  69.294  1.00  0.00    -0.066 NA
ATOM     17  H2  UNL     1      52.883  40.748  72.127  1.00  0.00     0.169 HD
ENDBRANCH   9  13
ENDBRANCH   1   9
BRANCH   1  18
HETATM   18  N5  UNL     1      49.486  42.102  73.459  1.00  0.00    -0.036 N 
ATOM     19  H53 UNL     1      49.063  41.211  73.719  1.00  0.00     0.278 HD
ATOM     20  H52 UNL     1      50.156  42.189  74.224  1.00  0.00     0.278 HD
ATOM     21  H51 UNL     1      48.801  42.857  73.477  1.00  0.00     0.278 HD
ENDBRANCH   1  18
TORSDOF 3
ENDMDL
MODEL 2
REMARK VINA RESULT: -5.819909727      1.813      3.845
REMARK  3 active torsions:
REMARK  status: ('A' for Active; 'I' for Inactive)
REMARK    1  A    between atoms: C1_4  and  N2_5 
REMARK    2  A    between atoms: C1_4  and  C3_10 
REMARK    3  A    between atoms: C3_10  and  N5_11 
ROOT
HETATM    1  C3  UNL     1      52.176  41.014  70.774  1.00  0.00     0.335 A 
HETATM    2  N6  UNL     1      53.158  41.321  71.793  1.00  0.00    -0.340 N 
ATOM      3  H6  UNL     1      53.393  40.701  72.568  1.00  0.00     0.163 HD
HETATM    4  C4  UNL     1      53.698  42.472  71.600  1.00  0.00     0.181 A 
HETATM    5  N7  UNL     1      53.168  43.093  70.451  1.00  0.00    -0.319 N 
ATOM      6  H7  UNL     1      53.425  44.007  70.080  1.00  0.00     0.169 HD
HETATM    7  C5  UNL     1      52.212  42.201  69.910  1.00  0.00     0.287 A 
HETATM    8  O1  UNL     1      51.520  42.422  68.859  1.00  0.00    -0.268 OA
ENDROOT
BRANCH   1   9
HETATM    9  C1  UNL     1      50.816  40.888  71.341  1.00  0.00     0.144 C 
HETATM   10  N1  UNL     1      50.444  39.764  71.812  1.00  0.00    -0.385 N 
ATOM     11  H12 UNL     1      49.507  39.677  72.203  1.00  0.00     0.157 HD
ATOM     12  H11 UNL     1      51.071  38.959  71.801  1.00  0.00     0.157 HD
BRANCH   9  13
HETATM   13  N2  UNL     1      49.953  41.996  71.356  1.00  0.00    -0.319 N 
HETATM   14  C2  UNL     1      49.354  42.463  72.382  1.00  0.00     0.202 C 
HETATM   15  N3  UNL     1      48.512  43.588  72.247  1.00  0.00    -0.066 NA
HETATM   16  N4  UNL     1      49.549  41.838  73.633  1.00  0.00    -0.066 NA
ATOM     17  H2  UNL     1      49.791  42.470  70.468  1.00  0.00     0.169 HD
ENDBRANCH   9  13
ENDBRANCH   1   9
BRANCH   1  18
HETATM   18  N5  UNL     1      52.578  39.807  70.067  1.00  0.00    -0.036 N 
ATOM     19  H53 UNL     1      51.988  39.014  70.318  1.00  0.00     0.278 HD
ATOM     20  H52 UNL     1      52.352  39.865  69.074  1.00  0.00     0.278 HD
ATOM     21  H51 UNL     1      53.565  39.596  70.212  1.00  0.00     0.278 HD
ENDBRANCH   1  18
TORSDOF 3
ENDMDL
MODEL 3
REMARK VINA RESULT: -5.779934501      1.579      2.131
REMARK  3 active torsions:
REMARK  status: ('A' for Active; 'I' for Inactive)
REMARK    1  A    between atoms: C1_4  and  N2_5 
REMARK    2  A    between atoms: C1_4  and  C3_10 
REMARK    3  A    between atoms: C3_10  and  N5_11 
ROOT
HETATM    1  C3  UNL     1      51.087  42.167  71.479  1.00  0.00     0.335 A 
HETATM    2  N6  UNL     1      50.298  42.251  72.691  1.00  0.00    -0.340 N 
ATOM      3  H6  UNL     1      50.490  41.716  73.537  1.00  0.00     0.163 HD
HETATM    4  C4  UNL     1      49.327  43.084  72.567  1.00  0.00     0.181 A 
HETATM    5  N7  UNL     1      49.320  43.666  71.283  1.00  0.00    -0.319 N 
ATOM      6  H7  UNL     1      48.655  44.355  70.931  1.00  0.00     0.169 HD
HETATM    7  C5  UNL     1      50.414  43.111  70.578  1.00  0.00     0.287 A 
HETATM    8  O1  UNL     1      50.729  43.401  69.374  1.00  0.00    -0.268 OA
ENDROOT
BRANCH   1   9
HETATM    9  C1  UNL     1      51.026  40.819  70.875  1.00  0.00     0.144 C 
HETATM   10  N1  UNL     1      50.683  39.830  71.602  1.00  0.00    -0.385 N 
ATOM     11  H12 UNL     1      50.640  38.900  71.186  1.00  0.00     0.157 HD
ATOM     12  H11 UNL     1      50.454  39.961  72.588  1.00  0.00     0.157 HD
BRANCH   9  13
HETATM   13  N2  UNL     1      51.341  40.639  69.518  1.00  0.00    -0.319 N 
HETATM   14  C2  UNL     1      52.481  40.300  69.054  1.00  0.00     0.202 C 
HETATM   15  N3  UNL     1      52.653  40.157  67.660  1.00  0.00    -0.066 NA
HETATM   16  N4  UNL     1      53.548  40.077  69.951  1.00  0.00    -0.066 NA
ATOM     17  H2  UNL     1      50.592  40.792  68.843  1.00  0.00     0.169 HD
ENDBRANCH   9  13
ENDBRANCH   1   9
BRANCH   1  18
HETATM   18  N5  UNL     1      52.457  42.564  71.768  1.00  0.00    -0.036 N 
ATOM     19  H53 UNL     1      52.694  42.398  72.746  1.00  0.00     0.278 HD
ATOM     20  H52 UNL     1      53.127  41.931  71.332  1.00  0.00     0.278 HD
ATOM     21  H51 UNL     1      52.633  43.533  71.503  1.00  0.00     0.278 HD
ENDBRANCH   1  18
TORSDOF 3
ENDMDL
MODEL 4
REMARK VINA RESULT: -5.706799447      1.847      4.095
REMARK  3 active torsions:
REMARK  status: ('A' for Active; 'I' for Inactive)
REMARK    1  A    between atoms: C1_4  and  N2_5 
REMARK    2  A    between atoms: C1_4  and  C3_10 
REMARK    3  A    between atoms: C3_10  and  N5_11 
ROOT
HETATM    1  C3  UNL     1      51.659  41.259  70.569  1.00  0.00     0.335 A 
HETATM    2  N6  UNL     1      52.771  40.368  70.831  1.00  0.00    -0.340 N 
ATOM      3  H6  UNL     1      52.843  39.768  71.652  1.00  0.00     0.163 HD
HETATM    4  C4  UNL     1      53.655  40.428  69.899  1.00  0.00     0.181 A 
HETATM    5  N7  UNL     1      53.276  41.347  68.900  1.00  0.00    -0.319 N 
ATOM      6  H7  UNL     1      53.801  41.580  68.057  1.00  0.00     0.169 HD
HETATM    7  C5  UNL     1      52.028  41.884  69.292  1.00  0.00     0.287 A 
HETATM    8  O1  UNL     1      51.367  42.755  68.631  1.00  0.00    -0.268 OA
ENDROOT
BRANCH   1   9
HETATM    9  C1  UNL     1      51.550  42.318  71.595  1.00  0.00     0.144 C 
HETATM   10  N1  UNL     1      52.228  43.388  71.455  1.00  0.00    -0.385 N 
ATOM     11  H12 UNL     1      52.153  44.118  72.162  1.00  0.00     0.157 HD
ATOM     12  H11 UNL     1      52.839  43.517  70.648  1.00  0.00     0.157 HD
BRANCH   9  13
HETATM   13  N2  UNL     1      50.708  42.140  72.706  1.00  0.00    -0.319 N 
HETATM   14  C2  UNL     1      49.509  42.562  72.810  1.00  0.00     0.202 C 
HETATM   15  N3  UNL     1      48.779  42.309  73.992  1.00  0.00    -0.066 NA
HETATM   16  N4  UNL     1      48.937  43.277  71.735  1.00  0.00    -0.066 NA
ATOM     17  H2  UNL     1      51.091  41.627  73.500  1.00  0.00     0.169 HD
ENDBRANCH   9  13
ENDBRANCH   1   9
BRANCH   1  18
HETATM   18  N5  UNL     1      50.433  40.481  70.468  1.00  0.00    -0.036 N 
ATOM     19  H53 UNL     1      49.612  41.052  70.664  1.00  0.00     0.278 HD
ATOM     20  H52 UNL     1      50.228  40.235  69.499  1.00  0.00     0.278 HD
ATOM     21  H51 UNL     1      50.461  39.654  71.063  1.00  0.00     0.278 HD
ENDBRANCH   1  18
TORSDOF 3
ENDMDL
MODEL 5
REMARK VINA RESULT: -5.647985175      2.176      2.931
REMARK  3 active torsions:
REMARK  status: ('A' for Active; 'I' for Inactive)
REMARK    1  A    between atoms: C1_4  and  N2_5 
REMARK    2  A    between atoms: C1_4  and  C3_10 
REMARK    3  A    between atoms: C3_10  and  N5_11 
ROOT
HETATM    1  C3  UNL     1      51.085  41.864  70.712  1.00  0.00     0.335 A 
HETATM    2  N6  UNL     1      51.126  42.623  69.479  1.00  0.00    -0.340 N 
ATOM      3  H6  UNL     1      51.580  42.304  68.624  1.00  0.00     0.163 HD
HETATM    4  C4  UNL     1      50.519  43.750  69.597  1.00  0.00     0.181 A 
HETATM    5  N7  UNL     1      49.995  43.910  70.896  1.00  0.00    -0.319 N 
ATOM      6  H7  UNL     1      49.473  44.713  71.247  1.00  0.00     0.169 HD
HETATM    7  C5  UNL     1      50.334  42.742  71.618  1.00  0.00     0.287 A 
HETATM    8  O1  UNL     1      50.026  42.523  72.839  1.00  0.00    -0.268 OA
ENDROOT
BRANCH   1   9
HETATM    9  C1  UNL     1      52.437  41.656  71.275  1.00  0.00     0.144 C 
HETATM   10  N1  UNL     1      53.100  40.625  70.929  1.00  0.00    -0.385 N 
ATOM     11  H12 UNL     1      54.032  40.482  71.317  1.00  0.00     0.157 HD
ATOM     12  H11 UNL     1      52.709  39.948  70.273  1.00  0.00     0.157 HD
BRANCH   9  13
HETATM   13  N2  UNL     1      52.975  42.589  72.178  1.00  0.00    -0.319 N 
HETATM   14  C2  UNL     1      53.763  43.548  71.881  1.00  0.00     0.202 C 
HETATM   15  N3  UNL     1      54.228  44.410  72.898  1.00  0.00    -0.066 NA
HETATM   16  N4  UNL     1      54.154  43.723  70.536  1.00  0.00    -0.066 NA
ATOM     17  H2  UNL     1      52.713  42.490  73.159  1.00  0.00     0.169 HD
ENDBRANCH   9  13
ENDBRANCH   1   9
BRANCH   1  18
HETATM   18  N5  UNL     1      50.402  40.601  70.476  1.00  0.00    -0.036 N 
ATOM     19  H53 UNL     1      50.947  39.812  70.821  1.00  0.00     0.278 HD
ATOM     20  H52 UNL     1      49.583  40.504  71.077  1.00  0.00     0.278 HD
ATOM     21  H51 UNL     1      50.158  40.482  69.493  1.00  0.00     0.278 HD
ENDBRANCH   1  18
TORSDOF 3
ENDMDL
