MODEL 1
REMARK VINA RESULT: -7.053555587      0.000      0.000
REMARK  5 active torsions:
REMARK  status: ('A' for Active; 'I' for Inactive)
REMARK    1  A    between atoms: C4_5  and  N2_6 
REMARK    2  A    between atoms: C5_10  and  O1_11 
REMARK    3  A    between atoms: C6_13  and  C7_14 
REMARK    4  A    between atoms: C7_14  and  O2_15 
REMARK    5  A    between atoms: O2_15  and  N3_16 
ROOT
HETATM    1  N1  UNL     1      28.989  42.435  21.510  1.00  0.00    -0.196 NA
HETATM    2  C1  UNL     1      30.133  42.409  21.329  1.00  0.00     0.079 C 
HETATM    3  C2  UNL     1      31.593  42.361  21.119  1.00  0.00     0.217 C 
HETATM    4  C3  UNL     1      31.896  42.830  19.723  1.00  0.00     0.070 C 
HETATM    5  C4  UNL     1      31.920  44.328  19.590  1.00  0.00     0.215 C 
HETATM    6  C5  UNL     1      33.103  44.958  20.285  1.00  0.00     0.169 C 
HETATM    7  C6  UNL     1      32.804  44.954  21.767  1.00  0.00     0.166 C 
HETATM    8  S1  UNL     1      32.425  43.324  22.351  1.00  0.00     0.170 S 
HETATM    9  O5  UNL     1      33.661  42.606  22.809  1.00  0.00    -0.226 OA
HETATM   10  O6  UNL     1      31.508  43.463  23.530  1.00  0.00    -0.226 OA
ENDROOT
BRANCH   5  11
HETATM   11  N2  UNL     1      32.040  44.624  18.164  1.00  0.00    -0.072 N 
ATOM     12  H23 UNL     1      32.905  45.109  17.926  1.00  0.00     0.274 HD
ATOM     13  H22 UNL     1      32.197  43.794  17.593  1.00  0.00     0.274 HD
ATOM     14  H21 UNL     1      31.202  45.142  17.899  1.00  0.00     0.274 HD
ENDBRANCH   5  11
BRANCH   7  15
HETATM   15  C7  UNL     1      33.927  45.547  22.579  1.00  0.00     0.230 C 
BRANCH  15  16
HETATM   16  O2  UNL     1      33.863  46.955  22.648  1.00  0.00    -0.220 OA
BRANCH  16  17
HETATM   17  N3  UNL     1      34.886  47.668  22.105  1.00  0.00     0.004 N 
HETATM   18  O3  UNL     1      36.049  47.351  22.360  1.00  0.00    -0.511 OA
HETATM   19  O4  UNL     1      34.630  48.722  21.287  1.00  0.00    -0.511 OA
ENDBRANCH  16  17
ENDBRANCH  15  16
ENDBRANCH   7  15
BRANCH   6  20
HETATM   20  O1  UNL     1      33.140  46.298  19.884  1.00  0.00    -0.392 OA
ATOM     21  H1  UNL     1      33.521  46.314  19.014  1.00  0.00     0.210 HD
ENDBRANCH   6  20
TORSDOF 5
ENDMDL
MODEL 2
REMARK VINA RESULT: -7.002733429      3.271      5.809
REMARK  5 active torsions:
REMARK  status: ('A' for Active; 'I' for Inactive)
REMARK    1  A    between atoms: C4_5  and  N2_6 
REMARK    2  A    between atoms: C5_10  and  O1_11 
REMARK    3  A    between atoms: C6_13  and  C7_14 
REMARK    4  A    between atoms: C7_14  and  O2_15 
REMARK    5  A    between atoms: O2_15  and  N3_16 
ROOT
HETATM    1  N1  UNL     1      33.070  47.047  20.442  1.00  0.00    -0.196 NA
HETATM    2  C1  UNL     1      33.079  45.952  20.822  1.00  0.00     0.079 C 
HETATM    3  C2  UNL     1      33.111  44.554  21.291  1.00  0.00     0.217 C 
HETATM    4  C3  UNL     1      32.300  44.449  22.553  1.00  0.00     0.070 C 
HETATM    5  C4  UNL     1      30.822  44.337  22.303  1.00  0.00     0.215 C 
HETATM    6  C5  UNL     1      30.429  43.014  21.691  1.00  0.00     0.169 C 
HETATM    7  C6  UNL     1      30.814  43.068  20.230  1.00  0.00     0.166 C 
HETATM    8  S1  UNL     1      32.529  43.465  20.021  1.00  0.00     0.170 S 
HETATM    9  O5  UNL     1      33.377  42.226  19.986  1.00  0.00    -0.226 OA
HETATM   10  O6  UNL     1      32.680  44.165  18.704  1.00  0.00    -0.226 OA
ENDROOT
BRANCH   5  11
HETATM   11  N2  UNL     1      30.164  44.430  23.605  1.00  0.00    -0.072 N 
ATOM     12  H23 UNL     1      29.970  43.520  24.023  1.00  0.00     0.274 HD
ATOM     13  H22 UNL     1      30.777  44.781  24.341  1.00  0.00     0.274 HD
ATOM     14  H21 UNL     1      29.327  44.998  23.474  1.00  0.00     0.274 HD
ENDBRANCH   5  11
BRANCH   7  15
HETATM   15  C7  UNL     1      30.487  41.787  19.504  1.00  0.00     0.230 C 
BRANCH  15  16
HETATM   16  O2  UNL     1      30.504  41.938  18.102  1.00  0.00    -0.220 OA
BRANCH  16  17
HETATM   17  N3  UNL     1      31.268  41.078  17.375  1.00  0.00     0.004 N 
HETATM   18  O3  UNL     1      32.351  41.459  16.928  1.00  0.00    -0.511 OA
HETATM   19  O4  UNL     1      30.843  39.809  17.145  1.00  0.00    -0.511 OA
ENDBRANCH  16  17
ENDBRANCH  15  16
ENDBRANCH   7  15
BRANCH   6  20
HETATM   20  O1  UNL     1      29.033  42.946  21.738  1.00  0.00    -0.392 OA
ATOM     21  H1  UNL     1      28.706  43.557  21.090  1.00  0.00     0.210 HD
ENDBRANCH   6  20
TORSDOF 5
ENDMDL
MODEL 3
REMARK VINA RESULT: -6.898133827      1.630      1.888
REMARK  5 active torsions:
REMARK  status: ('A' for Active; 'I' for Inactive)
REMARK    1  A    between atoms: C4_5  and  N2_6 
REMARK    2  A    between atoms: C5_10  and  O1_11 
REMARK    3  A    between atoms: C6_13  and  C7_14 
REMARK    4  A    between atoms: C7_14  and  O2_15 
REMARK    5  A    between atoms: O2_15  and  N3_16 
ROOT
HETATM    1  N1  UNL     1      29.336  42.364  21.942  1.00  0.00    -0.196 NA
HETATM    2  C1  UNL     1      30.453  42.232  21.662  1.00  0.00     0.079 C 
HETATM    3  C2  UNL     1      31.878  42.050  21.328  1.00  0.00     0.217 C 
HETATM    4  C3  UNL     1      32.073  42.339  19.866  1.00  0.00     0.070 C 
HETATM    5  C4  UNL     1      32.182  43.807  19.558  1.00  0.00     0.215 C 
HETATM    6  C5  UNL     1      33.467  44.417  20.066  1.00  0.00     0.169 C 
HETATM    7  C6  UNL     1      33.315  44.598  21.559  1.00  0.00     0.166 C 
HETATM    8  S1  UNL     1      32.889  43.075  22.360  1.00  0.00     0.170 S 
HETATM    9  O5  UNL     1      34.114  42.319  22.785  1.00  0.00    -0.226 OA
HETATM   10  O6  UNL     1      32.103  43.411  23.593  1.00  0.00    -0.226 OA
ENDROOT
BRANCH   5  11
HETATM   11  N2  UNL     1      32.180  43.936  18.103  1.00  0.00    -0.072 N 
ATOM     12  H23 UNL     1      31.634  43.212  17.636  1.00  0.00     0.274 HD
ATOM     13  H22 UNL     1      31.644  44.737  17.771  1.00  0.00     0.274 HD
ATOM     14  H21 UNL     1      33.156  43.956  17.807  1.00  0.00     0.274 HD
ENDBRANCH   5  11
BRANCH   7  15
HETATM   15  C7  UNL     1      34.549  45.189  22.193  1.00  0.00     0.230 C 
BRANCH  15  16
HETATM   16  O2  UNL     1      35.712  44.971  21.425  1.00  0.00    -0.220 OA
BRANCH  16  17
HETATM   17  N3  UNL     1      36.885  44.768  22.084  1.00  0.00     0.004 N 
HETATM   18  O3  UNL     1      37.145  43.648  22.529  1.00  0.00    -0.511 OA
HETATM   19  O4  UNL     1      37.763  45.790  22.252  1.00  0.00    -0.511 OA
ENDBRANCH  16  17
ENDBRANCH  15  16
ENDBRANCH   7  15
BRANCH   6  20
HETATM   20  O1  UNL     1      33.552  45.699  19.511  1.00  0.00    -0.392 OA
ATOM     21  H1  UNL     1      34.216  46.167  20.002  1.00  0.00     0.210 HD
ENDBRANCH   6  20
TORSDOF 5
ENDMDL
MODEL 4
REMARK VINA RESULT: -6.850428243      2.711      4.075
REMARK  5 active torsions:
REMARK  status: ('A' for Active; 'I' for Inactive)
REMARK    1  A    between atoms: C4_5  and  N2_6 
REMARK    2  A    between atoms: C5_10  and  O1_11 
REMARK    3  A    between atoms: C6_13  and  C7_14 
REMARK    4  A    between atoms: C7_14  and  O2_15 
REMARK    5  A    between atoms: O2_15  and  N3_16 
ROOT
HETATM    1  N1  UNL     1      30.079  41.122  18.616  1.00  0.00    -0.196 NA
HETATM    2  C1  UNL     1      30.185  42.118  19.198  1.00  0.00     0.079 C 
HETATM    3  C2  UNL     1      30.325  43.400  19.916  1.00  0.00     0.217 C 
HETATM    4  C3  UNL     1      29.685  43.268  21.269  1.00  0.00     0.070 C 
HETATM    5  C4  UNL     1      30.569  42.595  22.284  1.00  0.00     0.215 C 
HETATM    6  C5  UNL     1      31.746  43.448  22.691  1.00  0.00     0.169 C 
HETATM    7  C6  UNL     1      32.753  43.386  21.565  1.00  0.00     0.166 C 
HETATM    8  S1  UNL     1      32.031  43.865  20.018  1.00  0.00     0.170 S 
HETATM    9  O5  UNL     1      32.171  45.341  19.783  1.00  0.00    -0.226 OA
HETATM   10  O6  UNL     1      32.773  43.153  18.927  1.00  0.00    -0.226 OA
ENDROOT
BRANCH   5  11
HETATM   11  N2  UNL     1      29.754  42.375  23.476  1.00  0.00    -0.072 N 
ATOM     12  H23 UNL     1      29.955  43.034  24.228  1.00  0.00     0.274 HD
ATOM     13  H22 UNL     1      28.774  42.625  23.345  1.00  0.00     0.274 HD
ATOM     14  H21 UNL     1      29.886  41.401  23.749  1.00  0.00     0.274 HD
ENDBRANCH   5  11
BRANCH   7  15
HETATM   15  C7  UNL     1      33.978  44.218  21.845  1.00  0.00     0.230 C 
BRANCH  15  16
HETATM   16  O2  UNL     1      35.169  43.591  21.423  1.00  0.00    -0.220 OA
BRANCH  16  17
HETATM   17  N3  UNL     1      35.747  42.688  22.261  1.00  0.00     0.004 N 
HETATM   18  O3  UNL     1      36.943  42.797  22.539  1.00  0.00    -0.511 OA
HETATM   19  O4  UNL     1      35.014  41.673  22.787  1.00  0.00    -0.511 OA
ENDBRANCH  16  17
ENDBRANCH  15  16
ENDBRANCH   7  15
BRANCH   6  20
HETATM   20  O1  UNL     1      32.336  42.822  23.794  1.00  0.00    -0.392 OA
ATOM     21  H1  UNL     1      33.207  43.189  23.885  1.00  0.00     0.210 HD
ENDBRANCH   6  20
TORSDOF 5
ENDMDL
MODEL 5
REMARK VINA RESULT: -6.803440991      2.704      5.131
REMARK  5 active torsions:
REMARK  status: ('A' for Active; 'I' for Inactive)
REMARK    1  A    between atoms: C4_5  and  N2_6 
REMARK    2  A    between atoms: C5_10  and  O1_11 
REMARK    3  A    between atoms: C6_13  and  C7_14 
REMARK    4  A    between atoms: C7_14  and  O2_15 
REMARK    5  A    between atoms: O2_15  and  N3_16 
ROOT
HETATM    1  N1  UNL     1      37.015  43.702  21.102  1.00  0.00    -0.196 NA
HETATM    2  C1  UNL     1      35.991  43.945  21.585  1.00  0.00     0.079 C 
HETATM    3  C2  UNL     1      34.692  44.241  22.220  1.00  0.00     0.217 C 
HETATM    4  C3  UNL     1      34.107  45.468  21.576  1.00  0.00     0.070 C 
HETATM    5  C4  UNL     1      33.412  45.182  20.274  1.00  0.00     0.215 C 
HETATM    6  C5  UNL     1      32.129  44.406  20.453  1.00  0.00     0.169 C 
HETATM    7  C6  UNL     1      32.511  42.969  20.725  1.00  0.00     0.166 C 
HETATM    8  S1  UNL     1      33.616  42.839  22.105  1.00  0.00     0.170 S 
HETATM    9  O5  UNL     1      32.865  42.667  23.393  1.00  0.00    -0.226 OA
HETATM   10  O6  UNL     1      34.464  41.619  21.898  1.00  0.00    -0.226 OA
ENDROOT
BRANCH   5  11
HETATM   11  N2  UNL     1      33.065  46.474  19.687  1.00  0.00    -0.072 N 
ATOM     12  H23 UNL     1      32.287  46.421  19.029  1.00  0.00     0.274 HD
ATOM     13  H22 UNL     1      32.628  47.113  20.351  1.00  0.00     0.274 HD
ATOM     14  H21 UNL     1      33.918  46.849  19.271  1.00  0.00     0.274 HD
ENDBRANCH   5  11
BRANCH   7  15
HETATM   15  C7  UNL     1      31.307  42.088  20.941  1.00  0.00     0.230 C 
BRANCH  15  16
HETATM   16  O2  UNL     1      30.292  42.726  21.685  1.00  0.00    -0.220 OA
BRANCH  16  17
HETATM   17  N3  UNL     1      29.653  42.004  22.644  1.00  0.00     0.004 N 
HETATM   18  O3  UNL     1      28.982  41.023  22.318  1.00  0.00    -0.511 OA
HETATM   19  O4  UNL     1      29.750  42.360  23.951  1.00  0.00    -0.511 OA
ENDBRANCH  16  17
ENDBRANCH  15  16
ENDBRANCH   7  15
BRANCH   6  20
HETATM   20  O1  UNL     1      31.472  44.422  19.218  1.00  0.00    -0.392 OA
ATOM     21  H1  UNL     1      30.824  45.115  19.260  1.00  0.00     0.210 HD
ENDBRANCH   6  20
TORSDOF 5
ENDMDL
