MODEL 1
REMARK VINA RESULT: -6.796948749      0.000      0.000
REMARK  5 active torsions:
REMARK  status: ('A' for Active; 'I' for Inactive)
REMARK    1  A    between atoms: C2_2  and  O2_4 
REMARK    2  A    between atoms: O2_4  and  C3_5 
REMARK    3  A    between atoms: C5_7  and  O3_8 
REMARK    4  A    between atoms: C6_10  and  O4_11 
REMARK    5  A    between atoms: O4_11  and  S1_12 
ROOT
HETATM    1  C3  UNL     1      32.305  42.242  21.901  1.00  0.00     0.271 C 
HETATM    2  C4  UNL     1      31.748  43.604  21.539  1.00  0.00     0.095 C 
HETATM    3  C5  UNL     1      32.878  44.378  20.889  1.00  0.00     0.155 C 
HETATM    4  C6  UNL     1      33.972  44.455  21.952  1.00  0.00     0.197 C 
HETATM    5  C7  UNL     1      34.440  43.043  22.192  1.00  0.00     0.207 C 
HETATM    6  O8  UNL     1      33.351  42.379  22.804  1.00  0.00    -0.358 OA
ENDROOT
BRANCH   4   7
HETATM    7  O4  UNL     1      34.936  45.355  21.677  1.00  0.00    -0.247 OA
BRANCH   7   8
HETATM    8  S1  UNL     1      34.640  46.924  22.117  1.00  0.00     0.252 S 
HETATM    9  O5  UNL     1      35.973  47.599  22.302  1.00  0.00    -0.572 OA
HETATM   10  O6  UNL     1      33.884  47.076  23.378  1.00  0.00    -0.572 OA
HETATM   11  O7  UNL     1      33.832  47.780  20.903  1.00  0.00    -0.572 OA
ENDBRANCH   7   8
ENDBRANCH   4   7
BRANCH   3  12
HETATM   12  O3  UNL     1      33.299  43.601  19.795  1.00  0.00    -0.393 OA
ATOM     13  H3  UNL     1      32.958  44.034  19.022  1.00  0.00     0.210 HD
ENDBRANCH   3  12
BRANCH   1  14
HETATM   14  O2  UNL     1      31.321  41.410  22.433  1.00  0.00    -0.290 OA
BRANCH  14  15
HETATM   15  C2  UNL     1      30.029  41.784  22.732  1.00  0.00     0.257 C 
HETATM   16  C1  UNL     1      28.931  41.521  21.748  1.00  0.00     0.126 C 
HETATM   17  O1  UNL     1      29.807  42.336  23.826  1.00  0.00    -0.266 OA
ENDBRANCH  14  15
ENDBRANCH   1  14
TORSDOF 5
ENDMDL
MODEL 2
REMARK VINA RESULT: -6.695999168      0.107      1.085
REMARK  5 active torsions:
REMARK  status: ('A' for Active; 'I' for Inactive)
REMARK    1  A    between atoms: C2_2  and  O2_4 
REMARK    2  A    between atoms: O2_4  and  C3_5 
REMARK    3  A    between atoms: C5_7  and  O3_8 
REMARK    4  A    between atoms: C6_10  and  O4_11 
REMARK    5  A    between atoms: O4_11  and  S1_12 
ROOT
HETATM    1  C3  UNL     1      32.284  42.211  21.900  1.00  0.00     0.271 C 
HETATM    2  C4  UNL     1      31.719  43.556  21.487  1.00  0.00     0.095 C 
HETATM    3  C5  UNL     1      32.852  44.321  20.831  1.00  0.00     0.155 C 
HETATM    4  C6  UNL     1      33.927  44.442  21.908  1.00  0.00     0.197 C 
HETATM    5  C7  UNL     1      34.406  43.043  22.199  1.00  0.00     0.207 C 
HETATM    6  O8  UNL     1      33.314  42.387  22.814  1.00  0.00    -0.358 OA
ENDROOT
BRANCH   4   7
HETATM    7  O4  UNL     1      34.886  45.344  21.622  1.00  0.00    -0.247 OA
BRANCH   7   8
HETATM    8  S1  UNL     1      34.558  46.925  21.989  1.00  0.00     0.252 S 
HETATM    9  O5  UNL     1      33.775  46.935  23.275  1.00  0.00    -0.572 OA
HETATM   10  O6  UNL     1      33.756  47.638  20.972  1.00  0.00    -0.572 OA
HETATM   11  O7  UNL     1      35.967  47.814  22.277  1.00  0.00    -0.572 OA
ENDBRANCH   7   8
ENDBRANCH   4   7
BRANCH   3  12
HETATM   12  O3  UNL     1      33.297  43.516  19.769  1.00  0.00    -0.393 OA
ATOM     13  H3  UNL     1      34.235  43.423  19.888  1.00  0.00     0.210 HD
ENDBRANCH   3  12
BRANCH   1  14
HETATM   14  O2  UNL     1      31.300  41.385  22.441  1.00  0.00    -0.290 OA
BRANCH  14  15
HETATM   15  C2  UNL     1      30.007  41.761  22.732  1.00  0.00     0.257 C 
HETATM   16  C1  UNL     1      28.917  41.510  21.736  1.00  0.00     0.126 C 
HETATM   17  O1  UNL     1      29.777  42.305  23.828  1.00  0.00    -0.266 OA
ENDBRANCH  14  15
ENDBRANCH   1  14
TORSDOF 5
ENDMDL
MODEL 3
REMARK VINA RESULT: -6.654694215      2.744      5.750
REMARK  5 active torsions:
REMARK  status: ('A' for Active; 'I' for Inactive)
REMARK    1  A    between atoms: C2_2  and  O2_4 
REMARK    2  A    between atoms: O2_4  and  C3_5 
REMARK    3  A    between atoms: C5_7  and  O3_8 
REMARK    4  A    between atoms: C6_10  and  O4_11 
REMARK    5  A    between atoms: O4_11  and  S1_12 
ROOT
HETATM    1  C3  UNL     1      34.328  43.529  21.478  1.00  0.00     0.271 C 
HETATM    2  C4  UNL     1      33.660  44.569  22.355  1.00  0.00     0.095 C 
HETATM    3  C5  UNL     1      32.350  43.966  22.824  1.00  0.00     0.155 C 
HETATM    4  C6  UNL     1      31.562  43.680  21.548  1.00  0.00     0.197 C 
HETATM    5  C7  UNL     1      32.329  42.623  20.795  1.00  0.00     0.207 C 
HETATM    6  O8  UNL     1      33.529  43.247  20.379  1.00  0.00    -0.358 OA
ENDROOT
BRANCH   4   7
HETATM    7  O4  UNL     1      30.257  43.420  21.759  1.00  0.00    -0.247 OA
BRANCH   7   8
HETATM    8  S1  UNL     1      29.886  41.945  22.413  1.00  0.00     0.252 S 
HETATM    9  O5  UNL     1      29.672  42.149  23.890  1.00  0.00    -0.572 OA
HETATM   10  O6  UNL     1      30.938  40.920  22.252  1.00  0.00    -0.572 OA
HETATM   11  O7  UNL     1      28.438  41.326  21.799  1.00  0.00    -0.572 OA
ENDBRANCH   7   8
ENDBRANCH   4   7
BRANCH   3  12
HETATM   12  O3  UNL     1      32.689  42.770  23.480  1.00  0.00    -0.393 OA
ATOM     13  H3  UNL     1      32.142  42.096  23.094  1.00  0.00     0.210 HD
ENDBRANCH   3  12
BRANCH   1  14
HETATM   14  O2  UNL     1      35.589  43.947  21.057  1.00  0.00    -0.290 OA
BRANCH  14  15
HETATM   15  C2  UNL     1      36.733  43.948  21.826  1.00  0.00     0.257 C 
HETATM   16  C1  UNL     1      37.242  42.663  22.404  1.00  0.00     0.126 C 
HETATM   17  O1  UNL     1      37.319  45.029  22.020  1.00  0.00    -0.266 OA
ENDBRANCH  14  15
ENDBRANCH   1  14
TORSDOF 5
ENDMDL
MODEL 4
REMARK VINA RESULT: -6.642959347      2.603      5.621
REMARK  5 active torsions:
REMARK  status: ('A' for Active; 'I' for Inactive)
REMARK    1  A    between atoms: C2_2  and  O2_4 
REMARK    2  A    between atoms: O2_4  and  C3_5 
REMARK    3  A    between atoms: C5_7  and  O3_8 
REMARK    4  A    between atoms: C6_10  and  O4_11 
REMARK    5  A    between atoms: O4_11  and  S1_12 
ROOT
HETATM    1  C3  UNL     1      34.585  44.652  21.215  1.00  0.00     0.271 C 
HETATM    2  C4  UNL     1      33.710  44.479  19.989  1.00  0.00     0.095 C 
HETATM    3  C5  UNL     1      32.300  44.853  20.404  1.00  0.00     0.155 C 
HETATM    4  C6  UNL     1      31.942  43.879  21.523  1.00  0.00     0.197 C 
HETATM    5  C7  UNL     1      32.871  44.180  22.672  1.00  0.00     0.207 C 
HETATM    6  O8  UNL     1      34.160  43.803  22.228  1.00  0.00    -0.358 OA
ENDROOT
BRANCH   4   7
HETATM    7  O4  UNL     1      30.629  43.850  21.822  1.00  0.00    -0.247 OA
BRANCH   7   8
HETATM    8  S1  UNL     1      30.018  42.410  22.366  1.00  0.00     0.252 S 
HETATM    9  O5  UNL     1      31.072  41.359  22.136  1.00  0.00    -0.572 OA
HETATM   10  O6  UNL     1      28.787  41.967  21.680  1.00  0.00    -0.572 OA
HETATM   11  O7  UNL     1      29.723  42.437  24.031  1.00  0.00    -0.572 OA
ENDBRANCH   7   8
ENDBRANCH   4   7
BRANCH   3  12
HETATM   12  O3  UNL     1      32.379  46.169  20.893  1.00  0.00    -0.393 OA
ATOM     13  H3  UNL     1      32.160  46.732  20.160  1.00  0.00     0.210 HD
ENDBRANCH   3  12
BRANCH   1  14
HETATM   14  O2  UNL     1      35.927  44.416  20.925  1.00  0.00    -0.290 OA
BRANCH  14  15
HETATM   15  C2  UNL     1      36.936  44.269  21.853  1.00  0.00     0.257 C 
HETATM   16  C1  UNL     1      37.311  42.901  22.335  1.00  0.00     0.126 C 
HETATM   17  O1  UNL     1      37.514  45.290  22.270  1.00  0.00    -0.266 OA
ENDBRANCH  14  15
ENDBRANCH   1  14
TORSDOF 5
ENDMDL
MODEL 5
REMARK VINA RESULT: -6.641525721      2.855      6.199
REMARK  5 active torsions:
REMARK  status: ('A' for Active; 'I' for Inactive)
REMARK    1  A    between atoms: C2_2  and  O2_4 
REMARK    2  A    between atoms: O2_4  and  C3_5 
REMARK    3  A    between atoms: C5_7  and  O3_8 
REMARK    4  A    between atoms: C6_10  and  O4_11 
REMARK    5  A    between atoms: O4_11  and  S1_12 
ROOT
HETATM    1  C3  UNL     1      34.290  47.460  21.105  1.00  0.00     0.271 C 
HETATM    2  C4  UNL     1      34.529  46.607  22.335  1.00  0.00     0.095 C 
HETATM    3  C5  UNL     1      34.419  45.162  21.890  1.00  0.00     0.155 C 
HETATM    4  C6  UNL     1      33.001  45.019  21.343  1.00  0.00     0.197 C 
HETATM    5  C7  UNL     1      32.919  45.899  20.122  1.00  0.00     0.207 C 
HETATM    6  O8  UNL     1      33.018  47.226  20.602  1.00  0.00    -0.358 OA
ENDROOT
BRANCH   4   7
HETATM    7  O4  UNL     1      32.608  43.742  21.174  1.00  0.00    -0.247 OA
BRANCH   7   8
HETATM    8  S1  UNL     1      32.492  42.810  22.538  1.00  0.00     0.252 S 
HETATM    9  O5  UNL     1      31.466  41.742  22.268  1.00  0.00    -0.572 OA
HETATM   10  O6  UNL     1      32.066  43.543  23.749  1.00  0.00    -0.572 OA
HETATM   11  O7  UNL     1      33.941  42.008  22.882  1.00  0.00    -0.572 OA
ENDBRANCH   7   8
ENDBRANCH   4   7
BRANCH   3  12
HETATM   12  O3  UNL     1      35.368  45.000  20.866  1.00  0.00    -0.393 OA
ATOM     13  H3  UNL     1      35.361  45.813  20.374  1.00  0.00     0.210 HD
ENDBRANCH   3  12
BRANCH   1  14
HETATM   14  O2  UNL     1      34.453  48.816  21.382  1.00  0.00    -0.290 OA
BRANCH  14  15
HETATM   15  C2  UNL     1      34.704  49.801  20.451  1.00  0.00     0.257 C 
HETATM   16  C1  UNL     1      33.613  50.247  19.526  1.00  0.00     0.126 C 
HETATM   17  O1  UNL     1      35.843  50.300  20.405  1.00  0.00    -0.266 OA
ENDBRANCH  14  15
ENDBRANCH   1  14
TORSDOF 5
ENDMDL
