MODEL 1
REMARK VINA RESULT: -9.901188824      0.000      0.000
REMARK  5 active torsions:
REMARK  status: ('A' for Active; 'I' for Inactive)
REMARK    1  A    between atoms: C4_4  and  C5_5 
REMARK    2  A    between atoms: C5_5  and  N1_6 
REMARK    3  A    between atoms: C7_8  and  C8_9 
REMARK    4  A    between atoms: C14_15  and  C15_16 
REMARK    5  A    between atoms: C21_22  and  C22_23 
ROOT
HETATM    1  N1  UNL     1      56.471  29.592  74.027  1.00  0.00    -0.350 N 
HETATM    2  C6  UNL     1      56.749  28.465  74.744  1.00  0.00     0.105 A 
HETATM    3  C7  UNL     1      57.694  28.775  75.710  1.00  0.00     0.003 A 
HETATM    4  C14 UNL     1      57.967  30.107  75.550  1.00  0.00     0.014 A 
HETATM    5  C21 UNL     1      57.199  30.614  74.495  1.00  0.00     0.057 A 
ENDROOT
BRANCH   1   6
HETATM    6  C5  UNL     1      55.531  29.637  72.937  1.00  0.00     0.167 C 
BRANCH   6   7
HETATM    7  C4  UNL     1      56.055  30.400  71.757  1.00  0.00    -0.040 A 
HETATM    8  C3  UNL     1      57.218  30.058  71.103  1.00  0.00     0.009 A 
HETATM    9  C2  UNL     1      57.652  30.789  70.040  1.00  0.00     0.001 A 
HETATM   10  C1  UNL     1      56.977  31.888  69.556  1.00  0.00     0.000 A 
HETATM   11  C29 UNL     1      55.806  32.226  70.220  1.00  0.00     0.001 A 
HETATM   12  C28 UNL     1      55.341  31.510  71.297  1.00  0.00     0.009 A 
ENDBRANCH   6   7
ENDBRANCH   1   6
BRANCH   5  13
HETATM   13  C22 UNL     1      57.246  31.999  74.057  1.00  0.00    -0.008 A 
HETATM   14  C23 UNL     1      58.272  32.538  73.309  1.00  0.00     0.014 A 
HETATM   15  C24 UNL     1      58.264  33.858  72.918  1.00  0.00     0.001 A 
HETATM   16  C25 UNL     1      57.211  34.696  73.268  1.00  0.00     0.000 A 
HETATM   17  C26 UNL     1      56.170  34.159  74.023  1.00  0.00     0.001 A 
HETATM   18  C27 UNL     1      56.205  32.834  74.400  1.00  0.00     0.014 A 
ENDBRANCH   5  13
BRANCH   3  19
HETATM   19  C8  UNL     1      58.261  27.856  76.681  1.00  0.00    -0.024 A 
HETATM   20  C9  UNL     1      59.580  27.853  77.067  1.00  0.00     0.012 A 
HETATM   21  C10 UNL     1      60.088  26.972  77.979  1.00  0.00     0.001 A 
HETATM   22  C11 UNL     1      59.244  26.042  78.539  1.00  0.00     0.000 A 
HETATM   23  C12 UNL     1      57.902  25.990  78.193  1.00  0.00     0.001 A 
HETATM   24  C13 UNL     1      57.439  26.900  77.269  1.00  0.00     0.012 A 
ENDBRANCH   3  19
BRANCH   4  25
HETATM   25  C15 UNL     1      58.901  30.902  76.331  1.00  0.00    -0.023 A 
HETATM   26  C16 UNL     1      58.393  31.665  77.383  1.00  0.00     0.012 A 
HETATM   27  C17 UNL     1      59.227  32.433  78.161  1.00  0.00     0.001 A 
HETATM   28  C18 UNL     1      60.582  32.437  77.882  1.00  0.00     0.000 A 
HETATM   29  C19 UNL     1      61.122  31.700  76.856  1.00  0.00     0.001 A 
HETATM   30  C20 UNL     1      60.264  30.940  76.092  1.00  0.00     0.012 A 
ENDBRANCH   4  25
TORSDOF 5
ENDMDL
MODEL 2
REMARK VINA RESULT: -9.711775008      2.908      5.708
REMARK  5 active torsions:
REMARK  status: ('A' for Active; 'I' for Inactive)
REMARK    1  A    between atoms: C4_4  and  C5_5 
REMARK    2  A    between atoms: C5_5  and  N1_6 
REMARK    3  A    between atoms: C7_8  and  C8_9 
REMARK    4  A    between atoms: C14_15  and  C15_16 
REMARK    5  A    between atoms: C21_22  and  C22_23 
ROOT
HETATM    1  N1  UNL     1      59.833  33.271  75.799  1.00  0.00    -0.350 N 
HETATM    2  C6  UNL     1      60.833  33.207  76.724  1.00  0.00     0.105 A 
HETATM    3  C7  UNL     1      60.744  31.995  77.393  1.00  0.00     0.003 A 
HETATM    4  C14 UNL     1      59.671  31.346  76.843  1.00  0.00     0.014 A 
HETATM    5  C21 UNL     1      59.104  32.149  75.846  1.00  0.00     0.057 A 
ENDROOT
BRANCH   1   6
HETATM    6  C5  UNL     1      59.623  34.395  74.923  1.00  0.00     0.167 C 
BRANCH   6   7
HETATM    7  C4  UNL     1      60.409  35.602  75.338  1.00  0.00    -0.040 A 
HETATM    8  C3  UNL     1      61.755  35.554  75.627  1.00  0.00     0.009 A 
HETATM    9  C2  UNL     1      62.421  36.679  76.004  1.00  0.00     0.001 A 
HETATM   10  C1  UNL     1      61.815  37.910  76.117  1.00  0.00     0.000 A 
HETATM   11  C29 UNL     1      60.459  37.952  75.824  1.00  0.00     0.001 A 
HETATM   12  C28 UNL     1      59.757  36.834  75.441  1.00  0.00     0.009 A 
ENDBRANCH   6   7
ENDBRANCH   1   6
BRANCH   5  13
HETATM   13  C22 UNL     1      57.944  31.761  75.061  1.00  0.00    -0.008 A 
HETATM   14  C23 UNL     1      57.999  30.933  73.959  1.00  0.00     0.014 A 
HETATM   15  C24 UNL     1      56.866  30.595  73.254  1.00  0.00     0.001 A 
HETATM   16  C25 UNL     1      55.620  31.082  73.634  1.00  0.00     0.000 A 
HETATM   17  C26 UNL     1      55.557  31.918  74.746  1.00  0.00     0.001 A 
HETATM   18  C27 UNL     1      56.707  32.240  75.434  1.00  0.00     0.014 A 
ENDBRANCH   5  13
BRANCH   3  19
HETATM   19  C8  UNL     1      61.620  31.534  78.454  1.00  0.00    -0.024 A 
HETATM   20  C9  UNL     1      61.534  30.298  79.049  1.00  0.00     0.012 A 
HETATM   21  C10 UNL     1      62.369  29.893  80.051  1.00  0.00     0.001 A 
HETATM   22  C11 UNL     1      63.344  30.758  80.488  1.00  0.00     0.000 A 
HETATM   23  C12 UNL     1      63.486  32.020  79.930  1.00  0.00     0.001 A 
HETATM   24  C13 UNL     1      62.620  32.381  78.923  1.00  0.00     0.012 A 
ENDBRANCH   3  19
BRANCH   4  25
HETATM   25  C15 UNL     1      59.169  30.031  77.211  1.00  0.00    -0.023 A 
HETATM   26  C16 UNL     1      58.200  29.954  78.210  1.00  0.00     0.012 A 
HETATM   27  C17 UNL     1      57.684  28.740  78.597  1.00  0.00     0.001 A 
HETATM   28  C18 UNL     1      58.143  27.592  77.976  1.00  0.00     0.000 A 
HETATM   29  C19 UNL     1      59.097  27.625  76.987  1.00  0.00     0.001 A 
HETATM   30  C20 UNL     1      59.598  28.854  76.620  1.00  0.00     0.012 A 
ENDBRANCH   4  25
TORSDOF 5
ENDMDL
MODEL 3
REMARK VINA RESULT: -9.700684539      2.977      5.892
REMARK  5 active torsions:
REMARK  status: ('A' for Active; 'I' for Inactive)
REMARK    1  A    between atoms: C4_4  and  C5_5 
REMARK    2  A    between atoms: C5_5  and  N1_6 
REMARK    3  A    between atoms: C7_8  and  C8_9 
REMARK    4  A    between atoms: C14_15  and  C15_16 
REMARK    5  A    between atoms: C21_22  and  C22_23 
ROOT
HETATM    1  N1  UNL     1      59.883  33.403  75.849  1.00  0.00    -0.350 N 
HETATM    2  C6  UNL     1      60.891  33.311  76.763  1.00  0.00     0.105 A 
HETATM    3  C7  UNL     1      60.779  32.099  77.429  1.00  0.00     0.003 A 
HETATM    4  C14 UNL     1      59.685  31.479  76.888  1.00  0.00     0.014 A 
HETATM    5  C21 UNL     1      59.127  32.299  75.900  1.00  0.00     0.057 A 
ENDROOT
BRANCH   1   6
HETATM    6  C5  UNL     1      59.690  34.535  74.979  1.00  0.00     0.167 C 
BRANCH   6   7
HETATM    7  C4  UNL     1      60.496  35.726  75.400  1.00  0.00    -0.040 A 
HETATM    8  C3  UNL     1      61.847  35.660  75.663  1.00  0.00     0.009 A 
HETATM    9  C2  UNL     1      62.531  36.772  76.048  1.00  0.00     0.001 A 
HETATM   10  C1  UNL     1      61.938  38.007  76.194  1.00  0.00     0.000 A 
HETATM   11  C29 UNL     1      60.578  38.066  75.926  1.00  0.00     0.001 A 
HETATM   12  C28 UNL     1      59.858  36.962  75.537  1.00  0.00     0.009 A 
ENDBRANCH   6   7
ENDBRANCH   1   6
BRANCH   5  13
HETATM   13  C22 UNL     1      57.949  31.942  75.126  1.00  0.00    -0.008 A 
HETATM   14  C23 UNL     1      56.654  32.180  75.536  1.00  0.00     0.014 A 
HETATM   15  C24 UNL     1      55.575  31.823  74.760  1.00  0.00     0.001 A 
HETATM   16  C25 UNL     1      55.759  31.205  73.528  1.00  0.00     0.000 A 
HETATM   17  C26 UNL     1      57.064  30.961  73.107  1.00  0.00     0.001 A 
HETATM   18  C27 UNL     1      58.126  31.330  73.904  1.00  0.00     0.014 A 
ENDBRANCH   5  13
BRANCH   3  19
HETATM   19  C8  UNL     1      61.655  31.613  78.478  1.00  0.00    -0.024 A 
HETATM   20  C9  UNL     1      61.567  30.365  79.046  1.00  0.00     0.012 A 
HETATM   21  C10 UNL     1      62.402  29.935  80.038  1.00  0.00     0.001 A 
HETATM   22  C11 UNL     1      63.379  30.789  80.493  1.00  0.00     0.000 A 
HETATM   23  C12 UNL     1      63.523  32.063  79.964  1.00  0.00     0.001 A 
HETATM   24  C13 UNL     1      62.656  32.448  78.965  1.00  0.00     0.012 A 
ENDBRANCH   3  19
BRANCH   4  25
HETATM   25  C15 UNL     1      59.155  30.175  77.257  1.00  0.00    -0.023 A 
HETATM   26  C16 UNL     1      59.614  29.059  76.558  1.00  0.00     0.012 A 
HETATM   27  C17 UNL     1      59.154  27.800  76.865  1.00  0.00     0.001 A 
HETATM   28  C18 UNL     1      58.226  27.658  77.882  1.00  0.00     0.000 A 
HETATM   29  C19 UNL     1      57.749  28.732  78.594  1.00  0.00     0.001 A 
HETATM   30  C20 UNL     1      58.225  29.982  78.266  1.00  0.00     0.012 A 
ENDBRANCH   4  25
TORSDOF 5
ENDMDL
MODEL 4
REMARK VINA RESULT: -9.560394842      2.525      5.511
REMARK  5 active torsions:
REMARK  status: ('A' for Active; 'I' for Inactive)
REMARK    1  A    between atoms: C4_4  and  C5_5 
REMARK    2  A    between atoms: C5_5  and  N1_6 
REMARK    3  A    between atoms: C7_8  and  C8_9 
REMARK    4  A    between atoms: C14_15  and  C15_16 
REMARK    5  A    between atoms: C21_22  and  C22_23 
ROOT
HETATM    1  N1  UNL     1      57.097  33.845  74.093  1.00  0.00    -0.350 N 
HETATM    2  C6  UNL     1      57.879  34.963  74.122  1.00  0.00     0.105 A 
HETATM    3  C7  UNL     1      58.982  34.713  74.924  1.00  0.00     0.003 A 
HETATM    4  C14 UNL     1      58.836  33.425  75.366  1.00  0.00     0.014 A 
HETATM    5  C21 UNL     1      57.654  32.887  74.843  1.00  0.00     0.057 A 
ENDROOT
BRANCH   1   6
HETATM    6  C5  UNL     1      55.863  33.749  73.355  1.00  0.00     0.167 C 
BRANCH   6   7
HETATM    7  C4  UNL     1      55.983  32.872  72.146  1.00  0.00    -0.040 A 
HETATM    8  C3  UNL     1      57.083  32.889  71.316  1.00  0.00     0.009 A 
HETATM    9  C2  UNL     1      57.139  32.075  70.226  1.00  0.00     0.001 A 
HETATM   10  C1  UNL     1      56.130  31.201  69.888  1.00  0.00     0.000 A 
HETATM   11  C29 UNL     1      55.026  31.188  70.729  1.00  0.00     0.001 A 
HETATM   12  C28 UNL     1      54.938  31.998  71.836  1.00  0.00     0.009 A 
ENDBRANCH   6   7
ENDBRANCH   1   6
BRANCH   5  13
HETATM   13  C22 UNL     1      57.195  31.535  75.116  1.00  0.00    -0.008 A 
HETATM   14  C23 UNL     1      57.255  30.500  74.206  1.00  0.00     0.014 A 
HETATM   15  C24 UNL     1      56.808  29.237  74.520  1.00  0.00     0.001 A 
HETATM   16  C25 UNL     1      56.277  28.962  75.776  1.00  0.00     0.000 A 
HETATM   17  C26 UNL     1      56.213  30.002  76.701  1.00  0.00     0.001 A 
HETATM   18  C27 UNL     1      56.669  31.257  76.360  1.00  0.00     0.014 A 
ENDBRANCH   5  13
BRANCH   3  19
HETATM   19  C8  UNL     1      60.057  35.643  75.218  1.00  0.00    -0.024 A 
HETATM   20  C9  UNL     1      61.394  35.340  75.114  1.00  0.00     0.012 A 
HETATM   21  C10 UNL     1      62.386  36.234  75.403  1.00  0.00     0.001 A 
HETATM   22  C11 UNL     1      62.035  37.497  75.818  1.00  0.00     0.000 A 
HETATM   23  C12 UNL     1      60.704  37.868  75.944  1.00  0.00     0.001 A 
HETATM   24  C13 UNL     1      59.742  36.931  75.640  1.00  0.00     0.012 A 
ENDBRANCH   3  19
BRANCH   4  25
HETATM   25  C15 UNL     1      59.743  32.699  76.242  1.00  0.00    -0.023 A 
HETATM   26  C16 UNL     1      60.176  33.331  77.407  1.00  0.00     0.012 A 
HETATM   27  C17 UNL     1      61.029  32.693  78.276  1.00  0.00     0.001 A 
HETATM   28  C18 UNL     1      61.452  31.411  77.975  1.00  0.00     0.000 A 
HETATM   29  C19 UNL     1      61.048  30.754  76.837  1.00  0.00     0.001 A 
HETATM   30  C20 UNL     1      60.194  31.416  75.984  1.00  0.00     0.012 A 
ENDBRANCH   4  25
TORSDOF 5
ENDMDL
MODEL 5
REMARK VINA RESULT: -9.428516250      2.522      5.598
REMARK  5 active torsions:
REMARK  status: ('A' for Active; 'I' for Inactive)
REMARK    1  A    between atoms: C4_4  and  C5_5 
REMARK    2  A    between atoms: C5_5  and  N1_6 
REMARK    3  A    between atoms: C7_8  and  C8_9 
REMARK    4  A    between atoms: C14_15  and  C15_16 
REMARK    5  A    between atoms: C21_22  and  C22_23 
ROOT
HETATM    1  N1  UNL     1      57.077  33.835  74.127  1.00  0.00    -0.350 N 
HETATM    2  C6  UNL     1      57.863  34.950  74.136  1.00  0.00     0.105 A 
HETATM    3  C7  UNL     1      58.965  34.711  74.943  1.00  0.00     0.003 A 
HETATM    4  C14 UNL     1      58.813  33.433  75.410  1.00  0.00     0.014 A 
HETATM    5  C21 UNL     1      57.630  32.889  74.896  1.00  0.00     0.057 A 
ENDROOT
BRANCH   1   6
HETATM    6  C5  UNL     1      55.844  33.730  73.391  1.00  0.00     0.167 C 
BRANCH   6   7
HETATM    7  C4  UNL     1      55.975  32.872  72.169  1.00  0.00    -0.040 A 
HETATM    8  C3  UNL     1      57.075  32.916  71.340  1.00  0.00     0.009 A 
HETATM    9  C2  UNL     1      57.142  32.119  70.239  1.00  0.00     0.001 A 
HETATM   10  C1  UNL     1      56.144  31.237  69.886  1.00  0.00     0.000 A 
HETATM   11  C29 UNL     1      55.039  31.199  70.725  1.00  0.00     0.001 A 
HETATM   12  C28 UNL     1      54.941  31.990  71.844  1.00  0.00     0.009 A 
ENDBRANCH   6   7
ENDBRANCH   1   6
BRANCH   5  13
HETATM   13  C22 UNL     1      57.166  31.545  75.195  1.00  0.00    -0.008 A 
HETATM   14  C23 UNL     1      56.616  31.167  76.403  1.00  0.00     0.014 A 
HETATM   15  C24 UNL     1      56.189  29.879  76.629  1.00  0.00     0.001 A 
HETATM   16  C25 UNL     1      56.299  28.908  75.639  1.00  0.00     0.000 A 
HETATM   17  C26 UNL     1      56.853  29.282  74.417  1.00  0.00     0.001 A 
HETATM   18  C27 UNL     1      57.271  30.579  74.217  1.00  0.00     0.014 A 
ENDBRANCH   5  13
BRANCH   3  19
HETATM   19  C8  UNL     1      60.044  35.643  75.220  1.00  0.00    -0.024 A 
HETATM   20  C9  UNL     1      61.379  35.332  75.127  1.00  0.00     0.012 A 
HETATM   21  C10 UNL     1      62.374  36.227  75.400  1.00  0.00     0.001 A 
HETATM   22  C11 UNL     1      62.028  37.501  75.785  1.00  0.00     0.000 A 
HETATM   23  C12 UNL     1      60.698  37.880  75.898  1.00  0.00     0.001 A 
HETATM   24  C13 UNL     1      59.733  36.941  75.612  1.00  0.00     0.012 A 
ENDBRANCH   3  19
BRANCH   4  25
HETATM   25  C15 UNL     1      59.717  32.721  76.300  1.00  0.00    -0.023 A 
HETATM   26  C16 UNL     1      60.117  31.435  75.937  1.00  0.00     0.012 A 
HETATM   27  C17 UNL     1      60.975  30.714  76.734  1.00  0.00     0.001 A 
HETATM   28  C18 UNL     1      61.435  31.287  77.907  1.00  0.00     0.000 A 
HETATM   29  C19 UNL     1      61.064  32.551  78.300  1.00  0.00     0.001 A 
HETATM   30  C20 UNL     1      60.204  33.250  77.483  1.00  0.00     0.012 A 
ENDBRANCH   4  25
TORSDOF 5
ENDMDL
