MODEL 1
REMARK VINA RESULT: -8.223981295      0.000      0.000
REMARK  5 active torsions:
REMARK  status: ('A' for Active; 'I' for Inactive)
REMARK    1  A    between atoms: C2_2  and  N1_3 
REMARK    2  A    between atoms: N1_3  and  C3_5 
REMARK    3  A    between atoms: C4_8  and  C5_9 
REMARK       I    between atoms: C5_9  and  N3_11 
REMARK    4  A    between atoms: N3_11  and  C6_13 
REMARK    5  A    between atoms: C13_23  and  C14_24 
ROOT
HETATM    1  C3  UNL     1       2.542   4.629 -14.310  1.00  0.00     0.679 A 
HETATM    2  N2  UNL     1       3.305   3.578 -14.087  1.00  0.00    -0.185 N 
ATOM      3  H2  UNL     1       3.517   3.344 -13.118  1.00  0.00     0.184 HD
HETATM    4  C4  UNL     1       3.838   2.770 -15.070  1.00  0.00     0.129 A 
HETATM    5  C9  UNL     1       3.523   3.130 -16.352  1.00  0.00     0.025 A 
HETATM    6  C10 UNL     1       4.003   2.369 -17.396  1.00  0.00     0.016 A 
HETATM    7  C11 UNL     1       3.658   2.748 -18.684  1.00  0.00     0.002 A 
HETATM    8  C12 UNL     1       2.875   3.831 -18.935  1.00  0.00     0.014 A 
HETATM    9  C13 UNL     1       2.386   4.606 -17.889  1.00  0.00     0.004 A 
HETATM   10  C19 UNL     1       2.706   4.259 -16.598  1.00  0.00     0.073 A 
HETATM   11  N6  UNL     1       2.232   4.985 -15.557  1.00  0.00    -0.190 N 
ATOM     12  H6  UNL     1       1.641   5.798 -15.726  1.00  0.00     0.184 HD
ENDROOT
BRANCH   4  13
HETATM   13  C5  UNL     1       4.654   1.653 -14.681  1.00  0.00     0.275 C 
HETATM   14  O1  UNL     1       4.294   0.527 -14.382  1.00  0.00    -0.266 OA
HETATM   15  N3  UNL     1       6.101   1.843 -14.623  1.00  0.00    -0.302 N 
ATOM     16  H3  UNL     1       6.540   2.601 -14.101  1.00  0.00     0.171 HD
BRANCH  15  17
HETATM   17  C6  UNL     1       6.792   0.951 -15.305  1.00  0.00     0.151 A 
HETATM   18  N4  UNL     1       7.100  -0.292 -14.919  1.00  0.00    -0.346 N 
HETATM   19  C7  UNL     1       7.802  -1.036 -15.744  1.00  0.00     0.097 A 
ATOM     20  H4  UNL     1       6.798  -0.651 -14.013  1.00  0.00     0.167 HD
HETATM   21  C8  UNL     1       8.171  -0.489 -16.942  1.00  0.00     0.070 A 
HETATM   22  S1  UNL     1       7.499   1.074 -16.846  1.00  0.00    -0.064 SA
ENDBRANCH  15  17
ENDBRANCH   4  13
BRANCH   1  23
HETATM   23  N1  UNL     1       2.058   5.366 -13.349  1.00  0.00    -0.226 N 
ATOM     24  H1  UNL     1       1.097   5.699 -13.423  1.00  0.00     0.177 HD
BRANCH  23  25
HETATM   25  C2  UNL     1       2.826   5.726 -12.193  1.00  0.00     0.133 C 
HETATM   26  C1  UNL     1       3.711   6.906 -12.534  1.00  0.00     0.027 C 
ENDBRANCH  23  25
ENDBRANCH   1  23
BRANCH   9  27
HETATM   27  C14 UNL     1       1.583   5.795 -18.205  1.00  0.00    -0.008 A 
HETATM   28  C15 UNL     1       0.358   5.705 -18.835  1.00  0.00     0.015 A 
HETATM   29  C16 UNL     1      -0.357   6.852 -19.168  1.00  0.00     0.018 A 
HETATM   30  C17 UNL     1       0.151   8.100 -18.870  1.00  0.00     0.087 A 
HETATM   31  N5  UNL     1       1.342   8.175 -18.257  1.00  0.00    -0.374 N 
HETATM   32  C18 UNL     1       2.046   7.057 -17.929  1.00  0.00     0.100 A 
ATOM     33  H5  UNL     1       1.729   9.091 -18.030  1.00  0.00     0.164 HD
ENDBRANCH   9  27
TORSDOF 5
ENDMDL
MODEL 2
REMARK VINA RESULT: -7.928368466      2.914      3.243
REMARK  5 active torsions:
REMARK  status: ('A' for Active; 'I' for Inactive)
REMARK    1  A    between atoms: C2_2  and  N1_3 
REMARK    2  A    between atoms: N1_3  and  C3_5 
REMARK    3  A    between atoms: C4_8  and  C5_9 
REMARK       I    between atoms: C5_9  and  N3_11 
REMARK    4  A    between atoms: N3_11  and  C6_13 
REMARK    5  A    between atoms: C13_23  and  C14_24 
ROOT
HETATM    1  C3  UNL     1       1.687   3.390 -14.700  1.00  0.00     0.679 A 
HETATM    2  N2  UNL     1       2.144   2.154 -14.672  1.00  0.00    -0.185 N 
ATOM      3  H2  UNL     1       2.191   1.688 -13.767  1.00  0.00     0.184 HD
HETATM    4  C4  UNL     1       2.564   1.445 -15.778  1.00  0.00     0.129 A 
HETATM    5  C9  UNL     1       2.481   2.119 -16.966  1.00  0.00     0.025 A 
HETATM    6  C10 UNL     1       2.867   1.480 -18.124  1.00  0.00     0.016 A 
HETATM    7  C11 UNL     1       2.760   2.181 -19.316  1.00  0.00     0.002 A 
HETATM    8  C12 UNL     1       2.293   3.457 -19.365  1.00  0.00     0.014 A 
HETATM    9  C13 UNL     1       1.901   4.111 -18.202  1.00  0.00     0.004 A 
HETATM   10  C19 UNL     1       1.991   3.447 -17.003  1.00  0.00     0.073 A 
HETATM   11  N6  UNL     1       1.602   4.051 -15.854  1.00  0.00    -0.190 N 
ATOM     12  H6  UNL     1       1.247   5.007 -15.873  1.00  0.00     0.184 HD
ENDROOT
BRANCH   4  13
HETATM   13  C5  UNL     1       3.040   0.102 -15.600  1.00  0.00     0.275 C 
HETATM   14  O1  UNL     1       4.181  -0.268 -15.374  1.00  0.00    -0.266 OA
HETATM   15  N3  UNL     1       2.075  -0.991 -15.691  1.00  0.00    -0.302 N 
ATOM     16  H3  UNL     1       1.444  -1.108 -16.483  1.00  0.00     0.171 HD
BRANCH  15  17
HETATM   17  C6  UNL     1       2.090  -1.813 -14.660  1.00  0.00     0.151 A 
HETATM   18  N4  UNL     1       2.439  -1.520 -13.404  1.00  0.00    -0.346 N 
HETATM   19  C7  UNL     1       2.389  -2.483 -12.511  1.00  0.00     0.097 A 
ATOM     20  H4  UNL     1       2.735  -0.578 -13.146  1.00  0.00     0.167 HD
HETATM   21  C8  UNL     1       1.982  -3.720 -12.927  1.00  0.00     0.070 A 
HETATM   22  S1  UNL     1       1.686  -3.463 -14.585  1.00  0.00    -0.064 SA
ENDBRANCH  15  17
ENDBRANCH   4  13
BRANCH   1  23
HETATM   23  N1  UNL     1       1.299   4.023 -13.628  1.00  0.00    -0.226 N 
ATOM     24  H1  UNL     1       0.306   4.223 -13.508  1.00  0.00     0.177 HD
BRANCH  23  25
HETATM   25  C2  UNL     1       2.216   4.449 -12.612  1.00  0.00     0.133 C 
HETATM   26  C1  UNL     1       2.553   5.910 -12.829  1.00  0.00     0.027 C 
ENDBRANCH  23  25
ENDBRANCH   1  23
BRANCH   9  27
HETATM   27  C14 UNL     1       1.448   5.506 -18.294  1.00  0.00    -0.008 A 
HETATM   28  C15 UNL     1       0.222   5.844 -18.832  1.00  0.00     0.015 A 
HETATM   29  C16 UNL     1      -0.159   7.177 -18.952  1.00  0.00     0.018 A 
HETATM   30  C17 UNL     1       0.687   8.184 -18.532  1.00  0.00     0.087 A 
HETATM   31  N5  UNL     1       1.875   7.843 -18.010  1.00  0.00    -0.374 N 
HETATM   32  C18 UNL     1       2.253   6.541 -17.890  1.00  0.00     0.100 A 
ATOM     33  H5  UNL     1       2.509   8.577 -17.695  1.00  0.00     0.164 HD
ENDBRANCH   9  27
TORSDOF 5
ENDMDL
MODEL 3
REMARK VINA RESULT: -7.896013414      1.246      1.421
REMARK  5 active torsions:
REMARK  status: ('A' for Active; 'I' for Inactive)
REMARK    1  A    between atoms: C2_2  and  N1_3 
REMARK    2  A    between atoms: N1_3  and  C3_5 
REMARK    3  A    between atoms: C4_8  and  C5_9 
REMARK       I    between atoms: C5_9  and  N3_11 
REMARK    4  A    between atoms: N3_11  and  C6_13 
REMARK    5  A    between atoms: C13_23  and  C14_24 
ROOT
HETATM    1  C3  UNL     1       3.855   4.523 -14.789  1.00  0.00     0.679 A 
HETATM    2  N2  UNL     1       4.595   3.434 -14.745  1.00  0.00    -0.185 N 
ATOM      3  H2  UNL     1       5.097   3.238 -13.880  1.00  0.00     0.184 HD
HETATM    4  C4  UNL     1       4.741   2.539 -15.784  1.00  0.00     0.129 A 
HETATM    5  C9  UNL     1       4.047   2.852 -16.922  1.00  0.00     0.025 A 
HETATM    6  C10 UNL     1       4.126   2.004 -18.006  1.00  0.00     0.016 A 
HETATM    7  C11 UNL     1       3.402   2.337 -19.141  1.00  0.00     0.002 A 
HETATM    8  C12 UNL     1       2.635   3.458 -19.207  1.00  0.00     0.014 A 
HETATM    9  C13 UNL     1       2.550   4.320 -18.119  1.00  0.00     0.004 A 
HETATM   10  C19 UNL     1       3.251   4.021 -16.976  1.00  0.00     0.073 A 
HETATM   11  N6  UNL     1       3.176   4.833 -15.895  1.00  0.00    -0.190 N 
ATOM     12  H6  UNL     1       2.604   5.676 -15.925  1.00  0.00     0.184 HD
ENDROOT
BRANCH   4  13
HETATM   13  C5  UNL     1       5.582   1.390 -15.596  1.00  0.00     0.275 C 
HETATM   14  O1  UNL     1       5.266   0.212 -15.636  1.00  0.00    -0.266 OA
HETATM   15  N3  UNL     1       6.999   1.609 -15.321  1.00  0.00    -0.302 N 
ATOM     16  H3  UNL     1       7.331   2.221 -14.577  1.00  0.00     0.171 HD
BRANCH  15  17
HETATM   17  C6  UNL     1       7.814   0.947 -16.119  1.00  0.00     0.151 A 
HETATM   18  N4  UNL     1       7.864   1.018 -17.453  1.00  0.00    -0.346 N 
HETATM   19  C7  UNL     1       8.752   0.275 -18.075  1.00  0.00     0.097 A 
ATOM     20  H4  UNL     1       7.234   1.630 -17.972  1.00  0.00     0.167 HD
HETATM   21  C8  UNL     1       9.565  -0.520 -17.316  1.00  0.00     0.070 A 
HETATM   22  S1  UNL     1       9.030  -0.178 -15.736  1.00  0.00    -0.064 SA
ENDBRANCH  15  17
ENDBRANCH   4  13
BRANCH   1  23
HETATM   23  N1  UNL     1       3.745   5.343 -13.781  1.00  0.00    -0.226 N 
ATOM     24  H1  UNL     1       4.595   5.695 -13.340  1.00  0.00     0.177 HD
BRANCH  23  25
HETATM   25  C2  UNL     1       2.475   5.768 -13.269  1.00  0.00     0.133 C 
HETATM   26  C1  UNL     1       1.794   4.594 -12.597  1.00  0.00     0.027 C 
ENDBRANCH  23  25
ENDBRANCH   1  23
BRANCH   9  27
HETATM   27  C14 UNL     1       1.748   5.545 -18.249  1.00  0.00    -0.008 A 
HETATM   28  C15 UNL     1       0.452   5.525 -18.726  1.00  0.00     0.015 A 
HETATM   29  C16 UNL     1      -0.265   6.706 -18.885  1.00  0.00     0.018 A 
HETATM   30  C17 UNL     1       0.312   7.919 -18.567  1.00  0.00     0.087 A 
HETATM   31  N5  UNL     1       1.570   7.926 -18.104  1.00  0.00    -0.374 N 
HETATM   32  C18 UNL     1       2.277   6.774 -17.946  1.00  0.00     0.100 A 
ATOM     33  H5  UNL     1       2.008   8.816 -17.865  1.00  0.00     0.164 HD
ENDBRANCH   9  27
TORSDOF 5
ENDMDL
MODEL 4
REMARK VINA RESULT: -7.851281433      1.916      2.119
REMARK  5 active torsions:
REMARK  status: ('A' for Active; 'I' for Inactive)
REMARK    1  A    between atoms: C2_2  and  N1_3 
REMARK    2  A    between atoms: N1_3  and  C3_5 
REMARK    3  A    between atoms: C4_8  and  C5_9 
REMARK       I    between atoms: C5_9  and  N3_11 
REMARK    4  A    between atoms: N3_11  and  C6_13 
REMARK    5  A    between atoms: C13_23  and  C14_24 
ROOT
HETATM    1  C3  UNL     1       3.841   4.307 -14.942  1.00  0.00     0.679 A 
HETATM    2  N2  UNL     1       4.463   3.144 -14.925  1.00  0.00    -0.185 N 
ATOM      3  H2  UNL     1       4.979   2.897 -14.082  1.00  0.00     0.184 HD
HETATM    4  C4  UNL     1       4.467   2.239 -15.965  1.00  0.00     0.129 A 
HETATM    5  C9  UNL     1       3.760   2.623 -17.072  1.00  0.00     0.025 A 
HETATM    6  C10 UNL     1       3.700   1.771 -18.154  1.00  0.00     0.016 A 
HETATM    7  C11 UNL     1       2.967   2.178 -19.258  1.00  0.00     0.002 A 
HETATM    8  C12 UNL     1       2.320   3.374 -19.296  1.00  0.00     0.014 A 
HETATM    9  C13 UNL     1       2.375   4.241 -18.210  1.00  0.00     0.004 A 
HETATM   10  C19 UNL     1       3.091   3.870 -17.098  1.00  0.00     0.073 A 
HETATM   11  N6  UNL     1       3.151   4.686 -16.018  1.00  0.00    -0.190 N 
ATOM     12  H6  UNL     1       2.670   5.585 -16.028  1.00  0.00     0.184 HD
ENDROOT
BRANCH   4  13
HETATM   13  C5  UNL     1       5.189   1.007 -15.808  1.00  0.00     0.275 C 
HETATM   14  O1  UNL     1       6.344   0.768 -16.118  1.00  0.00    -0.266 OA
HETATM   15  N3  UNL     1       4.495  -0.129 -15.206  1.00  0.00    -0.302 N 
ATOM     16  H3  UNL     1       3.594  -0.468 -15.542  1.00  0.00     0.171 HD
BRANCH  15  17
HETATM   17  C6  UNL     1       5.133  -0.677 -14.191  1.00  0.00     0.151 A 
HETATM   18  N4  UNL     1       6.109  -0.124 -13.464  1.00  0.00    -0.346 N 
HETATM   19  C7  UNL     1       6.625  -0.835 -12.485  1.00  0.00     0.097 A 
ATOM     20  H4  UNL     1       6.443   0.819 -13.661  1.00  0.00     0.167 HD
HETATM   21  C8  UNL     1       6.128  -2.092 -12.278  1.00  0.00     0.070 A 
HETATM   22  S1  UNL     1       4.939  -2.214 -13.491  1.00  0.00    -0.064 SA
ENDBRANCH  15  17
ENDBRANCH   4  13
BRANCH   1  23
HETATM   23  N1  UNL     1       3.863   5.134 -13.934  1.00  0.00    -0.226 N 
ATOM     24  H1  UNL     1       4.766   5.436 -13.567  1.00  0.00     0.177 HD
BRANCH  23  25
HETATM   25  C2  UNL     1       2.668   5.635 -13.323  1.00  0.00     0.133 C 
HETATM   26  C1  UNL     1       1.964   4.500 -12.608  1.00  0.00     0.027 C 
ENDBRANCH  23  25
ENDBRANCH   1  23
BRANCH   9  27
HETATM   27  C14 UNL     1       1.703   5.544 -18.311  1.00  0.00    -0.008 A 
HETATM   28  C15 UNL     1       0.395   5.661 -18.738  1.00  0.00     0.015 A 
HETATM   29  C16 UNL     1      -0.199   6.913 -18.872  1.00  0.00     0.018 A 
HETATM   30  C17 UNL     1       0.514   8.058 -18.577  1.00  0.00     0.087 A 
HETATM   31  N5  UNL     1       1.783   7.930 -18.163  1.00  0.00    -0.374 N 
HETATM   32  C18 UNL     1       2.370   6.709 -18.030  1.00  0.00     0.100 A 
ATOM     33  H5  UNL     1       2.321   8.768 -17.941  1.00  0.00     0.164 HD
ENDBRANCH   9  27
TORSDOF 5
ENDMDL
MODEL 5
REMARK VINA RESULT: -7.811532005      1.145      1.202
REMARK  5 active torsions:
REMARK  status: ('A' for Active; 'I' for Inactive)
REMARK    1  A    between atoms: C2_2  and  N1_3 
REMARK    2  A    between atoms: N1_3  and  C3_5 
REMARK    3  A    between atoms: C4_8  and  C5_9 
REMARK       I    between atoms: C5_9  and  N3_11 
REMARK    4  A    between atoms: N3_11  and  C6_13 
REMARK    5  A    between atoms: C13_23  and  C14_24 
ROOT
HETATM    1  C3  UNL     1       1.863   3.658 -14.586  1.00  0.00     0.679 A 
HETATM    2  N2  UNL     1       2.518   2.519 -14.484  1.00  0.00    -0.185 N 
ATOM      3  H2  UNL     1       2.570   2.085 -13.563  1.00  0.00     0.184 HD
HETATM    4  C4  UNL     1       3.139   1.871 -15.531  1.00  0.00     0.129 A 
HETATM    5  C9  UNL     1       3.039   2.498 -16.743  1.00  0.00     0.025 A 
HETATM    6  C10 UNL     1       3.619   1.912 -17.847  1.00  0.00     0.016 A 
HETATM    7  C11 UNL     1       3.491   2.562 -19.066  1.00  0.00     0.002 A 
HETATM    8  C12 UNL     1       2.822   3.738 -19.192  1.00  0.00     0.014 A 
HETATM    9  C13 UNL     1       2.233   4.338 -18.084  1.00  0.00     0.004 A 
HETATM   10  C19 UNL     1       2.338   3.722 -16.860  1.00  0.00     0.073 A 
HETATM   11  N6  UNL     1       1.762   4.274 -15.765  1.00  0.00    -0.190 N 
ATOM     12  H6  UNL     1       1.253   5.154 -15.841  1.00  0.00     0.184 HD
ENDROOT
BRANCH   4  13
HETATM   13  C5  UNL     1       3.818   0.632 -15.273  1.00  0.00     0.275 C 
HETATM   14  O1  UNL     1       3.454  -0.498 -15.555  1.00  0.00    -0.266 OA
HETATM   15  N3  UNL     1       5.109   0.681 -14.593  1.00  0.00    -0.302 N 
ATOM     16  H3  UNL     1       5.252   1.172 -13.710  1.00  0.00     0.171 HD
BRANCH  15  17
HETATM   17  C6  UNL     1       6.075   0.035 -15.216  1.00  0.00     0.151 A 
HETATM   18  N4  UNL     1       6.369   0.095 -16.519  1.00  0.00    -0.346 N 
HETATM   19  C7  UNL     1       7.377  -0.628 -16.955  1.00  0.00     0.097 A 
ATOM     20  H4  UNL     1       5.829   0.682 -17.154  1.00  0.00     0.167 HD
HETATM   21  C8  UNL     1       8.056  -1.392 -16.047  1.00  0.00     0.070 A 
HETATM   22  S1  UNL     1       7.229  -1.049 -14.597  1.00  0.00    -0.064 SA
ENDBRANCH  15  17
ENDBRANCH   4  13
BRANCH   1  23
HETATM   23  N1  UNL     1       1.289   4.237 -13.568  1.00  0.00    -0.226 N 
ATOM     24  H1  UNL     1       0.274   4.335 -13.567  1.00  0.00     0.177 HD
BRANCH  23  25
HETATM   25  C2  UNL     1       2.032   4.740 -12.450  1.00  0.00     0.133 C 
HETATM   26  C1  UNL     1       2.641   6.076 -12.820  1.00  0.00     0.027 C 
ENDBRANCH  23  25
ENDBRANCH   1  23
BRANCH   9  27
HETATM   27  C14 UNL     1       1.561   5.634 -18.255  1.00  0.00    -0.008 A 
HETATM   28  C15 UNL     1       0.309   5.739 -18.827  1.00  0.00     0.015 A 
HETATM   29  C16 UNL     1      -0.282   6.983 -19.022  1.00  0.00     0.018 A 
HETATM   30  C17 UNL     1       0.379   8.135 -18.644  1.00  0.00     0.087 A 
HETATM   31  N5  UNL     1       1.594   8.020 -18.088  1.00  0.00    -0.374 N 
HETATM   32  C18 UNL     1       2.178   6.805 -17.895  1.00  0.00     0.100 A 
ATOM     33  H5  UNL     1       2.094   8.863 -17.804  1.00  0.00     0.164 HD
ENDBRANCH   9  27
TORSDOF 5
ENDMDL
