MODEL 1
REMARK VINA RESULT: -6.117446119      0.000      0.000
REMARK  5 active torsions:
REMARK  status: ('A' for Active; 'I' for Inactive)
REMARK    1  A    between atoms: C3_3  and  N1_4 
REMARK    2  A    between atoms: N1_4  and  C4_6 
REMARK    3  A    between atoms: C4_6  and  C5_7 
REMARK    4  A    between atoms: C5_7  and  N2_8 
REMARK    5  A    between atoms: N2_8  and  C6_10 
ROOT
HETATM    1  C4  UNL     1      28.705   4.206 -43.775  1.00  0.00     0.139 C 
ENDROOT
BRANCH   1   2
HETATM    2  N1  UNL     1      28.286   5.562 -43.499  1.00  0.00    -0.388 N 
ATOM      3  H1  UNL     1      27.879   5.810 -42.597  1.00  0.00     0.159 HD
BRANCH   2   4
HETATM    4  C3  UNL     1      28.436   6.443 -44.415  1.00  0.00     0.030 A 
HETATM    5  C2  UNL     1      27.643   7.586 -44.466  1.00  0.00     0.046 A 
HETATM    6  C1  UNL     1      27.804   8.530 -45.449  1.00  0.00     0.089 A 
HETATM    7  N4  UNL     1      28.741   8.367 -46.389  1.00  0.00    -0.375 N 
HETATM    8  C10 UNL     1      29.543   7.263 -46.380  1.00  0.00     0.089 A 
ATOM      9  H4  UNL     1      28.856   9.072 -47.117  1.00  0.00     0.164 HD
HETATM   10  C9  UNL     1      29.390   6.302 -45.394  1.00  0.00     0.046 A 
ENDBRANCH   2   4
ENDBRANCH   1   2
BRANCH   1  11
HETATM   11  C5  UNL     1      27.538   3.250 -43.827  1.00  0.00     0.141 C 
BRANCH  11  12
HETATM   12  N2  UNL     1      27.913   1.906 -43.495  1.00  0.00    -0.369 N 
ATOM     13  H2  UNL     1      28.813   1.700 -43.062  1.00  0.00     0.161 HD
BRANCH  12  14
HETATM   14  C6  UNL     1      27.055   0.950 -43.770  1.00  0.00     0.144 A 
HETATM   15  N3  UNL     1      25.796   1.064 -44.193  1.00  0.00    -0.346 N 
HETATM   16  C7  UNL     1      25.106  -0.018 -44.408  1.00  0.00     0.097 A 
ATOM     17  H3  UNL     1      25.381   1.984 -44.344  1.00  0.00     0.167 HD
HETATM   18  C8  UNL     1      25.719  -1.224 -44.188  1.00  0.00     0.070 A 
HETATM   19  S1  UNL     1      27.274  -0.741 -43.674  1.00  0.00    -0.065 SA
ENDBRANCH  12  14
ENDBRANCH  11  12
ENDBRANCH   1  11
TORSDOF 5
ENDMDL
MODEL 2
REMARK VINA RESULT: -6.086816105      0.146      1.223
REMARK  5 active torsions:
REMARK  status: ('A' for Active; 'I' for Inactive)
REMARK    1  A    between atoms: C3_3  and  N1_4 
REMARK    2  A    between atoms: N1_4  and  C4_6 
REMARK    3  A    between atoms: C4_6  and  C5_7 
REMARK    4  A    between atoms: C5_7  and  N2_8 
REMARK    5  A    between atoms: N2_8  and  C6_10 
ROOT
HETATM    1  C4  UNL     1      28.717   4.292 -43.767  1.00  0.00     0.139 C 
ENDROOT
BRANCH   1   2
HETATM    2  N1  UNL     1      28.244   5.635 -43.510  1.00  0.00    -0.388 N 
ATOM      3  H1  UNL     1      27.798   5.871 -42.624  1.00  0.00     0.159 HD
BRANCH   2   4
HETATM    4  C3  UNL     1      28.400   6.518 -44.422  1.00  0.00     0.030 A 
HETATM    5  C2  UNL     1      29.361   6.376 -45.421  1.00  0.00     0.046 A 
HETATM    6  C1  UNL     1      29.528   7.324 -46.398  1.00  0.00     0.089 A 
HETATM    7  N4  UNL     1      28.759   8.418 -46.411  1.00  0.00    -0.375 N 
HETATM    8  C10 UNL     1      27.803   8.601 -45.454  1.00  0.00     0.089 A 
ATOM      9  H4  UNL     1      28.887   9.120 -47.141  1.00  0.00     0.164 HD
HETATM   10  C9  UNL     1      27.624   7.652 -44.460  1.00  0.00     0.046 A 
ENDBRANCH   2   4
ENDBRANCH   1   2
BRANCH   1  11
HETATM   11  C5  UNL     1      27.587   3.292 -43.811  1.00  0.00     0.141 C 
BRANCH  11  12
HETATM   12  N2  UNL     1      28.008   1.971 -43.441  1.00  0.00    -0.369 N 
ATOM     13  H2  UNL     1      28.920   1.807 -43.015  1.00  0.00     0.161 HD
BRANCH  12  14
HETATM   14  C6  UNL     1      27.175   0.981 -43.669  1.00  0.00     0.144 A 
HETATM   15  N3  UNL     1      25.935   1.038 -44.153  1.00  0.00    -0.346 N 
HETATM   16  C7  UNL     1      25.269  -0.069 -44.306  1.00  0.00     0.097 A 
ATOM     17  H3  UNL     1      25.514   1.935 -44.400  1.00  0.00     0.167 HD
HETATM   18  C8  UNL     1      25.887  -1.242 -43.958  1.00  0.00     0.070 A 
HETATM   19  S1  UNL     1      27.411  -0.691 -43.422  1.00  0.00    -0.065 SA
ENDBRANCH  12  14
ENDBRANCH  11  12
ENDBRANCH   1  11
TORSDOF 5
ENDMDL
MODEL 3
REMARK VINA RESULT: -6.064681628      4.619      7.032
REMARK  5 active torsions:
REMARK  status: ('A' for Active; 'I' for Inactive)
REMARK    1  A    between atoms: C3_3  and  N1_4 
REMARK    2  A    between atoms: N1_4  and  C4_6 
REMARK    3  A    between atoms: C4_6  and  C5_7 
REMARK    4  A    between atoms: C5_7  and  N2_8 
REMARK    5  A    between atoms: N2_8  and  C6_10 
ROOT
HETATM    1  C4  UNL     1      26.426   9.774 -44.592  1.00  0.00     0.139 C 
ENDROOT
BRANCH   1   2
HETATM    2  N1  UNL     1      27.307   9.299 -45.636  1.00  0.00    -0.388 N 
ATOM      3  H1  UNL     1      27.381   9.796 -46.524  1.00  0.00     0.159 HD
BRANCH   2   4
HETATM    4  C3  UNL     1      27.990   8.239 -45.419  1.00  0.00     0.030 A 
HETATM    5  C2  UNL     1      27.613   7.313 -44.450  1.00  0.00     0.046 A 
HETATM    6  C1  UNL     1      28.346   6.178 -44.217  1.00  0.00     0.089 A 
HETATM    7  N4  UNL     1      29.453   5.934 -44.928  1.00  0.00    -0.375 N 
HETATM    8  C10 UNL     1      29.862   6.813 -45.889  1.00  0.00     0.089 A 
ATOM      9  H4  UNL     1      29.994   5.088 -44.750  1.00  0.00     0.164 HD
HETATM   10  C9  UNL     1      29.131   7.964 -46.134  1.00  0.00     0.046 A 
ENDBRANCH   2   4
ENDBRANCH   1   2
BRANCH   1  11
HETATM   11  C5  UNL     1      26.962  11.015 -43.919  1.00  0.00     0.141 C 
BRANCH  11  12
HETATM   12  N2  UNL     1      27.232  10.810 -42.524  1.00  0.00    -0.369 N 
ATOM     13  H2  UNL     1      26.647  11.236 -41.806  1.00  0.00     0.161 HD
BRANCH  12  14
HETATM   14  C6  UNL     1      28.259  10.055 -42.208  1.00  0.00     0.144 A 
HETATM   15  N3  UNL     1      29.483  10.060 -42.735  1.00  0.00    -0.346 N 
HETATM   16  C7  UNL     1      30.367   9.222 -42.277  1.00  0.00     0.097 A 
ATOM     17  H3  UNL     1      29.723  10.709 -43.485  1.00  0.00     0.167 HD
HETATM   18  C8  UNL     1      29.985   8.376 -41.268  1.00  0.00     0.070 A 
HETATM   19  S1  UNL     1      28.357   8.828 -41.026  1.00  0.00    -0.065 SA
ENDBRANCH  12  14
ENDBRANCH  11  12
ENDBRANCH   1  11
TORSDOF 5
ENDMDL
MODEL 4
REMARK VINA RESULT: -6.032127009      4.750      7.264
REMARK  5 active torsions:
REMARK  status: ('A' for Active; 'I' for Inactive)
REMARK    1  A    between atoms: C3_3  and  N1_4 
REMARK    2  A    between atoms: N1_4  and  C4_6 
REMARK    3  A    between atoms: C4_6  and  C5_7 
REMARK    4  A    between atoms: C5_7  and  N2_8 
REMARK    5  A    between atoms: N2_8  and  C6_10 
ROOT
HETATM    1  C4  UNL     1      27.336  10.899 -44.920  1.00  0.00     0.139 C 
ENDROOT
BRANCH   1   2
HETATM    2  N1  UNL     1      27.351   9.674 -45.688  1.00  0.00    -0.388 N 
ATOM      3  H1  UNL     1      27.274   9.694 -46.705  1.00  0.00     0.159 HD
BRANCH   2   4
HETATM    4  C3  UNL     1      27.461   8.565 -45.061  1.00  0.00     0.030 A 
HETATM    5  C2  UNL     1      26.605   8.228 -44.015  1.00  0.00     0.046 A 
HETATM    6  C1  UNL     1      26.724   7.039 -43.342  1.00  0.00     0.089 A 
HETATM    7  N4  UNL     1      27.679   6.167 -43.683  1.00  0.00    -0.375 N 
HETATM    8  C10 UNL     1      28.542   6.452 -44.702  1.00  0.00     0.089 A 
ATOM      9  H4  UNL     1      27.763   5.284 -43.180  1.00  0.00     0.164 HD
HETATM   10  C9  UNL     1      28.433   7.650 -45.390  1.00  0.00     0.046 A 
ENDBRANCH   2   4
ENDBRANCH   1   2
BRANCH   1  11
HETATM   11  C5  UNL     1      28.713  11.276 -44.427  1.00  0.00     0.141 C 
BRANCH  11  12
HETATM   12  N2  UNL     1      28.739  11.537 -43.016  1.00  0.00    -0.369 N 
ATOM     13  H2  UNL     1      28.724  12.490 -42.655  1.00  0.00     0.161 HD
BRANCH  12  14
HETATM   14  C6  UNL     1      28.781  10.503 -42.207  1.00  0.00     0.144 A 
HETATM   15  N3  UNL     1      27.961  10.207 -41.199  1.00  0.00    -0.346 N 
HETATM   16  C7  UNL     1      28.178   9.124 -40.511  1.00  0.00     0.097 A 
ATOM     17  H3  UNL     1      27.178  10.820 -40.970  1.00  0.00     0.167 HD
HETATM   18  C8  UNL     1      29.246   8.341 -40.868  1.00  0.00     0.070 A 
HETATM   19  S1  UNL     1      29.895   9.209 -42.186  1.00  0.00    -0.065 SA
ENDBRANCH  12  14
ENDBRANCH  11  12
ENDBRANCH   1  11
TORSDOF 5
ENDMDL
MODEL 5
REMARK VINA RESULT: -6.013860309      4.801      7.372
REMARK  5 active torsions:
REMARK  status: ('A' for Active; 'I' for Inactive)
REMARK    1  A    between atoms: C3_3  and  N1_4 
REMARK    2  A    between atoms: N1_4  and  C4_6 
REMARK    3  A    between atoms: C4_6  and  C5_7 
REMARK    4  A    between atoms: C5_7  and  N2_8 
REMARK    5  A    between atoms: N2_8  and  C6_10 
ROOT
HETATM    1  C4  UNL     1      27.843   7.444 -44.556  1.00  0.00     0.139 C 
ENDROOT
BRANCH   1   2
HETATM    2  N1  UNL     1      28.192   6.080 -44.226  1.00  0.00    -0.388 N 
ATOM      3  H1  UNL     1      27.468   5.384 -44.049  1.00  0.00     0.159 HD
BRANCH   2   4
HETATM    4  C3  UNL     1      29.431   5.768 -44.163  1.00  0.00     0.030 A 
HETATM    5  C2  UNL     1      29.869   4.653 -43.451  1.00  0.00     0.046 A 
HETATM    6  C1  UNL     1      31.197   4.320 -43.383  1.00  0.00     0.089 A 
HETATM    7  N4  UNL     1      32.111   5.069 -44.010  1.00  0.00    -0.375 N 
HETATM    8  C10 UNL     1      31.730   6.170 -44.721  1.00  0.00     0.089 A 
ATOM      9  H4  UNL     1      33.098   4.816 -43.956  1.00  0.00     0.164 HD
HETATM   10  C9  UNL     1      30.392   6.519 -44.797  1.00  0.00     0.046 A 
ENDBRANCH   2   4
ENDBRANCH   1   2
BRANCH   1  11
HETATM   11  C5  UNL     1      26.626   7.917 -43.799  1.00  0.00     0.141 C 
BRANCH  11  12
HETATM   12  N2  UNL     1      26.701   9.307 -43.451  1.00  0.00    -0.369 N 
ATOM     13  H2  UNL     1      26.674   9.610 -42.478  1.00  0.00     0.161 HD
BRANCH  12  14
HETATM   14  C6  UNL     1      26.805  10.174 -44.432  1.00  0.00     0.144 A 
HETATM   15  N3  UNL     1      26.011  10.325 -45.492  1.00  0.00    -0.346 N 
HETATM   16  C7  UNL     1      26.292  11.254 -46.359  1.00  0.00     0.097 A 
ATOM     17  H3  UNL     1      25.197   9.723 -45.620  1.00  0.00     0.167 HD
HETATM   18  C8  UNL     1      27.397  12.031 -46.131  1.00  0.00     0.070 A 
HETATM   19  S1  UNL     1      27.987  11.383 -44.666  1.00  0.00    -0.065 SA
ENDBRANCH  12  14
ENDBRANCH  11  12
ENDBRANCH   1  11
TORSDOF 5
ENDMDL
