MODEL 1
REMARK VINA RESULT: -9.104331346      0.000      0.000
REMARK  14 active torsions:
REMARK  status: ('A' for Active; 'I' for Inactive)
REMARK    1  A    between atoms: C2_2  and  C3_3 
REMARK    2  A    between atoms: C3_3  and  N1_4 
REMARK    3  A    between atoms: N1_4  and  C4_5 
REMARK    4  A    between atoms: N1_4  and  C12_20 
REMARK    5  A    between atoms: C4_5  and  C5_6 
REMARK       I    between atoms: C5_6  and  N2_8 
REMARK    6  A    between atoms: N2_8  and  C6_10 
REMARK    7  A    between atoms: C6_10  and  C7_11 
REMARK    8  A    between atoms: C7_11  and  N3_12 
REMARK    9  A    between atoms: N3_12  and  C8_14 
REMARK   10  A    between atoms: C8_14  and  C9_15 
REMARK   11  A    between atoms: C9_15  and  N4_17 
REMARK   12  A    between atoms: C20_28  and  O2_29 
REMARK   13  A    between atoms: C21_31  and  C22_32 
REMARK   14  A    between atoms: C30_41  and  O3_42 
ROOT
HETATM    1  C12 UNL     1      28.124   4.092  23.861  1.00  0.00     0.113 C 
HETATM    2  C13 UNL     1      27.708   5.559  24.009  1.00  0.00     0.035 C 
HETATM    3  C14 UNL     1      28.775   6.411  23.542  1.00  0.00     0.026 C 
HETATM    4  C15 UNL     1      29.710   7.038  24.573  1.00  0.00    -0.011 C 
HETATM    5  C16 UNL     1      29.011   7.586  25.750  1.00  0.00     0.018 C 
HETATM    6  C17 UNL     1      30.652   5.953  25.006  1.00  0.00    -0.005 C 
HETATM    7  C18 UNL     1      31.745   5.631  24.057  1.00  0.00     0.011 C 
HETATM    8  C19 UNL     1      29.874   4.801  25.520  1.00  0.00     0.039 C 
HETATM    9  C20 UNL     1      29.377   3.781  24.587  1.00  0.00     0.141 C 
HETATM   10  C21 UNL     1      30.346   8.063  23.650  1.00  0.00     0.112 C 
HETATM   11  N5  UNL     1      29.234   8.588  22.996  1.00  0.00    -0.386 N 
HETATM   12  C24 UNL     1      29.195   9.843  22.388  1.00  0.00     0.034 C 
HETATM   13  C25 UNL     1      30.337   9.912  21.359  1.00  0.00     0.039 C 
HETATM   14  C26 UNL     1      29.412  10.942  23.360  1.00  0.00     0.036 C 
HETATM   15  C27 UNL     1      28.554  12.151  23.287  1.00  0.00     0.041 C 
HETATM   16  C28 UNL     1      27.946  12.445  21.999  1.00  0.00    -0.049 A 
HETATM   17  C29 UNL     1      27.694  13.742  21.634  1.00  0.00     0.044 A 
HETATM   18  C30 UNL     1      27.121  14.035  20.429  1.00  0.00     0.066 A 
HETATM   19  C31 UNL     1      26.794  13.008  19.574  1.00  0.00     0.037 A 
HETATM   20  C32 UNL     1      27.057  11.718  19.964  1.00  0.00     0.011 A 
HETATM   21  C33 UNL     1      27.642  11.383  21.187  1.00  0.00    -0.045 A 
HETATM   22  C34 UNL     1      27.920   9.974  21.579  1.00  0.00     0.047 C 
HETATM   23  C35 UNL     1      26.741   9.403  22.290  1.00  0.00     0.014 C 
HETATM   24  C36 UNL     1      26.950   8.032  22.864  1.00  0.00     0.031 C 
HETATM   25  C37 UNL     1      28.366   7.566  22.629  1.00  0.00     0.030 C 
HETATM   26  C38 UNL     1      28.423   7.022  21.231  1.00  0.00     0.039 C 
ENDROOT
BRANCH   1  27
HETATM   27  N1  UNL     1      27.000   3.284  24.014  1.00  0.00    -0.374 N 
BRANCH  27  28
HETATM   28  C3  UNL     1      25.876   3.641  24.743  1.00  0.00     0.086 C 
BRANCH  28  29
HETATM   29  C2  UNL     1      26.027   3.651  26.242  1.00  0.00     0.007 C 
HETATM   30  C1  UNL     1      26.299   4.784  26.862  1.00  0.00     0.012 C 
ENDBRANCH  28  29
ENDBRANCH  27  28
BRANCH  27  31
HETATM   31  C4  UNL     1      27.329   1.912  23.878  1.00  0.00     0.225 C 
BRANCH  31  32
HETATM   32  C5  UNL     1      26.623   1.152  22.839  1.00  0.00     0.235 C 
HETATM   33  O1  UNL     1      27.144   0.983  21.725  1.00  0.00    -0.272 OA
HETATM   34  N2  UNL     1      25.357   0.616  23.119  1.00  0.00    -0.355 N 
ATOM     35  H2  UNL     1      24.980   0.780  24.053  1.00  0.00     0.162 HD
BRANCH  34  36
HETATM   36  C6  UNL     1      24.530  -0.155  22.193  1.00  0.00     0.167 C 
BRANCH  36  37
HETATM   37  C7  UNL     1      24.979  -1.561  22.019  1.00  0.00     0.079 C 
BRANCH  37  38
HETATM   38  N3  UNL     1      25.367  -2.318  23.108  1.00  0.00    -0.379 N 
ATOM     39  H3  UNL     1      24.626  -2.627  23.738  1.00  0.00     0.164 HD
BRANCH  38  40
HETATM   40  C8  UNL     1      26.646  -2.697  23.430  1.00  0.00     0.084 C 
BRANCH  40  41
HETATM   41  C9  UNL     1      27.690  -2.552  22.374  1.00  0.00     0.110 C 
HETATM   42  C10 UNL     1      28.292  -3.946  22.100  1.00  0.00     0.037 C 
BRANCH  41  43
HETATM   43  N4  UNL     1      28.700  -1.635  22.780  1.00  0.00    -0.417 N 
HETATM   44  C11 UNL     1      28.986  -1.598  24.183  1.00  0.00     0.140 C 
ATOM     45  H4  UNL     1      29.191  -1.040  22.113  1.00  0.00     0.153 HD
ENDBRANCH  41  43
ENDBRANCH  40  41
ENDBRANCH  38  40
ENDBRANCH  37  38
ENDBRANCH  36  37
ENDBRANCH  34  36
ENDBRANCH  31  32
ENDBRANCH  27  31
ENDBRANCH   1  27
BRANCH   9  46
HETATM   46  O2  UNL     1      30.413   3.374  23.723  1.00  0.00    -0.393 OA
ATOM     47  H2  UNL     1      30.830   4.107  23.287  1.00  0.00     0.210 HD
ENDBRANCH   9  46
BRANCH  10  48
HETATM   48  C22 UNL     1      31.376   8.899  24.186  1.00  0.00    -0.012 C 
HETATM   49  C23 UNL     1      32.684   8.859  24.148  1.00  0.00     0.009 C 
ENDBRANCH  10  48
BRANCH  18  50
HETATM   50  O3  UNL     1      26.875  15.377  20.082  1.00  0.00    -0.361 OA
ATOM     51  H3  UNL     1      25.982  15.701  20.058  1.00  0.00     0.217 HD
ENDBRANCH  18  50
TORSDOF 14
ENDMDL
MODEL 2
REMARK VINA RESULT: -9.051576624      0.869      1.618
REMARK  14 active torsions:
REMARK  status: ('A' for Active; 'I' for Inactive)
REMARK    1  A    between atoms: C2_2  and  C3_3 
REMARK    2  A    between atoms: C3_3  and  N1_4 
REMARK    3  A    between atoms: N1_4  and  C4_5 
REMARK    4  A    between atoms: N1_4  and  C12_20 
REMARK    5  A    between atoms: C4_5  and  C5_6 
REMARK       I    between atoms: C5_6  and  N2_8 
REMARK    6  A    between atoms: N2_8  and  C6_10 
REMARK    7  A    between atoms: C6_10  and  C7_11 
REMARK    8  A    between atoms: C7_11  and  N3_12 
REMARK    9  A    between atoms: N3_12  and  C8_14 
REMARK   10  A    between atoms: C8_14  and  C9_15 
REMARK   11  A    between atoms: C9_15  and  N4_17 
REMARK   12  A    between atoms: C20_28  and  O2_29 
REMARK   13  A    between atoms: C21_31  and  C22_32 
REMARK   14  A    between atoms: C30_41  and  O3_42 
ROOT
HETATM    1  C12 UNL     1      27.901   4.175  23.881  1.00  0.00     0.113 C 
HETATM    2  C13 UNL     1      27.522   5.652  24.025  1.00  0.00     0.035 C 
HETATM    3  C14 UNL     1      28.614   6.476  23.564  1.00  0.00     0.026 C 
HETATM    4  C15 UNL     1      29.560   7.079  24.600  1.00  0.00    -0.011 C 
HETATM    5  C16 UNL     1      28.869   7.646  25.772  1.00  0.00     0.018 C 
HETATM    6  C17 UNL     1      30.471   5.970  25.038  1.00  0.00    -0.005 C 
HETATM    7  C18 UNL     1      31.560   5.619  24.096  1.00  0.00     0.011 C 
HETATM    8  C19 UNL     1      29.659   4.839  25.549  1.00  0.00     0.039 C 
HETATM    9  C20 UNL     1      29.141   3.831  24.614  1.00  0.00     0.141 C 
HETATM   10  C21 UNL     1      30.227   8.087  23.679  1.00  0.00     0.112 C 
HETATM   11  N5  UNL     1      29.133   8.639  23.018  1.00  0.00    -0.386 N 
HETATM   12  C24 UNL     1      29.130   9.895  22.410  1.00  0.00     0.034 C 
HETATM   13  C25 UNL     1      30.279   9.933  21.387  1.00  0.00     0.039 C 
HETATM   14  C26 UNL     1      29.370  10.989  23.382  1.00  0.00     0.036 C 
HETATM   15  C27 UNL     1      28.544  12.219  23.304  1.00  0.00     0.041 C 
HETATM   16  C28 UNL     1      27.952  12.528  22.012  1.00  0.00    -0.049 A 
HETATM   17  C29 UNL     1      27.736  13.831  21.645  1.00  0.00     0.044 A 
HETATM   18  C30 UNL     1      27.176  14.138  20.436  1.00  0.00     0.066 A 
HETATM   19  C31 UNL     1      26.827  13.119  19.580  1.00  0.00     0.037 A 
HETATM   20  C32 UNL     1      27.055  11.822  19.973  1.00  0.00     0.011 A 
HETATM   21  C33 UNL     1      27.624  11.474  21.199  1.00  0.00    -0.045 A 
HETATM   22  C34 UNL     1      27.863  10.058  21.594  1.00  0.00     0.047 C 
HETATM   23  C35 UNL     1      26.665   9.518  22.299  1.00  0.00     0.014 C 
HETATM   24  C36 UNL     1      26.836   8.143  22.874  1.00  0.00     0.031 C 
HETATM   25  C37 UNL     1      28.240   7.641  22.648  1.00  0.00     0.030 C 
HETATM   26  C38 UNL     1      28.291   7.094  21.250  1.00  0.00     0.039 C 
ENDROOT
BRANCH   1  27
HETATM   27  N1  UNL     1      26.755   3.397  24.028  1.00  0.00    -0.374 N 
BRANCH  27  28
HETATM   28  C3  UNL     1      26.098   3.195  25.232  1.00  0.00     0.086 C 
BRANCH  28  29
HETATM   29  C2  UNL     1      25.971   4.396  26.133  1.00  0.00     0.007 C 
HETATM   30  C1  UNL     1      26.549   4.386  27.319  1.00  0.00     0.012 C 
ENDBRANCH  28  29
ENDBRANCH  27  28
BRANCH  27  31
HETATM   31  C4  UNL     1      26.676   2.401  23.022  1.00  0.00     0.225 C 
BRANCH  31  32
HETATM   32  C5  UNL     1      26.775   1.001  23.452  1.00  0.00     0.235 C 
HETATM   33  O1  UNL     1      25.777   0.264  23.413  1.00  0.00    -0.272 OA
HETATM   34  N2  UNL     1      28.006   0.506  23.905  1.00  0.00    -0.355 N 
ATOM     35  H2  UNL     1      28.794   1.154  23.909  1.00  0.00     0.162 HD
BRANCH  34  36
HETATM   36  C6  UNL     1      28.263  -0.855  24.370  1.00  0.00     0.167 C 
BRANCH  36  37
HETATM   37  C7  UNL     1      28.645  -1.796  23.285  1.00  0.00     0.079 C 
BRANCH  37  38
HETATM   38  N3  UNL     1      28.296  -1.538  21.973  1.00  0.00    -0.379 N 
ATOM     39  H3  UNL     1      28.854  -0.841  21.479  1.00  0.00     0.164 HD
BRANCH  38  40
HETATM   40  C8  UNL     1      27.277  -2.125  21.265  1.00  0.00     0.084 C 
BRANCH  40  41
HETATM   41  C9  UNL     1      26.291  -2.941  22.032  1.00  0.00     0.110 C 
HETATM   42  C10 UNL     1      26.148  -4.306  21.327  1.00  0.00     0.037 C 
BRANCH  41  43
HETATM   43  N4  UNL     1      25.034  -2.278  22.111  1.00  0.00    -0.417 N 
HETATM   44  C11 UNL     1      24.475  -1.843  20.866  1.00  0.00     0.140 C 
ATOM     45  H4  UNL     1      24.560  -2.121  23.000  1.00  0.00     0.153 HD
ENDBRANCH  41  43
ENDBRANCH  40  41
ENDBRANCH  38  40
ENDBRANCH  37  38
ENDBRANCH  36  37
ENDBRANCH  34  36
ENDBRANCH  31  32
ENDBRANCH  27  31
ENDBRANCH   1  27
BRANCH   9  46
HETATM   46  O2  UNL     1      30.171   3.397  23.756  1.00  0.00    -0.393 OA
ATOM     47  H2  UNL     1      29.928   2.627  23.257  1.00  0.00     0.210 HD
ENDBRANCH   9  46
BRANCH  10  48
HETATM   48  C22 UNL     1      31.276   8.896  24.220  1.00  0.00    -0.012 C 
HETATM   49  C23 UNL     1      32.582   8.818  24.194  1.00  0.00     0.009 C 
ENDBRANCH  10  48
BRANCH  18  50
HETATM   50  O3  UNL     1      26.967  15.485  20.087  1.00  0.00    -0.361 OA
ATOM     51  H3  UNL     1      27.166  15.780  19.206  1.00  0.00     0.217 HD
ENDBRANCH  18  50
TORSDOF 14
ENDMDL
MODEL 3
REMARK VINA RESULT: -9.042538791      1.290      1.850
REMARK  14 active torsions:
REMARK  status: ('A' for Active; 'I' for Inactive)
REMARK    1  A    between atoms: C2_2  and  C3_3 
REMARK    2  A    between atoms: C3_3  and  N1_4 
REMARK    3  A    between atoms: N1_4  and  C4_5 
REMARK    4  A    between atoms: N1_4  and  C12_20 
REMARK    5  A    between atoms: C4_5  and  C5_6 
REMARK       I    between atoms: C5_6  and  N2_8 
REMARK    6  A    between atoms: N2_8  and  C6_10 
REMARK    7  A    between atoms: C6_10  and  C7_11 
REMARK    8  A    between atoms: C7_11  and  N3_12 
REMARK    9  A    between atoms: N3_12  and  C8_14 
REMARK   10  A    between atoms: C8_14  and  C9_15 
REMARK   11  A    between atoms: C9_15  and  N4_17 
REMARK   12  A    between atoms: C20_28  and  O2_29 
REMARK   13  A    between atoms: C21_31  and  C22_32 
REMARK   14  A    between atoms: C30_41  and  O3_42 
ROOT
HETATM    1  C12 UNL     1      27.972   4.148  23.931  1.00  0.00     0.113 C 
HETATM    2  C13 UNL     1      27.576   5.621  24.062  1.00  0.00     0.035 C 
HETATM    3  C14 UNL     1      28.656   6.454  23.589  1.00  0.00     0.026 C 
HETATM    4  C15 UNL     1      29.597   7.079  24.616  1.00  0.00    -0.011 C 
HETATM    5  C16 UNL     1      28.902   7.650  25.784  1.00  0.00     0.018 C 
HETATM    6  C17 UNL     1      30.523   5.987  25.062  1.00  0.00    -0.005 C 
HETATM    7  C18 UNL     1      31.614   5.640  24.120  1.00  0.00     0.011 C 
HETATM    8  C19 UNL     1      29.727   4.851  25.587  1.00  0.00     0.039 C 
HETATM    9  C20 UNL     1      29.219   3.827  24.664  1.00  0.00     0.141 C 
HETATM   10  C21 UNL     1      30.249   8.086  23.682  1.00  0.00     0.112 C 
HETATM   11  N5  UNL     1      29.146   8.618  23.020  1.00  0.00    -0.386 N 
HETATM   12  C24 UNL     1      29.126   9.867  22.398  1.00  0.00     0.034 C 
HETATM   13  C25 UNL     1      30.271   9.909  21.371  1.00  0.00     0.039 C 
HETATM   14  C26 UNL     1      29.355  10.974  23.359  1.00  0.00     0.036 C 
HETATM   15  C27 UNL     1      28.514  12.193  23.271  1.00  0.00     0.041 C 
HETATM   16  C28 UNL     1      27.913  12.481  21.978  1.00  0.00    -0.049 A 
HETATM   17  C29 UNL     1      27.680  13.778  21.598  1.00  0.00     0.044 A 
HETATM   18  C30 UNL     1      27.113  14.065  20.388  1.00  0.00     0.066 A 
HETATM   19  C31 UNL     1      26.774  13.034  19.543  1.00  0.00     0.037 A 
HETATM   20  C32 UNL     1      27.019  11.744  19.949  1.00  0.00     0.011 A 
HETATM   21  C33 UNL     1      27.596  11.415  21.177  1.00  0.00    -0.045 A 
HETATM   22  C34 UNL     1      27.854  10.006  21.585  1.00  0.00     0.047 C 
HETATM   23  C35 UNL     1      26.665   9.459  22.299  1.00  0.00     0.014 C 
HETATM   24  C36 UNL     1      26.855   8.092  22.888  1.00  0.00     0.031 C 
HETATM   25  C37 UNL     1      28.265   7.605  22.662  1.00  0.00     0.030 C 
HETATM   26  C38 UNL     1      28.318   7.044  21.270  1.00  0.00     0.039 C 
ENDROOT
BRANCH   1  27
HETATM   27  N1  UNL     1      26.837   3.357  24.090  1.00  0.00    -0.374 N 
BRANCH  27  28
HETATM   28  C3  UNL     1      26.122   3.247  25.272  1.00  0.00     0.086 C 
BRANCH  28  29
HETATM   29  C2  UNL     1      26.097   4.467  26.155  1.00  0.00     0.007 C 
HETATM   30  C1  UNL     1      26.549   4.387  27.392  1.00  0.00     0.012 C 
ENDBRANCH  28  29
ENDBRANCH  27  28
BRANCH  27  31
HETATM   31  C4  UNL     1      26.831   2.274  23.175  1.00  0.00     0.225 C 
BRANCH  31  32
HETATM   32  C5  UNL     1      27.287   0.971  23.674  1.00  0.00     0.235 C 
HETATM   33  O1  UNL     1      28.439   0.839  24.116  1.00  0.00    -0.272 OA
HETATM   34  N2  UNL     1      26.407  -0.122  23.647  1.00  0.00    -0.355 N 
ATOM     35  H2  UNL     1      25.470   0.045  23.279  1.00  0.00     0.162 HD
BRANCH  34  36
HETATM   36  C6  UNL     1      26.712  -1.477  24.099  1.00  0.00     0.167 C 
BRANCH  36  37
HETATM   37  C7  UNL     1      27.451  -2.290  23.097  1.00  0.00     0.079 C 
BRANCH  37  38
HETATM   38  N3  UNL     1      27.170  -2.172  21.749  1.00  0.00    -0.379 N 
ATOM     39  H3  UNL     1      27.825  -1.623  21.191  1.00  0.00     0.164 HD
BRANCH  38  40
HETATM   40  C8  UNL     1      26.103  -2.719  21.083  1.00  0.00     0.084 C 
BRANCH  40  41
HETATM   41  C9  UNL     1      25.589  -1.985  19.889  1.00  0.00     0.110 C 
HETATM   42  C10 UNL     1      24.112  -2.381  19.682  1.00  0.00     0.037 C 
BRANCH  41  43
HETATM   43  N4  UNL     1      26.363  -2.289  18.734  1.00  0.00    -0.417 N 
HETATM   44  C11 UNL     1      25.623  -2.658  17.564  1.00  0.00     0.140 C 
ATOM     45  H4  UNL     1      27.381  -2.247  18.738  1.00  0.00     0.153 HD
ENDBRANCH  41  43
ENDBRANCH  40  41
ENDBRANCH  38  40
ENDBRANCH  37  38
ENDBRANCH  36  37
ENDBRANCH  34  36
ENDBRANCH  31  32
ENDBRANCH  27  31
ENDBRANCH   1  27
BRANCH   9  46
HETATM   46  O2  UNL     1      30.252   3.397  23.807  1.00  0.00    -0.393 OA
ATOM     47  H2  UNL     1      30.228   2.461  23.651  1.00  0.00     0.210 HD
ENDBRANCH   9  46
BRANCH  10  48
HETATM   48  C22 UNL     1      31.289   8.914  24.212  1.00  0.00    -0.012 C 
HETATM   49  C23 UNL     1      32.596   8.856  24.175  1.00  0.00     0.009 C 
ENDBRANCH  10  48
BRANCH  18  50
HETATM   50  O3  UNL     1      26.886  15.406  20.026  1.00  0.00    -0.361 OA
ATOM     51  H3  UNL     1      27.616  15.952  19.757  1.00  0.00     0.217 HD
ENDBRANCH  18  50
TORSDOF 14
ENDMDL
MODEL 4
REMARK VINA RESULT: -8.971577848      1.465      2.132
REMARK  14 active torsions:
REMARK  status: ('A' for Active; 'I' for Inactive)
REMARK    1  A    between atoms: C2_2  and  C3_3 
REMARK    2  A    between atoms: C3_3  and  N1_4 
REMARK    3  A    between atoms: N1_4  and  C4_5 
REMARK    4  A    between atoms: N1_4  and  C12_20 
REMARK    5  A    between atoms: C4_5  and  C5_6 
REMARK       I    between atoms: C5_6  and  N2_8 
REMARK    6  A    between atoms: N2_8  and  C6_10 
REMARK    7  A    between atoms: C6_10  and  C7_11 
REMARK    8  A    between atoms: C7_11  and  N3_12 
REMARK    9  A    between atoms: N3_12  and  C8_14 
REMARK   10  A    between atoms: C8_14  and  C9_15 
REMARK   11  A    between atoms: C9_15  and  N4_17 
REMARK   12  A    between atoms: C20_28  and  O2_29 
REMARK   13  A    between atoms: C21_31  and  C22_32 
REMARK   14  A    between atoms: C30_41  and  O3_42 
ROOT
HETATM    1  C12 UNL     1      28.116   4.078  23.922  1.00  0.00     0.113 C 
HETATM    2  C13 UNL     1      27.695   5.543  24.057  1.00  0.00     0.035 C 
HETATM    3  C14 UNL     1      28.764   6.396  23.595  1.00  0.00     0.026 C 
HETATM    4  C15 UNL     1      29.689   7.031  24.631  1.00  0.00    -0.011 C 
HETATM    5  C16 UNL     1      28.978   7.584  25.798  1.00  0.00     0.018 C 
HETATM    6  C17 UNL     1      30.630   5.951  25.077  1.00  0.00    -0.005 C 
HETATM    7  C18 UNL     1      31.732   5.627  24.140  1.00  0.00     0.011 C 
HETATM    8  C19 UNL     1      29.850   4.800  25.591  1.00  0.00     0.039 C 
HETATM    9  C20 UNL     1      29.363   3.773  24.660  1.00  0.00     0.141 C 
HETATM   10  C21 UNL     1      30.330   8.053  23.707  1.00  0.00     0.112 C 
HETATM   11  N5  UNL     1      29.222   8.571  23.040  1.00  0.00    -0.386 N 
HETATM   12  C24 UNL     1      29.185   9.823  22.426  1.00  0.00     0.034 C 
HETATM   13  C25 UNL     1      30.335   9.889  21.405  1.00  0.00     0.039 C 
HETATM   14  C26 UNL     1      29.390  10.928  23.393  1.00  0.00     0.036 C 
HETATM   15  C27 UNL     1      28.530  12.134  23.306  1.00  0.00     0.041 C 
HETATM   16  C28 UNL     1      27.933  12.419  22.011  1.00  0.00    -0.049 A 
HETATM   17  C29 UNL     1      27.680  13.714  21.637  1.00  0.00     0.044 A 
HETATM   18  C30 UNL     1      27.116  13.998  20.425  1.00  0.00     0.066 A 
HETATM   19  C31 UNL     1      26.799  12.966  19.573  1.00  0.00     0.037 A 
HETATM   20  C32 UNL     1      27.062  11.678  19.973  1.00  0.00     0.011 A 
HETATM   21  C33 UNL     1      27.637  11.352  21.203  1.00  0.00    -0.045 A 
HETATM   22  C34 UNL     1      27.916   9.946  21.605  1.00  0.00     0.047 C 
HETATM   23  C35 UNL     1      26.732   9.375  22.309  1.00  0.00     0.014 C 
HETATM   24  C36 UNL     1      26.941   8.009  22.892  1.00  0.00     0.031 C 
HETATM   25  C37 UNL     1      28.360   7.545  22.673  1.00  0.00     0.030 C 
HETATM   26  C38 UNL     1      28.430   6.993  21.278  1.00  0.00     0.039 C 
ENDROOT
BRANCH   1  27
HETATM   27  N1  UNL     1      26.993   3.268  24.069  1.00  0.00    -0.374 N 
BRANCH  27  28
HETATM   28  C3  UNL     1      25.876   3.611  24.815  1.00  0.00     0.086 C 
BRANCH  28  29
HETATM   29  C2  UNL     1      26.051   3.630  26.311  1.00  0.00     0.007 C 
HETATM   30  C1  UNL     1      26.346   4.763  26.920  1.00  0.00     0.012 C 
ENDBRANCH  28  29
ENDBRANCH  27  28
BRANCH  27  31
HETATM   31  C4  UNL     1      27.320   1.898  23.904  1.00  0.00     0.225 C 
BRANCH  31  32
HETATM   32  C5  UNL     1      26.776   1.214  22.725  1.00  0.00     0.235 C 
HETATM   33  O1  UNL     1      25.862   1.737  22.066  1.00  0.00    -0.272 OA
HETATM   34  N2  UNL     1      27.299  -0.031  22.348  1.00  0.00    -0.355 N 
ATOM     35  H2  UNL     1      28.053  -0.410  22.922  1.00  0.00     0.162 HD
BRANCH  34  36
HETATM   36  C6  UNL     1      26.862  -0.835  21.210  1.00  0.00     0.167 C 
BRANCH  36  37
HETATM   37  C7  UNL     1      25.851  -1.868  21.559  1.00  0.00     0.079 C 
BRANCH  37  38
HETATM   38  N3  UNL     1      24.517  -1.682  21.248  1.00  0.00    -0.379 N 
ATOM     39  H3  UNL     1      23.934  -1.256  21.969  1.00  0.00     0.164 HD
BRANCH  38  40
HETATM   40  C8  UNL     1      23.896  -2.013  20.070  1.00  0.00     0.084 C 
BRANCH  40  41
HETATM   41  C9  UNL     1      24.372  -3.238  19.364  1.00  0.00     0.110 C 
HETATM   42  C10 UNL     1      24.263  -2.989  17.845  1.00  0.00     0.037 C 
BRANCH  41  43
HETATM   43  N4  UNL     1      23.607  -4.376  19.748  1.00  0.00    -0.417 N 
HETATM   44  C11 UNL     1      23.682  -5.506  18.871  1.00  0.00     0.140 C 
ATOM     45  H4  UNL     1      23.041  -4.386  20.596  1.00  0.00     0.153 HD
ENDBRANCH  41  43
ENDBRANCH  40  41
ENDBRANCH  38  40
ENDBRANCH  37  38
ENDBRANCH  36  37
ENDBRANCH  34  36
ENDBRANCH  31  32
ENDBRANCH  27  31
ENDBRANCH   1  27
BRANCH   9  46
HETATM   46  O2  UNL     1      30.408   3.365  23.807  1.00  0.00    -0.393 OA
ATOM     47  H2  UNL     1      30.511   2.421  23.785  1.00  0.00     0.210 HD
ENDBRANCH   9  46
BRANCH  10  48
HETATM   48  C22 UNL     1      31.353   8.895  24.247  1.00  0.00    -0.012 C 
HETATM   49  C23 UNL     1      32.658   8.903  24.154  1.00  0.00     0.009 C 
ENDBRANCH  10  48
BRANCH  18  50
HETATM   50  O3  UNL     1      26.869  15.338  20.069  1.00  0.00    -0.361 OA
ATOM     51  H3  UNL     1      27.594  15.901  19.824  1.00  0.00     0.217 HD
ENDBRANCH  18  50
TORSDOF 14
ENDMDL
MODEL 5
REMARK VINA RESULT: -8.917795803     10.033     14.407
REMARK  14 active torsions:
REMARK  status: ('A' for Active; 'I' for Inactive)
REMARK    1  A    between atoms: C2_2  and  C3_3 
REMARK    2  A    between atoms: C3_3  and  N1_4 
REMARK    3  A    between atoms: N1_4  and  C4_5 
REMARK    4  A    between atoms: N1_4  and  C12_20 
REMARK    5  A    between atoms: C4_5  and  C5_6 
REMARK       I    between atoms: C5_6  and  N2_8 
REMARK    6  A    between atoms: N2_8  and  C6_10 
REMARK    7  A    between atoms: C6_10  and  C7_11 
REMARK    8  A    between atoms: C7_11  and  N3_12 
REMARK    9  A    between atoms: N3_12  and  C8_14 
REMARK   10  A    between atoms: C8_14  and  C9_15 
REMARK   11  A    between atoms: C9_15  and  N4_17 
REMARK   12  A    between atoms: C20_28  and  O2_29 
REMARK   13  A    between atoms: C21_31  and  C22_32 
REMARK   14  A    between atoms: C30_41  and  O3_42 
ROOT
HETATM    1  C12 UNL     1      26.566  -4.860  17.368  1.00  0.00     0.113 C 
HETATM    2  C13 UNL     1      27.137  -4.968  18.784  1.00  0.00     0.035 C 
HETATM    3  C14 UNL     1      26.095  -4.699  19.746  1.00  0.00     0.026 C 
HETATM    4  C15 UNL     1      26.017  -3.306  20.364  1.00  0.00    -0.011 C 
HETATM    5  C16 UNL     1      27.326  -2.766  20.773  1.00  0.00     0.018 C 
HETATM    6  C17 UNL     1      25.404  -2.413  19.325  1.00  0.00    -0.005 C 
HETATM    7  C18 UNL     1      23.936  -2.533  19.155  1.00  0.00     0.011 C 
HETATM    8  C19 UNL     1      26.213  -2.477  18.084  1.00  0.00     0.039 C 
HETATM    9  C20 UNL     1      25.957  -3.537  17.099  1.00  0.00     0.141 C 
HETATM   10  C21 UNL     1      25.068  -3.658  21.499  1.00  0.00     0.112 C 
HETATM   11  N5  UNL     1      25.629  -4.837  21.984  1.00  0.00    -0.386 N 
HETATM   12  C24 UNL     1      25.432  -5.332  23.273  1.00  0.00     0.034 C 
HETATM   13  C25 UNL     1      23.917  -5.483  23.501  1.00  0.00     0.039 C 
HETATM   14  C26 UNL     1      25.943  -4.406  24.313  1.00  0.00     0.036 C 
HETATM   15  C27 UNL     1      26.712  -4.956  25.456  1.00  0.00     0.041 C 
HETATM   16  C28 UNL     1      26.472  -6.350  25.796  1.00  0.00    -0.049 A 
HETATM   17  C29 UNL     1      26.592  -6.775  27.093  1.00  0.00     0.044 A 
HETATM   18  C30 UNL     1      26.373  -8.082  27.429  1.00  0.00     0.066 A 
HETATM   19  C31 UNL     1      26.026  -8.978  26.445  1.00  0.00     0.037 A 
HETATM   20  C32 UNL     1      25.912  -8.525  25.153  1.00  0.00     0.011 A 
HETATM   21  C33 UNL     1      26.129  -7.199  24.776  1.00  0.00    -0.045 A 
HETATM   22  C34 UNL     1      25.991  -6.737  23.366  1.00  0.00     0.047 C 
HETATM   23  C35 UNL     1      27.297  -6.872  22.659  1.00  0.00     0.014 C 
HETATM   24  C36 UNL     1      27.325  -6.305  21.270  1.00  0.00     0.031 C 
HETATM   25  C37 UNL     1      26.004  -5.660  20.930  1.00  0.00     0.030 C 
HETATM   26  C38 UNL     1      25.079  -6.760  20.493  1.00  0.00     0.039 C 
ENDROOT
BRANCH   1  27
HETATM   27  N1  UNL     1      27.474  -5.415  16.469  1.00  0.00    -0.374 N 
BRANCH  27  28
HETATM   28  C3  UNL     1      28.132  -4.697  15.482  1.00  0.00     0.086 C 
BRANCH  28  29
HETATM   29  C2  UNL     1      28.882  -5.505  14.456  1.00  0.00     0.007 C 
HETATM   30  C1  UNL     1      28.659  -5.299  13.172  1.00  0.00     0.012 C 
ENDBRANCH  28  29
ENDBRANCH  27  28
BRANCH  27  31
HETATM   31  C4  UNL     1      27.224  -6.795  16.269  1.00  0.00     0.225 C 
BRANCH  31  32
HETATM   32  C5  UNL     1      25.824  -7.238  16.306  1.00  0.00     0.235 C 
HETATM   33  O1  UNL     1      25.475  -8.141  17.083  1.00  0.00    -0.272 OA
HETATM   34  N2  UNL     1      24.887  -6.628  15.458  1.00  0.00    -0.355 N 
ATOM     35  H2  UNL     1      25.228  -5.887  14.845  1.00  0.00     0.162 HD
BRANCH  34  36
HETATM   36  C6  UNL     1      23.467  -6.960  15.373  1.00  0.00     0.167 C 
BRANCH  36  37
HETATM   37  C7  UNL     1      22.683  -6.541  16.565  1.00  0.00     0.079 C 
BRANCH  37  38
HETATM   38  N3  UNL     1      22.547  -7.384  17.652  1.00  0.00    -0.379 N 
ATOM     39  H3  UNL     1      22.965  -8.311  17.567  1.00  0.00     0.164 HD
BRANCH  38  40
HETATM   40  C8  UNL     1      21.910  -7.101  18.833  1.00  0.00     0.084 C 
BRANCH  40  41
HETATM   41  C9  UNL     1      21.580  -8.250  19.727  1.00  0.00     0.110 C 
HETATM   42  C10 UNL     1      21.560  -7.736  21.181  1.00  0.00     0.037 C 
BRANCH  41  43
HETATM   43  N4  UNL     1      22.526  -9.302  19.574  1.00  0.00    -0.417 N 
HETATM   44  C11 UNL     1      22.453 -10.357  20.540  1.00  0.00     0.140 C 
ATOM     45  H4  UNL     1      23.215  -9.305  18.821  1.00  0.00     0.153 HD
ENDBRANCH  41  43
ENDBRANCH  40  41
ENDBRANCH  38  40
ENDBRANCH  37  38
ENDBRANCH  36  37
ENDBRANCH  34  36
ENDBRANCH  31  32
ENDBRANCH  27  31
ENDBRANCH   1  27
BRANCH   9  46
HETATM   46  O2  UNL     1      24.576  -3.623  16.835  1.00  0.00    -0.393 OA
ATOM     47  H2  UNL     1      24.050  -3.220  17.515  1.00  0.00     0.210 HD
ENDBRANCH   9  46
BRANCH  10  48
HETATM   48  C22 UNL     1      24.645  -2.604  22.368  1.00  0.00    -0.012 C 
HETATM   49  C23 UNL     1      24.971  -1.341  22.483  1.00  0.00     0.009 C 
ENDBRANCH  10  48
BRANCH  18  50
HETATM   50  O3  UNL     1      26.504  -8.489  28.770  1.00  0.00    -0.361 OA
ATOM     51  H3  UNL     1      27.365  -8.521  29.170  1.00  0.00     0.217 HD
ENDBRANCH  18  50
TORSDOF 14
ENDMDL
