MODEL 1
REMARK VINA RESULT: -7.065850598      0.000      0.000
REMARK  3 active torsions:
REMARK  status: ('A' for Active; 'I' for Inactive)
REMARK    1  A    between atoms: C2_2  and  C3_3 
REMARK    2  A    between atoms: C3_3  and  N1_4 
REMARK    3  A    between atoms: C3_3  and  C5_7 
ROOT
HETATM    1  C5  UNL     1       0.807  37.701   0.156  1.00  0.00     0.012 A 
HETATM    2  C6  UNL     1      -0.490  37.907  -0.390  1.00  0.00     0.016 A 
HETATM    3  C7  UNL     1      -0.914  39.270  -0.758  1.00  0.00     0.069 C 
HETATM    4  N2  UNL     1      -1.235  36.825  -0.577  1.00  0.00    -0.353 N 
ATOM      5  H2  UNL     1      -2.172  36.930  -0.967  1.00  0.00     0.166 HD
HETATM    6  C8  UNL     1      -0.787  35.579  -0.265  1.00  0.00     0.087 A 
HETATM    7  S1  UNL     1      -1.546  34.065  -0.383  1.00  0.00    -0.075 SA
HETATM    8  C9  UNL     1      -0.293  33.085   0.236  1.00  0.00    -0.008 A 
HETATM    9  C10 UNL     1       0.690  33.969   0.522  1.00  0.00    -0.030 A 
HETATM   10  C11 UNL     1       0.441  35.293   0.260  1.00  0.00     0.030 A 
HETATM   11  C12 UNL     1       1.249  36.458   0.464  1.00  0.00     0.070 A 
HETATM   12  N3  UNL     1       2.532  36.281   1.093  1.00  0.00    -0.101 NA
HETATM   13  C13 UNL     1       1.945  33.382   1.131  1.00  0.00     0.040 C 
HETATM   14  C14 UNL     1       2.058  31.939   1.046  1.00  0.00     0.005 C 
HETATM   15  C15 UNL     1       1.132  31.159   0.218  1.00  0.00     0.005 C 
HETATM   16  C16 UNL     1      -0.286  31.618   0.432  1.00  0.00     0.047 C 
ENDROOT
BRANCH   1  17
HETATM   17  C3  UNL     1       1.538  38.925   0.580  1.00  0.00     0.117 C 
BRANCH  17  18
HETATM   18  C2  UNL     1       2.835  39.061  -0.134  1.00  0.00     0.025 C 
HETATM   19  C1  UNL     1       2.881  40.279  -1.071  1.00  0.00     0.007 C 
ENDBRANCH  17  18
BRANCH  17  20
HETATM   20  N1  UNL     1       1.673  38.804   1.986  1.00  0.00    -0.399 N 
HETATM   21  C4  UNL     1       2.412  39.557   2.844  1.00  0.00     0.112 C 
ATOM     22  H1  UNL     1       1.142  38.046   2.414  1.00  0.00     0.158 HD
ENDBRANCH  17  20
ENDBRANCH   1  17
TORSDOF 3
ENDMDL
MODEL 2
REMARK VINA RESULT: -6.761749610      1.535      1.718
REMARK  3 active torsions:
REMARK  status: ('A' for Active; 'I' for Inactive)
REMARK    1  A    between atoms: C2_2  and  C3_3 
REMARK    2  A    between atoms: C3_3  and  N1_4 
REMARK    3  A    between atoms: C3_3  and  C5_7 
ROOT
HETATM    1  C5  UNL     1       0.316  38.025  -1.546  1.00  0.00     0.012 A 
HETATM    2  C6  UNL     1      -0.907  37.815  -2.240  1.00  0.00     0.016 A 
HETATM    3  C7  UNL     1      -1.495  38.916  -3.025  1.00  0.00     0.069 C 
HETATM    4  N2  UNL     1      -1.429  36.596  -2.170  1.00  0.00    -0.353 N 
ATOM      5  H2  UNL     1      -2.305  36.404  -2.654  1.00  0.00     0.166 HD
HETATM    6  C8  UNL     1      -0.829  35.596  -1.470  1.00  0.00     0.087 A 
HETATM    7  S1  UNL     1      -1.302  33.986  -1.210  1.00  0.00    -0.075 SA
HETATM    8  C9  UNL     1      -0.005  33.478  -0.224  1.00  0.00    -0.008 A 
HETATM    9  C10 UNL     1       0.768  34.584  -0.122  1.00  0.00    -0.030 A 
HETATM   10  C11 UNL     1       0.344  35.712  -0.779  1.00  0.00     0.030 A 
HETATM   11  C12 UNL     1       0.910  37.025  -0.852  1.00  0.00     0.070 A 
HETATM   12  N3  UNL     1       2.103  37.282  -0.088  1.00  0.00    -0.101 NA
HETATM   13  C13 UNL     1       2.005  34.445   0.740  1.00  0.00     0.040 C 
HETATM   14  C14 UNL     1       2.367  33.084   1.088  1.00  0.00     0.005 C 
HETATM   15  C15 UNL     1       1.708  31.941   0.445  1.00  0.00     0.005 C 
HETATM   16  C16 UNL     1       0.218  32.150   0.390  1.00  0.00     0.047 C 
ENDROOT
BRANCH   1  17
HETATM   17  C3  UNL     1       0.767  39.438  -1.434  1.00  0.00     0.117 C 
BRANCH  17  18
HETATM   18  C2  UNL     1       2.119  39.628  -2.022  1.00  0.00     0.025 C 
HETATM   19  C1  UNL     1       2.122  39.558  -3.559  1.00  0.00     0.007 C 
ENDBRANCH  17  18
BRANCH  17  20
HETATM   20  N1  UNL     1       0.704  39.735  -0.049  1.00  0.00    -0.399 N 
HETATM   21  C4  UNL     1       1.252  40.778   0.630  1.00  0.00     0.112 C 
ATOM     22  H1  UNL     1       0.172  39.074   0.517  1.00  0.00     0.158 HD
ENDBRANCH  17  20
ENDBRANCH   1  17
TORSDOF 3
ENDMDL
MODEL 3
REMARK VINA RESULT: -6.678045329      0.932      1.070
REMARK  3 active torsions:
REMARK  status: ('A' for Active; 'I' for Inactive)
REMARK    1  A    between atoms: C2_2  and  C3_3 
REMARK    2  A    between atoms: C3_3  and  N1_4 
REMARK    3  A    between atoms: C3_3  and  C5_7 
ROOT
HETATM    1  C5  UNL     1       0.791  38.594  -0.279  1.00  0.00     0.012 A 
HETATM    2  C6  UNL     1      -0.558  38.632  -0.729  1.00  0.00     0.016 A 
HETATM    3  C7  UNL     1      -1.132  39.909  -1.191  1.00  0.00     0.069 C 
HETATM    4  N2  UNL     1      -1.213  37.478  -0.745  1.00  0.00    -0.353 N 
ATOM      5  H2  UNL     1      -2.182  37.463  -1.062  1.00  0.00     0.166 HD
HETATM    6  C8  UNL     1      -0.630  36.314  -0.352  1.00  0.00     0.087 A 
HETATM    7  S1  UNL     1      -1.253  34.738  -0.257  1.00  0.00    -0.075 SA
HETATM    8  C9  UNL     1       0.127  33.935   0.345  1.00  0.00    -0.008 A 
HETATM    9  C10 UNL     1       1.044  34.923   0.458  1.00  0.00    -0.030 A 
HETATM   10  C11 UNL     1       0.656  36.188   0.091  1.00  0.00     0.030 A 
HETATM   11  C12 UNL     1       1.367  37.430   0.110  1.00  0.00     0.070 A 
HETATM   12  N3  UNL     1       2.705  37.428   0.640  1.00  0.00    -0.101 NA
HETATM   13  C13 UNL     1       2.392  34.510   1.011  1.00  0.00     0.040 C 
HETATM   14  C14 UNL     1       2.630  33.081   1.057  1.00  0.00     0.005 C 
HETATM   15  C15 UNL     1       1.717  32.143   0.393  1.00  0.00     0.005 C 
HETATM   16  C16 UNL     1       0.284  32.503   0.681  1.00  0.00     0.047 C 
ENDROOT
BRANCH   1  17
HETATM   17  C3  UNL     1       1.437  39.911  -0.040  1.00  0.00     0.117 C 
BRANCH  17  18
HETATM   18  C2  UNL     1       2.720  40.032  -0.781  1.00  0.00     0.025 C 
HETATM   19  C1  UNL     1       2.533  40.465  -2.245  1.00  0.00     0.007 C 
ENDBRANCH  17  18
BRANCH  17  20
HETATM   20  N1  UNL     1       1.582  40.001   1.367  1.00  0.00    -0.399 N 
HETATM   21  C4  UNL     1       2.504  40.688   2.092  1.00  0.00     0.112 C 
ATOM     22  H1  UNL     1       0.898  39.476   1.912  1.00  0.00     0.158 HD
ENDBRANCH  17  20
ENDBRANCH   1  17
TORSDOF 3
ENDMDL
MODEL 4
REMARK VINA RESULT: -6.653098061      2.334      3.987
REMARK  3 active torsions:
REMARK  status: ('A' for Active; 'I' for Inactive)
REMARK    1  A    between atoms: C2_2  and  C3_3 
REMARK    2  A    between atoms: C3_3  and  N1_4 
REMARK    3  A    between atoms: C3_3  and  C5_7 
ROOT
HETATM    1  C5  UNL     1       0.385  37.567  -2.073  1.00  0.00     0.012 A 
HETATM    2  C6  UNL     1       1.582  38.148  -1.571  1.00  0.00     0.016 A 
HETATM    3  C7  UNL     1       1.993  39.483  -2.042  1.00  0.00     0.069 C 
HETATM    4  N2  UNL     1       2.244  37.450  -0.656  1.00  0.00    -0.353 N 
ATOM      5  H2  UNL     1       3.107  37.832  -0.271  1.00  0.00     0.166 HD
HETATM    6  C8  UNL     1       1.804  36.240  -0.217  1.00  0.00     0.087 A 
HETATM    7  S1  UNL     1       2.474  35.158   0.907  1.00  0.00    -0.075 SA
HETATM    8  C9  UNL     1       1.303  33.919   0.822  1.00  0.00    -0.008 A 
HETATM    9  C10 UNL     1       0.415  34.384  -0.087  1.00  0.00    -0.030 A 
HETATM   10  C11 UNL     1       0.668  35.613  -0.644  1.00  0.00     0.030 A 
HETATM   11  C12 UNL     1      -0.049  36.362  -1.631  1.00  0.00     0.070 A 
HETATM   12  N3  UNL     1      -1.218  35.755  -2.213  1.00  0.00    -0.101 NA
HETATM   13  C13 UNL     1      -0.746  33.465  -0.402  1.00  0.00     0.040 C 
HETATM   14  C14 UNL     1      -0.928  32.360   0.520  1.00  0.00     0.005 C 
HETATM   15  C15 UNL     1      -0.180  32.299   1.781  1.00  0.00     0.005 C 
HETATM   16  C16 UNL     1       1.270  32.634   1.554  1.00  0.00     0.047 C 
ENDROOT
BRANCH   1  17
HETATM   17  C3  UNL     1      -0.219  38.236  -3.256  1.00  0.00     0.117 C 
BRANCH  17  18
HETATM   18  C2  UNL     1      -1.592  38.725  -2.966  1.00  0.00     0.025 C 
HETATM   19  C1  UNL     1      -1.631  40.209  -2.564  1.00  0.00     0.007 C 
ENDBRANCH  17  18
BRANCH  17  20
HETATM   20  N1  UNL     1      -0.167  37.269  -4.292  1.00  0.00    -0.399 N 
HETATM   21  C4  UNL     1       0.409  37.358  -5.520  1.00  0.00     0.112 C 
ATOM     22  H1  UNL     1      -0.626  36.382  -4.086  1.00  0.00     0.158 HD
ENDBRANCH  17  20
ENDBRANCH   1  17
TORSDOF 3
ENDMDL
MODEL 5
REMARK VINA RESULT: -6.599427063      1.266      1.447
REMARK  3 active torsions:
REMARK  status: ('A' for Active; 'I' for Inactive)
REMARK    1  A    between atoms: C2_2  and  C3_3 
REMARK    2  A    between atoms: C3_3  and  N1_4 
REMARK    3  A    between atoms: C3_3  and  C5_7 
ROOT
HETATM    1  C5  UNL     1       1.990  38.274   1.030  1.00  0.00     0.012 A 
HETATM    2  C6  UNL     1       0.830  38.825   0.418  1.00  0.00     0.016 A 
HETATM    3  C7  UNL     1       0.708  40.288   0.279  1.00  0.00     0.069 C 
HETATM    4  N2  UNL     1      -0.068  37.961  -0.038  1.00  0.00    -0.353 N 
ATOM      5  H2  UNL     1      -0.914  38.316  -0.484  1.00  0.00     0.166 HD
HETATM    6  C8  UNL     1       0.105  36.616   0.071  1.00  0.00     0.087 A 
HETATM    7  S1  UNL     1      -0.893  35.327  -0.402  1.00  0.00    -0.075 SA
HETATM    8  C9  UNL     1       0.075  34.026   0.131  1.00  0.00    -0.008 A 
HETATM    9  C10 UNL     1       1.157  34.634   0.667  1.00  0.00    -0.030 A 
HETATM   10  C11 UNL     1       1.187  36.006   0.641  1.00  0.00     0.030 A 
HETATM   11  C12 UNL     1       2.159  36.934   1.134  1.00  0.00     0.070 A 
HETATM   12  N3  UNL     1       3.300  36.400   1.831  1.00  0.00    -0.101 NA
HETATM   13  C13 UNL     1       2.201  33.714   1.264  1.00  0.00     0.040 C 
HETATM   14  C14 UNL     1       2.062  32.313   0.916  1.00  0.00     0.005 C 
HETATM   15  C15 UNL     1       1.120  31.885  -0.125  1.00  0.00     0.005 C 
HETATM   16  C16 UNL     1      -0.207  32.576   0.043  1.00  0.00     0.047 C 
ENDROOT
BRANCH   1  17
HETATM   17  C3  UNL     1       2.871  39.237   1.743  1.00  0.00     0.117 C 
BRANCH  17  18
HETATM   18  C2  UNL     1       4.275  39.150   1.265  1.00  0.00     0.025 C 
HETATM   19  C1  UNL     1       4.587  40.137   0.127  1.00  0.00     0.007 C 
ENDBRANCH  17  18
BRANCH  17  20
HETATM   20  N1  UNL     1       2.718  38.927   3.118  1.00  0.00    -0.399 N 
HETATM   21  C4  UNL     1       3.399  39.416   4.188  1.00  0.00     0.112 C 
ATOM     22  H1  UNL     1       1.996  38.240   3.335  1.00  0.00     0.158 HD
ENDBRANCH  17  20
ENDBRANCH   1  17
TORSDOF 3
ENDMDL
