MODEL 1
REMARK VINA RESULT: -7.807380637      0.000      0.000
REMARK  10 active torsions:
REMARK  status: ('A' for Active; 'I' for Inactive)
REMARK    1  A    between atoms: C5_5  and  N1_6 
REMARK       I    between atoms: N1_6  and  C6_7 
REMARK    2  A    between atoms: N1_6  and  S1_13 
REMARK    3  A    between atoms: C6_7  and  C7_9 
REMARK    4  A    between atoms: S1_13  and  N2_16 
REMARK    5  A    between atoms: C18_24  and  C19_25 
REMARK       I    between atoms: C19_25  and  N3_27 
REMARK    6  A    between atoms: C20_29  and  C21_30 
REMARK    7  A    between atoms: C20_29  and  C25_44 
REMARK    8  A    between atoms: C21_30  and  C22_31 
REMARK    9  A    between atoms: C22_31  and  C23_32 
REMARK   10  A    between atoms: C23_32  and  N4_33 
REMARK       I    between atoms: N4_33  and  C24_35 
REMARK       I    between atoms: C24_35  and  N5_36 
REMARK       I    between atoms: C24_35  and  N6_40 
ROOT
HETATM    1  N2  UNL     1       9.696  21.245   6.524  1.00  0.00    -0.255 N 
HETATM    2  C11 UNL     1      10.267  21.288   7.827  1.00  0.00     0.175 C 
HETATM    3  C12 UNL     1      11.578  22.044   7.780  1.00  0.00     0.141 C 
HETATM    4  C13 UNL     1      12.654  21.518   6.939  1.00  0.00     0.034 C 
HETATM    5  C14 UNL     1      12.540  21.869   5.473  1.00  0.00     0.005 C 
HETATM    6  C15 UNL     1      12.215  23.340   5.371  1.00  0.00     0.032 C 
HETATM    7  C16 UNL     1      11.093  23.777   6.286  1.00  0.00     0.128 C 
HETATM    8  C17 UNL     1       9.739  23.590   5.732  1.00  0.00     0.096 C 
HETATM    9  C18 UNL     1       8.972  22.365   6.128  1.00  0.00     0.094 C 
HETATM   10  O7  UNL     1      11.266  23.374   7.583  1.00  0.00    -0.379 OA
ENDROOT
BRANCH   9  11
HETATM   11  C19 UNL     1       7.831  22.142   5.250  1.00  0.00     0.269 C 
HETATM   12  O4  UNL     1       7.794  22.003   4.005  1.00  0.00    -0.266 OA
HETATM   13  N3  UNL     1       6.495  22.046   5.806  1.00  0.00    -0.320 N 
HETATM   14  C20 UNL     1       5.560  22.880   5.655  1.00  0.00     0.089 C 
ATOM     15  H3  UNL     1       6.291  21.224   6.375  1.00  0.00     0.169 HD
BRANCH  14  16
HETATM   16  C21 UNL     1       4.265  22.512   6.352  1.00  0.00     0.066 C 
BRANCH  16  17
HETATM   17  C22 UNL     1       3.421  21.593   5.538  1.00  0.00     0.025 C 
BRANCH  17  18
HETATM   18  C23 UNL     1       1.986  21.642   6.028  1.00  0.00     0.117 C 
BRANCH  18  19
HETATM   19  N4  UNL     1       1.628  20.417   6.667  1.00  0.00    -0.374 N 
HETATM   20  C24 UNL     1       1.289  20.486   8.048  1.00  0.00     0.476 C 
HETATM   21  N5  UNL     1       1.067  19.126   8.517  1.00  0.00    -0.033 N 
HETATM   22  N6  UNL     1       0.026  21.189   8.264  1.00  0.00    -0.033 N 
ATOM     23  H53 UNL     1       0.373  18.624   7.963  1.00  0.00     0.278 HD
ATOM     24  H52 UNL     1       1.858  18.509   8.333  1.00  0.00     0.278 HD
ATOM     25  H51 UNL     1       0.824  19.175   9.506  1.00  0.00     0.278 HD
ATOM     26  H63 UNL     1       0.040  22.115   7.839  1.00  0.00     0.278 HD
ATOM     27  H62 UNL     1      -0.728  20.773   7.717  1.00  0.00     0.278 HD
ATOM     28  H61 UNL     1      -0.217  21.238   9.253  1.00  0.00     0.278 HD
ATOM     29  H4  UNL     1       1.616  19.533   6.158  1.00  0.00     0.156 HD
ENDBRANCH  18  19
ENDBRANCH  17  18
ENDBRANCH  16  17
ENDBRANCH  14  16
BRANCH  14  30
HETATM   30  C25 UNL     1       5.559  24.126   4.951  1.00  0.00     0.222 C 
HETATM   31  O5  UNL     1       5.869  25.196   5.522  1.00  0.00    -0.643 OA
HETATM   32  O6  UNL     1       5.219  24.208   3.621  1.00  0.00    -0.643 OA
ENDBRANCH  14  30
ENDBRANCH   9  11
BRANCH   1  33
HETATM   33  S1  UNL     1       9.332  19.718   6.030  1.00  0.00     0.330 S 
HETATM   34  O2  UNL     1       8.925  19.593   4.569  1.00  0.00    -0.182 OA
HETATM   35  O3  UNL     1      10.805  19.059   5.891  1.00  0.00    -0.182 OA
BRANCH  33  36
HETATM   36  N1  UNL     1       8.597  18.552   7.036  1.00  0.00    -0.223 N 
HETATM   37  C6  UNL     1       9.297  17.688   7.876  1.00  0.00     0.242 C 
HETATM   38  O1  UNL     1      10.550  17.767   7.929  1.00  0.00    -0.271 OA
BRANCH  36  39
HETATM   39  C5  UNL     1       7.147  18.475   7.010  1.00  0.00     0.106 C 
HETATM   40  C4  UNL     1       6.458  19.666   7.660  1.00  0.00     0.027 C 
HETATM   41  C3  UNL     1       5.081  19.134   8.063  1.00  0.00     0.006 C 
HETATM   42  C2  UNL     1       4.470  18.201   7.082  1.00  0.00    -0.019 C 
HETATM   43  C1  UNL     1       4.237  16.807   7.690  1.00  0.00     0.010 C 
HETATM   44  C27 UNL     1       5.073  18.095   5.739  1.00  0.00     0.006 C 
HETATM   45  C26 UNL     1       6.552  18.396   5.635  1.00  0.00     0.027 C 
ENDBRANCH  36  39
BRANCH  37  46
HETATM   46  C7  UNL     1       8.750  16.627   8.774  1.00  0.00     0.031 C 
HETATM   47  C8  UNL     1       8.145  17.246  10.034  1.00  0.00     0.025 C 
HETATM   48  C9  UNL     1       9.928  15.736   9.247  1.00  0.00     0.025 C 
HETATM   49  C10 UNL     1       7.792  15.696   8.123  1.00  0.00     0.025 C 
ENDBRANCH  37  46
ENDBRANCH  33  36
ENDBRANCH   1  33
TORSDOF 10
ENDMDL
MODEL 2
REMARK VINA RESULT: -7.774658108      0.793      1.134
REMARK  10 active torsions:
REMARK  status: ('A' for Active; 'I' for Inactive)
REMARK    1  A    between atoms: C5_5  and  N1_6 
REMARK       I    between atoms: N1_6  and  C6_7 
REMARK    2  A    between atoms: N1_6  and  S1_13 
REMARK    3  A    between atoms: C6_7  and  C7_9 
REMARK    4  A    between atoms: S1_13  and  N2_16 
REMARK    5  A    between atoms: C18_24  and  C19_25 
REMARK       I    between atoms: C19_25  and  N3_27 
REMARK    6  A    between atoms: C20_29  and  C21_30 
REMARK    7  A    between atoms: C20_29  and  C25_44 
REMARK    8  A    between atoms: C21_30  and  C22_31 
REMARK    9  A    between atoms: C22_31  and  C23_32 
REMARK   10  A    between atoms: C23_32  and  N4_33 
REMARK       I    between atoms: N4_33  and  C24_35 
REMARK       I    between atoms: C24_35  and  N5_36 
REMARK       I    between atoms: C24_35  and  N6_40 
ROOT
HETATM    1  N2  UNL     1       9.605  21.317   6.430  1.00  0.00    -0.255 N 
HETATM    2  C11 UNL     1      10.274  21.391   7.684  1.00  0.00     0.175 C 
HETATM    3  C12 UNL     1      11.520  22.240   7.544  1.00  0.00     0.141 C 
HETATM    4  C13 UNL     1      12.560  21.800   6.613  1.00  0.00     0.034 C 
HETATM    5  C14 UNL     1      12.304  22.153   5.166  1.00  0.00     0.005 C 
HETATM    6  C15 UNL     1      11.868  23.597   5.110  1.00  0.00     0.032 C 
HETATM    7  C16 UNL     1      10.794  23.946   6.116  1.00  0.00     0.128 C 
HETATM    8  C17 UNL     1       9.417  23.666   5.669  1.00  0.00     0.096 C 
HETATM    9  C18 UNL     1       8.773  22.385   6.108  1.00  0.00     0.094 C 
HETATM   10  O7  UNL     1      11.098  23.546   7.390  1.00  0.00    -0.379 OA
ENDROOT
BRANCH   9  11
HETATM   11  C19 UNL     1       7.585  22.087   5.319  1.00  0.00     0.269 C 
HETATM   12  O4  UNL     1       7.458  21.961   4.079  1.00  0.00    -0.266 OA
HETATM   13  N3  UNL     1       6.308  21.885   5.978  1.00  0.00    -0.320 N 
HETATM   14  C20 UNL     1       5.305  22.648   5.917  1.00  0.00     0.089 C 
ATOM     15  H3  UNL     1       6.213  21.044   6.547  1.00  0.00     0.169 HD
BRANCH  14  16
HETATM   16  C21 UNL     1       4.102  22.176   6.708  1.00  0.00     0.066 C 
BRANCH  16  17
HETATM   17  C22 UNL     1       3.304  21.154   5.976  1.00  0.00     0.025 C 
BRANCH  17  18
HETATM   18  C23 UNL     1       1.943  21.720   5.620  1.00  0.00     0.117 C 
BRANCH  18  19
HETATM   19  N4  UNL     1       1.601  22.799   6.490  1.00  0.00    -0.374 N 
HETATM   20  C24 UNL     1       0.303  22.769   7.074  1.00  0.00     0.476 C 
HETATM   21  N5  UNL     1       0.128  24.002   7.827  1.00  0.00    -0.033 N 
HETATM   22  N6  UNL     1       0.169  21.688   8.049  1.00  0.00    -0.033 N 
ATOM     23  H53 UNL     1       0.868  24.156   8.513  1.00  0.00     0.278 HD
ATOM     24  H52 UNL     1       0.291  24.837   7.265  1.00  0.00     0.278 HD
ATOM     25  H51 UNL     1      -0.801  23.980   8.246  1.00  0.00     0.278 HD
ATOM     26  H63 UNL     1       0.412  20.787   7.640  1.00  0.00     0.278 HD
ATOM     27  H62 UNL     1       0.897  21.741   8.763  1.00  0.00     0.278 HD
ATOM     28  H61 UNL     1      -0.760  21.667   8.468  1.00  0.00     0.278 HD
ATOM     29  H4  UNL     1       2.256  23.556   6.684  1.00  0.00     0.156 HD
ENDBRANCH  18  19
ENDBRANCH  17  18
ENDBRANCH  16  17
ENDBRANCH  14  16
BRANCH  14  30
HETATM   30  C25 UNL     1       5.156  23.899   5.237  1.00  0.00     0.222 C 
HETATM   31  O5  UNL     1       4.445  24.002   4.212  1.00  0.00    -0.643 OA
HETATM   32  O6  UNL     1       5.782  25.042   5.675  1.00  0.00    -0.643 OA
ENDBRANCH  14  30
ENDBRANCH   9  11
BRANCH   1  33
HETATM   33  S1  UNL     1       9.313  19.772   5.945  1.00  0.00     0.330 S 
HETATM   34  O2  UNL     1       8.843  19.626   4.504  1.00  0.00    -0.182 OA
HETATM   35  O3  UNL     1      10.815  19.206   5.731  1.00  0.00    -0.182 OA
BRANCH  33  36
HETATM   36  N1  UNL     1       8.700  18.560   6.979  1.00  0.00    -0.223 N 
HETATM   37  C6  UNL     1       9.491  17.748   7.790  1.00  0.00     0.242 C 
HETATM   38  O1  UNL     1      10.737  17.913   7.792  1.00  0.00    -0.271 OA
BRANCH  36  39
HETATM   39  C5  UNL     1       7.259  18.383   7.011  1.00  0.00     0.106 C 
HETATM   40  C4  UNL     1       6.522  19.496   7.741  1.00  0.00     0.027 C 
HETATM   41  C3  UNL     1       5.203  18.853   8.179  1.00  0.00     0.006 C 
HETATM   42  C2  UNL     1       4.613  17.921   7.185  1.00  0.00    -0.019 C 
HETATM   43  C1  UNL     1       4.503  16.490   7.741  1.00  0.00     0.010 C 
HETATM   44  C27 UNL     1       5.160  17.911   5.814  1.00  0.00     0.006 C 
HETATM   45  C26 UNL     1       6.610  18.319   5.660  1.00  0.00     0.027 C 
ENDBRANCH  36  39
BRANCH  37  46
HETATM   46  C7  UNL     1       9.055  16.654   8.707  1.00  0.00     0.031 C 
HETATM   47  C8  UNL     1       8.506  17.231  10.012  1.00  0.00     0.025 C 
HETATM   48  C9  UNL     1      10.303  15.816   9.092  1.00  0.00     0.025 C 
HETATM   49  C10 UNL     1       8.103  15.683   8.108  1.00  0.00     0.025 C 
ENDBRANCH  37  46
ENDBRANCH  33  36
ENDBRANCH   1  33
TORSDOF 10
ENDMDL
MODEL 3
REMARK VINA RESULT: -7.711481392      2.566      5.063
REMARK  10 active torsions:
REMARK  status: ('A' for Active; 'I' for Inactive)
REMARK    1  A    between atoms: C5_5  and  N1_6 
REMARK       I    between atoms: N1_6  and  C6_7 
REMARK    2  A    between atoms: N1_6  and  S1_13 
REMARK    3  A    between atoms: C6_7  and  C7_9 
REMARK    4  A    between atoms: S1_13  and  N2_16 
REMARK    5  A    between atoms: C18_24  and  C19_25 
REMARK       I    between atoms: C19_25  and  N3_27 
REMARK    6  A    between atoms: C20_29  and  C21_30 
REMARK    7  A    between atoms: C20_29  and  C25_44 
REMARK    8  A    between atoms: C21_30  and  C22_31 
REMARK    9  A    between atoms: C22_31  and  C23_32 
REMARK   10  A    between atoms: C23_32  and  N4_33 
REMARK       I    between atoms: N4_33  and  C24_35 
REMARK       I    between atoms: C24_35  and  N5_36 
REMARK       I    between atoms: C24_35  and  N6_40 
ROOT
HETATM    1  N2  UNL     1       9.723  18.416   7.872  1.00  0.00    -0.255 N 
HETATM    2  C11 UNL     1       9.420  18.223   9.250  1.00  0.00     0.175 C 
HETATM    3  C12 UNL     1      10.308  17.134   9.814  1.00  0.00     0.141 C 
HETATM    4  C13 UNL     1      10.214  15.792   9.239  1.00  0.00     0.034 C 
HETATM    5  C14 UNL     1      10.995  15.596   7.959  1.00  0.00     0.005 C 
HETATM    6  C15 UNL     1      12.370  16.186   8.159  1.00  0.00     0.032 C 
HETATM    7  C16 UNL     1      12.352  17.572   8.764  1.00  0.00     0.128 C 
HETATM    8  C17 UNL     1      12.185  18.667   7.790  1.00  0.00     0.096 C 
HETATM    9  C18 UNL     1      10.812  19.233   7.586  1.00  0.00     0.094 C 
HETATM   10  O7  UNL     1      11.583  17.658   9.894  1.00  0.00    -0.379 OA
ENDROOT
BRANCH   9  11
HETATM   11  C19 UNL     1      10.740  20.036   6.372  1.00  0.00     0.269 C 
HETATM   12  O4  UNL     1      11.077  19.746   5.200  1.00  0.00    -0.266 OA
HETATM   13  N3  UNL     1      10.209  21.384   6.424  1.00  0.00    -0.320 N 
HETATM   14  C20 UNL     1      10.860  22.452   6.256  1.00  0.00     0.089 C 
ATOM     15  H3  UNL     1       9.212  21.479   6.614  1.00  0.00     0.169 HD
BRANCH  14  16
HETATM   16  C21 UNL     1      10.036  23.719   6.362  1.00  0.00     0.066 C 
BRANCH  16  17
HETATM   17  C22 UNL     1      10.024  24.499   5.093  1.00  0.00     0.025 C 
BRANCH  17  18
HETATM   18  C23 UNL     1       8.644  24.442   4.466  1.00  0.00     0.117 C 
BRANCH  18  19
HETATM   19  N4  UNL     1       7.657  24.122   5.445  1.00  0.00    -0.374 N 
HETATM   20  C24 UNL     1       6.577  23.295   5.025  1.00  0.00     0.476 C 
HETATM   21  N5  UNL     1       5.644  23.187   6.138  1.00  0.00    -0.033 N 
HETATM   22  N6  UNL     1       7.015  21.929   4.744  1.00  0.00    -0.033 N 
ATOM     23  H53 UNL     1       6.086  22.856   6.995  1.00  0.00     0.278 HD
ATOM     24  H52 UNL     1       5.336  24.094   6.486  1.00  0.00     0.278 HD
ATOM     25  H51 UNL     1       4.871  22.594   5.837  1.00  0.00     0.278 HD
ATOM     26  H63 UNL     1       7.777  21.916   4.067  1.00  0.00     0.278 HD
ATOM     27  H62 UNL     1       7.504  21.524   5.543  1.00  0.00     0.278 HD
ATOM     28  H61 UNL     1       6.241  21.336   4.443  1.00  0.00     0.278 HD
ATOM     29  H4  UNL     1       7.722  24.470   6.402  1.00  0.00     0.156 HD
ENDBRANCH  18  19
ENDBRANCH  17  18
ENDBRANCH  16  17
ENDBRANCH  14  16
BRANCH  14  30
HETATM   30  C25 UNL     1      12.259  22.634   6.012  1.00  0.00     0.222 C 
HETATM   31  O5  UNL     1      13.051  22.912   6.941  1.00  0.00    -0.643 OA
HETATM   32  O6  UNL     1      12.798  22.513   4.753  1.00  0.00    -0.643 OA
ENDBRANCH  14  30
ENDBRANCH   9  11
BRANCH   1  33
HETATM   33  S1  UNL     1       8.399  18.310   6.900  1.00  0.00     0.330 S 
HETATM   34  O2  UNL     1       8.301  19.382   5.824  1.00  0.00    -0.182 OA
HETATM   35  O3  UNL     1       8.804  17.079   5.928  1.00  0.00    -0.182 OA
BRANCH  33  36
HETATM   36  N1  UNL     1       6.878  17.755   7.438  1.00  0.00    -0.223 N 
HETATM   37  C6  UNL     1       6.623  16.450   7.858  1.00  0.00     0.242 C 
HETATM   38  O1  UNL     1       7.563  15.616   7.870  1.00  0.00    -0.271 OA
BRANCH  36  39
HETATM   39  C5  UNL     1       5.792  18.718   7.462  1.00  0.00     0.106 C 
HETATM   40  C4  UNL     1       6.166  20.047   8.103  1.00  0.00     0.027 C 
HETATM   41  C3  UNL     1       4.830  20.634   8.566  1.00  0.00     0.006 C 
HETATM   42  C2  UNL     1       3.700  20.404   7.632  1.00  0.00    -0.019 C 
HETATM   43  C1  UNL     1       2.581  19.573   8.284  1.00  0.00     0.010 C 
HETATM   44  C27 UNL     1       3.996  19.911   6.273  1.00  0.00     0.006 C 
HETATM   45  C26 UNL     1       5.255  19.086   6.111  1.00  0.00     0.027 C 
ENDBRANCH  36  39
BRANCH  37  46
HETATM   46  C7  UNL     1       5.330  15.865   8.324  1.00  0.00     0.031 C 
HETATM   47  C8  UNL     1       5.020  16.314   9.752  1.00  0.00     0.025 C 
HETATM   48  C9  UNL     1       5.485  14.323   8.376  1.00  0.00     0.025 C 
HETATM   49  C10 UNL     1       4.176  16.113   7.423  1.00  0.00     0.025 C 
ENDBRANCH  37  46
ENDBRANCH  33  36
ENDBRANCH   1  33
TORSDOF 10
ENDMDL
MODEL 4
REMARK VINA RESULT: -7.648088509      1.167      2.849
REMARK  10 active torsions:
REMARK  status: ('A' for Active; 'I' for Inactive)
REMARK    1  A    between atoms: C5_5  and  N1_6 
REMARK       I    between atoms: N1_6  and  C6_7 
REMARK    2  A    between atoms: N1_6  and  S1_13 
REMARK    3  A    between atoms: C6_7  and  C7_9 
REMARK    4  A    between atoms: S1_13  and  N2_16 
REMARK    5  A    between atoms: C18_24  and  C19_25 
REMARK       I    between atoms: C19_25  and  N3_27 
REMARK    6  A    between atoms: C20_29  and  C21_30 
REMARK    7  A    between atoms: C20_29  and  C25_44 
REMARK    8  A    between atoms: C21_30  and  C22_31 
REMARK    9  A    between atoms: C22_31  and  C23_32 
REMARK   10  A    between atoms: C23_32  and  N4_33 
REMARK       I    between atoms: N4_33  and  C24_35 
REMARK       I    between atoms: C24_35  and  N5_36 
REMARK       I    between atoms: C24_35  and  N6_40 
ROOT
HETATM    1  N2  UNL     1       9.593  21.455   6.284  1.00  0.00    -0.255 N 
HETATM    2  C11 UNL     1      10.344  21.576   7.487  1.00  0.00     0.175 C 
HETATM    3  C12 UNL     1      11.583  22.407   7.228  1.00  0.00     0.141 C 
HETATM    4  C13 UNL     1      12.557  21.918   6.250  1.00  0.00     0.034 C 
HETATM    5  C14 UNL     1      12.207  22.213   4.809  1.00  0.00     0.005 C 
HETATM    6  C15 UNL     1      11.778  23.657   4.720  1.00  0.00     0.032 C 
HETATM    7  C16 UNL     1      10.775  24.057   5.780  1.00  0.00     0.128 C 
HETATM    8  C17 UNL     1       9.370  23.771   5.437  1.00  0.00     0.096 C 
HETATM    9  C18 UNL     1       8.749  22.516   5.972  1.00  0.00     0.094 C 
HETATM   10  O7  UNL     1      11.161  23.709   7.047  1.00  0.00    -0.379 OA
ENDROOT
BRANCH   9  11
HETATM   11  C19 UNL     1       7.508  22.196   5.278  1.00  0.00     0.269 C 
HETATM   12  O4  UNL     1       7.266  22.160   4.049  1.00  0.00    -0.266 OA
HETATM   13  N3  UNL     1       6.321  21.850   6.036  1.00  0.00    -0.320 N 
HETATM   14  C20 UNL     1       5.269  22.541   6.136  1.00  0.00     0.089 C 
ATOM     15  H3  UNL     1       6.337  20.962   6.536  1.00  0.00     0.169 HD
BRANCH  14  16
HETATM   16  C21 UNL     1       4.185  21.922   6.994  1.00  0.00     0.066 C 
BRANCH  16  17
HETATM   17  C22 UNL     1       3.439  20.847   6.282  1.00  0.00     0.025 C 
BRANCH  17  18
HETATM   18  C23 UNL     1       2.086  21.368   5.835  1.00  0.00     0.117 C 
BRANCH  18  19
HETATM   19  N4  UNL     1       1.701  22.504   6.609  1.00  0.00    -0.374 N 
HETATM   20  C24 UNL     1       0.365  22.525   7.101  1.00  0.00     0.476 C 
HETATM   21  N5  UNL     1       0.158  23.806   7.761  1.00  0.00    -0.033 N 
HETATM   22  N6  UNL     1       0.148  21.512   8.132  1.00  0.00    -0.033 N 
ATOM     23  H53 UNL     1       0.850  23.996   8.486  1.00  0.00     0.278 HD
ATOM     24  H52 UNL     1       0.372  24.602   7.159  1.00  0.00     0.278 HD
ATOM     25  H51 UNL     1      -0.799  23.822   8.114  1.00  0.00     0.278 HD
ATOM     26  H63 UNL     1       0.405  20.583   7.798  1.00  0.00     0.278 HD
ATOM     27  H62 UNL     1       0.824  21.602   8.890  1.00  0.00     0.278 HD
ATOM     28  H61 UNL     1      -0.809  21.527   8.484  1.00  0.00     0.278 HD
ATOM     29  H4  UNL     1       2.353  23.265   6.801  1.00  0.00     0.156 HD
ENDBRANCH  18  19
ENDBRANCH  17  18
ENDBRANCH  16  17
ENDBRANCH  14  16
BRANCH  14  30
HETATM   30  C25 UNL     1       4.972  23.827   5.584  1.00  0.00     0.222 C 
HETATM   31  O5  UNL     1       4.016  23.991   4.792  1.00  0.00    -0.643 OA
HETATM   32  O6  UNL     1       5.717  24.941   5.894  1.00  0.00    -0.643 OA
ENDBRANCH  14  30
ENDBRANCH   9  11
BRANCH   1  33
HETATM   33  S1  UNL     1       9.259  19.894   5.886  1.00  0.00     0.330 S 
HETATM   34  O2  UNL     1       9.245  19.597   4.393  1.00  0.00    -0.182 OA
HETATM   35  O3  UNL     1      10.663  19.161   6.228  1.00  0.00    -0.182 OA
BRANCH  33  36
HETATM   36  N1  UNL     1       8.199  18.899   6.779  1.00  0.00    -0.223 N 
HETATM   37  C6  UNL     1       6.928  18.522   6.347  1.00  0.00     0.242 C 
HETATM   38  O1  UNL     1       6.523  18.911   5.223  1.00  0.00    -0.271 OA
BRANCH  36  39
HETATM   39  C5  UNL     1       8.669  18.415   8.065  1.00  0.00     0.106 C 
HETATM   40  C4  UNL     1      10.132  17.995   8.063  1.00  0.00     0.027 C 
HETATM   41  C3  UNL     1      10.243  17.007   9.227  1.00  0.00     0.006 C 
HETATM   42  C2  UNL     1       9.442  17.371  10.423  1.00  0.00    -0.019 C 
HETATM   43  C1  UNL     1       8.380  16.304  10.744  1.00  0.00     0.010 C 
HETATM   44  C27 UNL     1       8.864  18.727  10.499  1.00  0.00     0.006 C 
HETATM   45  C26 UNL     1       8.561  19.409   9.182  1.00  0.00     0.027 C 
ENDBRANCH  36  39
BRANCH  37  46
HETATM   46  C7  UNL     1       5.923  17.678   7.059  1.00  0.00     0.031 C 
HETATM   47  C8  UNL     1       6.523  16.321   7.428  1.00  0.00     0.025 C 
HETATM   48  C9  UNL     1       4.754  17.386   6.083  1.00  0.00     0.025 C 
HETATM   49  C10 UNL     1       5.294  18.323   8.241  1.00  0.00     0.025 C 
ENDBRANCH  37  46
ENDBRANCH  33  36
ENDBRANCH   1  33
TORSDOF 10
ENDMDL
MODEL 5
REMARK VINA RESULT: -7.639905158      2.909      6.175
REMARK  10 active torsions:
REMARK  status: ('A' for Active; 'I' for Inactive)
REMARK    1  A    between atoms: C5_5  and  N1_6 
REMARK       I    between atoms: N1_6  and  C6_7 
REMARK    2  A    between atoms: N1_6  and  S1_13 
REMARK    3  A    between atoms: C6_7  and  C7_9 
REMARK    4  A    between atoms: S1_13  and  N2_16 
REMARK    5  A    between atoms: C18_24  and  C19_25 
REMARK       I    between atoms: C19_25  and  N3_27 
REMARK    6  A    between atoms: C20_29  and  C21_30 
REMARK    7  A    between atoms: C20_29  and  C25_44 
REMARK    8  A    between atoms: C21_30  and  C22_31 
REMARK    9  A    between atoms: C22_31  and  C23_32 
REMARK   10  A    between atoms: C23_32  and  N4_33 
REMARK       I    between atoms: N4_33  and  C24_35 
REMARK       I    between atoms: C24_35  and  N5_36 
REMARK       I    between atoms: C24_35  and  N6_40 
ROOT
HETATM    1  N2  UNL     1       7.598  17.519   8.338  1.00  0.00    -0.255 N 
HETATM    2  C11 UNL     1       7.929  16.292   7.696  1.00  0.00     0.175 C 
HETATM    3  C12 UNL     1       6.969  15.211   8.145  1.00  0.00     0.141 C 
HETATM    4  C13 UNL     1       6.927  14.866   9.567  1.00  0.00     0.034 C 
HETATM    5  C14 UNL     1       6.089  15.793  10.418  1.00  0.00     0.005 C 
HETATM    6  C15 UNL     1       4.778  16.021   9.704  1.00  0.00     0.032 C 
HETATM    7  C16 UNL     1       4.937  16.366   8.240  1.00  0.00     0.128 C 
HETATM    8  C17 UNL     1       5.167  17.797   7.967  1.00  0.00     0.096 C 
HETATM    9  C18 UNL     1       6.576  18.264   7.761  1.00  0.00     0.094 C 
HETATM   10  O7  UNL     1       5.749  15.494   7.565  1.00  0.00    -0.379 OA
ENDROOT
BRANCH   9  11
HETATM   11  C19 UNL     1       6.677  19.715   7.854  1.00  0.00     0.269 C 
HETATM   12  O4  UNL     1       6.520  20.465   8.846  1.00  0.00    -0.266 OA
HETATM   13  N3  UNL     1       7.009  20.497   6.679  1.00  0.00    -0.320 N 
HETATM   14  C20 UNL     1       6.241  21.289   6.066  1.00  0.00     0.089 C 
ATOM     15  H3  UNL     1       7.955  20.397   6.312  1.00  0.00     0.169 HD
BRANCH  14  16
HETATM   16  C21 UNL     1       6.866  21.975   4.868  1.00  0.00     0.066 C 
BRANCH  16  17
HETATM   17  C22 UNL     1       7.831  23.040   5.261  1.00  0.00     0.025 C 
BRANCH  17  18
HETATM   18  C23 UNL     1       7.337  24.389   4.774  1.00  0.00     0.117 C 
BRANCH  18  19
HETATM   19  N4  UNL     1       6.289  24.876   5.611  1.00  0.00    -0.374 N 
HETATM   20  C24 UNL     1       5.190  25.509   4.964  1.00  0.00     0.476 C 
HETATM   21  N5  UNL     1       4.302  26.019   6.000  1.00  0.00    -0.033 N 
HETATM   22  N6  UNL     1       4.391  24.559   4.193  1.00  0.00    -0.033 N 
ATOM     23  H53 UNL     1       4.012  25.301   6.662  1.00  0.00     0.278 HD
ATOM     24  H52 UNL     1       4.777  26.630   6.663  1.00  0.00     0.278 HD
ATOM     25  H51 UNL     1       3.515  26.473   5.536  1.00  0.00     0.278 HD
ATOM     26  H63 UNL     1       4.967  24.045   3.527  1.00  0.00     0.278 HD
ATOM     27  H62 UNL     1       4.081  23.778   4.773  1.00  0.00     0.278 HD
ATOM     28  H61 UNL     1       3.603  25.012   3.730  1.00  0.00     0.278 HD
ATOM     29  H4  UNL     1       6.325  24.775   6.626  1.00  0.00     0.156 HD
ENDBRANCH  18  19
ENDBRANCH  17  18
ENDBRANCH  16  17
ENDBRANCH  14  16
BRANCH  14  30
HETATM   30  C25 UNL     1       4.868  21.603   6.321  1.00  0.00     0.222 C 
HETATM   31  O5  UNL     1       4.529  22.719   6.773  1.00  0.00    -0.643 OA
HETATM   32  O6  UNL     1       3.860  20.698   6.082  1.00  0.00    -0.643 OA
ENDBRANCH  14  30
ENDBRANCH   9  11
BRANCH   1  33
HETATM   33  S1  UNL     1       8.874  18.199   9.124  1.00  0.00     0.330 S 
HETATM   34  O2  UNL     1       8.513  19.310  10.100  1.00  0.00    -0.182 OA
HETATM   35  O3  UNL     1       9.226  17.064  10.224  1.00  0.00    -0.182 OA
BRANCH  33  36
HETATM   36  N1  UNL     1      10.417  18.397   8.422  1.00  0.00    -0.223 N 
HETATM   37  C6  UNL     1      11.469  17.495   8.574  1.00  0.00     0.242 C 
HETATM   38  O1  UNL     1      11.288  16.452   9.251  1.00  0.00    -0.271 OA
BRANCH  36  39
HETATM   39  C5  UNL     1      10.627  19.581   7.607  1.00  0.00     0.106 C 
HETATM   40  C4  UNL     1       9.971  19.506   6.237  1.00  0.00     0.027 C 
HETATM   41  C3  UNL     1      10.775  20.486   5.378  1.00  0.00     0.006 C 
HETATM   42  C2  UNL     1      11.188  21.726   6.081  1.00  0.00    -0.019 C 
HETATM   43  C1  UNL     1      12.719  21.862   6.146  1.00  0.00     0.010 C 
HETATM   44  C27 UNL     1      10.578  22.033   7.389  1.00  0.00     0.006 C 
HETATM   45  C26 UNL     1      10.106  20.852   8.210  1.00  0.00     0.027 C 
ENDBRANCH  36  39
BRANCH  37  46
HETATM   46  C7  UNL     1      12.853  17.588   8.020  1.00  0.00     0.031 C 
HETATM   47  C8  UNL     1      12.848  17.336   6.512  1.00  0.00     0.025 C 
HETATM   48  C9  UNL     1      13.705  16.455   8.649  1.00  0.00     0.025 C 
HETATM   49  C10 UNL     1      13.571  18.846   8.350  1.00  0.00     0.025 C 
ENDBRANCH  37  46
ENDBRANCH  33  36
ENDBRANCH   1  33
TORSDOF 10
ENDMDL
