MODEL 1
REMARK VINA RESULT: -8.267061290      0.000      0.000
REMARK  10 active torsions:
REMARK  status: ('A' for Active; 'I' for Inactive)
REMARK    1  A    between atoms: C2_2  and  C3_5 
REMARK    2  A    between atoms: C17_19  and  C18_20 
REMARK    3  A    between atoms: C18_20  and  O1_21 
REMARK    4  A    between atoms: N1_23  and  C19_24 
REMARK    5  A    between atoms: N1_23  and  C21_28 
REMARK    6  A    between atoms: C19_24  and  C20_25 
REMARK    7  A    between atoms: C20_25  and  O2_26 
REMARK    8  A    between atoms: C21_28  and  C22_29 
REMARK       I    between atoms: C22_29  and  N2_31 
REMARK    9  A    between atoms: N2_31  and  C23_33 
REMARK   10  A    between atoms: C26_38  and  O6_39 
ROOT
HETATM    1  C18 UNL     1       6.896  62.978   0.737  1.00  0.00     0.125 C 
HETATM    2  N1  UNL     1       8.006  63.595   1.214  1.00  0.00    -0.354 N 
ENDROOT
BRANCH   1   3
HETATM    3  C17 UNL     1       5.423  62.975   1.124  1.00  0.00     0.049 C 
HETATM    4  C3  UNL     1       4.712  64.203   0.829  1.00  0.00     0.042 C 
HETATM    5  C4  UNL     1       3.806  64.047  -0.411  1.00  0.00     0.009 C 
HETATM    6  C5  UNL     1       3.531  62.558  -0.377  1.00  0.00     0.006 C 
HETATM    7  C6  UNL     1       4.831  61.979   0.105  1.00  0.00     0.004 C 
HETATM    8  C7  UNL     1       4.822  60.565   0.437  1.00  0.00     0.010 C 
HETATM    9  C8  UNL     1       4.363  60.137   1.819  1.00  0.00    -0.013 C 
HETATM   10  C9  UNL     1       5.109  58.981   2.303  1.00  0.00     0.005 C 
HETATM   11  C16 UNL     1       4.177  61.354   2.657  1.00  0.00     0.023 C 
HETATM   12  C10 UNL     1       5.776  58.849   3.586  1.00  0.00     0.001 C 
HETATM   13  C11 UNL     1       7.254  58.376   3.505  1.00  0.00     0.012 C 
HETATM   14  C12 UNL     1       8.133  59.610   3.101  1.00  0.00     0.094 C 
HETATM   15  C13 UNL     1       7.227  60.688   2.838  1.00  0.00    -0.106 C 
HETATM   16  C14 UNL     1       6.467  61.439   2.659  1.00  0.00    -0.101 C 
HETATM   17  C15 UNL     1       5.357  62.344   2.460  1.00  0.00     0.082 C 
BRANCH   4  18
HETATM   18  C2  UNL     1       3.987  65.083   1.714  1.00  0.00     0.114 C 
HETATM   19  C1  UNL     1       3.466  66.262   0.841  1.00  0.00     0.051 C 
HETATM   20 CL1  UNL     1       2.373  64.406   2.241  1.00  0.00    -0.102 Cl
HETATM   21 CL2  UNL     1       4.649  65.802   3.128  1.00  0.00    -0.102 Cl
ENDBRANCH   4  18
ENDBRANCH   1   3
BRANCH   1  22
HETATM   22  O1  UNL     1       7.192  62.212  -0.299  1.00  0.00    -0.349 OA
ATOM     23  H1  UNL     1       8.116  62.010  -0.388  1.00  0.00     0.219 HD
ENDBRANCH   1  22
BRANCH   2  24
HETATM   24  C19 UNL     1       9.296  63.350   0.502  1.00  0.00     0.151 C 
BRANCH  24  25
HETATM   25  C20 UNL     1      10.140  62.358   1.240  1.00  0.00     0.183 C 
BRANCH  25  26
HETATM   26  O2  UNL     1      11.471  62.389   0.897  1.00  0.00    -0.399 OA
ATOM     27  H2  UNL     1      11.629  62.563  -0.023  1.00  0.00     0.209 HD
ENDBRANCH  25  26
ENDBRANCH  24  25
ENDBRANCH   2  24
BRANCH   2  28
HETATM   28  C21 UNL     1       8.136  64.444   2.333  1.00  0.00     0.227 C 
BRANCH  28  29
HETATM   29  C22 UNL     1       9.322  65.291   2.443  1.00  0.00     0.236 C 
HETATM   30  O3  UNL     1       9.462  66.321   1.776  1.00  0.00    -0.272 OA
HETATM   31  N2  UNL     1      10.365  64.945   3.334  1.00  0.00    -0.350 N 
ATOM     32  H2  UNL     1      10.258  64.095   3.887  1.00  0.00     0.163 HD
BRANCH  31  33
HETATM   33  C23 UNL     1      11.569  65.719   3.507  1.00  0.00     0.149 C 
HETATM   34  C24 UNL     1      12.718  65.250   2.672  1.00  0.00     0.141 C 
HETATM   35  C25 UNL     1      13.768  64.910   3.672  1.00  0.00     0.263 C 
HETATM   36  O4  UNL     1      15.023  64.807   3.448  1.00  0.00    -0.265 OA
HETATM   37  O5  UNL     1      13.121  64.731   4.887  1.00  0.00    -0.288 OA
HETATM   38  C26 UNL     1      12.068  65.705   4.930  1.00  0.00     0.289 C 
BRANCH  38  39
HETATM   39  O6  UNL     1      12.670  66.907   5.299  1.00  0.00    -0.369 OA
ATOM     40  H6  UNL     1      13.422  67.121   4.759  1.00  0.00     0.212 HD
ENDBRANCH  38  39
ENDBRANCH  31  33
ENDBRANCH  28  29
ENDBRANCH   2  28
TORSDOF 10
ENDMDL
MODEL 2
REMARK VINA RESULT: -7.992442973      2.850      5.178
REMARK  10 active torsions:
REMARK  status: ('A' for Active; 'I' for Inactive)
REMARK    1  A    between atoms: C2_2  and  C3_5 
REMARK    2  A    between atoms: C17_19  and  C18_20 
REMARK    3  A    between atoms: C18_20  and  O1_21 
REMARK    4  A    between atoms: N1_23  and  C19_24 
REMARK    5  A    between atoms: N1_23  and  C21_28 
REMARK    6  A    between atoms: C19_24  and  C20_25 
REMARK    7  A    between atoms: C20_25  and  O2_26 
REMARK    8  A    between atoms: C21_28  and  C22_29 
REMARK       I    between atoms: C22_29  and  N2_31 
REMARK    9  A    between atoms: N2_31  and  C23_33 
REMARK   10  A    between atoms: C26_38  and  O6_39 
ROOT
HETATM    1  C18 UNL     1       6.959  65.393   4.044  1.00  0.00     0.125 C 
HETATM    2  N1  UNL     1       7.513  66.323   3.225  1.00  0.00    -0.354 N 
ENDROOT
BRANCH   1   3
HETATM    3  C17 UNL     1       6.383  63.997   3.842  1.00  0.00     0.049 C 
HETATM    4  C3  UNL     1       7.313  63.025   3.304  1.00  0.00     0.042 C 
HETATM    5  C4  UNL     1       7.808  62.052   4.396  1.00  0.00     0.009 C 
HETATM    6  C5  UNL     1       6.641  62.091   5.361  1.00  0.00     0.006 C 
HETATM    7  C6  UNL     1       6.190  63.523   5.298  1.00  0.00     0.004 C 
HETATM    8  C7  UNL     1       4.943  63.836   5.974  1.00  0.00     0.010 C 
HETATM    9  C8  UNL     1       3.633  63.613   5.240  1.00  0.00    -0.013 C 
HETATM   10  C9  UNL     1       2.640  64.623   5.586  1.00  0.00     0.005 C 
HETATM   11  C16 UNL     1       3.935  63.266   3.823  1.00  0.00     0.023 C 
HETATM   12  C10 UNL     1       1.857  65.426   4.665  1.00  0.00     0.001 C 
HETATM   13  C11 UNL     1       1.887  66.955   4.946  1.00  0.00     0.012 C 
HETATM   14  C12 UNL     1       3.241  67.519   4.391  1.00  0.00     0.094 C 
HETATM   15  C13 UNL     1       3.999  66.390   3.938  1.00  0.00    -0.106 C 
HETATM   16  C14 UNL     1       4.495  65.480   3.627  1.00  0.00    -0.101 C 
HETATM   17  C15 UNL     1       5.041  64.195   3.253  1.00  0.00     0.082 C 
BRANCH   4  18
HETATM   18  C2  UNL     1       7.221  62.227   2.105  1.00  0.00     0.114 C 
HETATM   19  C1  UNL     1       8.611  61.553   1.910  1.00  0.00     0.051 C 
HETATM   20 CL1  UNL     1       6.218  60.715   2.322  1.00  0.00    -0.102 Cl
HETATM   21 CL2  UNL     1       6.775  62.838   0.562  1.00  0.00    -0.102 Cl
ENDBRANCH   4  18
ENDBRANCH   1   3
BRANCH   1  22
HETATM   22  O1  UNL     1       6.925  65.826   5.292  1.00  0.00    -0.349 OA
ATOM     23  H1  UNL     1       7.685  66.330   5.555  1.00  0.00     0.219 HD
ENDBRANCH   1  22
BRANCH   2  24
HETATM   24  C19 UNL     1       8.000  67.591   3.846  1.00  0.00     0.151 C 
BRANCH  24  25
HETATM   25  C20 UNL     1       9.463  67.514   4.154  1.00  0.00     0.183 C 
BRANCH  25  26
HETATM   26  O2  UNL     1       9.762  66.783   5.280  1.00  0.00    -0.399 OA
ATOM     27  H2  UNL     1      10.045  67.309   6.018  1.00  0.00     0.209 HD
ENDBRANCH  25  26
ENDBRANCH  24  25
ENDBRANCH   2  24
BRANCH   2  28
HETATM   28  C21 UNL     1       7.682  66.283   1.825  1.00  0.00     0.227 C 
BRANCH  28  29
HETATM   29  C22 UNL     1       8.832  65.568   1.275  1.00  0.00     0.236 C 
HETATM   30  O3  UNL     1       8.957  65.349   0.065  1.00  0.00    -0.272 OA
HETATM   31  N2  UNL     1       9.855  65.098   2.131  1.00  0.00    -0.350 N 
ATOM     32  H2  UNL     1       9.760  65.274   3.131  1.00  0.00     0.163 HD
BRANCH  31  33
HETATM   33  C23 UNL     1      11.024  64.386   1.677  1.00  0.00     0.149 C 
HETATM   34  C24 UNL     1      11.880  63.857   2.784  1.00  0.00     0.141 C 
HETATM   35  C25 UNL     1      13.198  64.513   2.558  1.00  0.00     0.263 C 
HETATM   36  O4  UNL     1      14.328  64.123   3.013  1.00  0.00    -0.265 OA
HETATM   37  O5  UNL     1      12.960  65.624   1.759  1.00  0.00    -0.288 OA
HETATM   38  C26 UNL     1      11.934  65.241   0.832  1.00  0.00     0.289 C 
BRANCH  38  39
HETATM   39  O6  UNL     1      12.573  64.515  -0.172  1.00  0.00    -0.369 OA
ATOM     40  H6  UNL     1      13.016  65.073  -0.801  1.00  0.00     0.212 HD
ENDBRANCH  38  39
ENDBRANCH  31  33
ENDBRANCH  28  29
ENDBRANCH   2  28
TORSDOF 10
ENDMDL
MODEL 3
REMARK VINA RESULT: -7.941141633      2.132      2.813
REMARK  10 active torsions:
REMARK  status: ('A' for Active; 'I' for Inactive)
REMARK    1  A    between atoms: C2_2  and  C3_5 
REMARK    2  A    between atoms: C17_19  and  C18_20 
REMARK    3  A    between atoms: C18_20  and  O1_21 
REMARK    4  A    between atoms: N1_23  and  C19_24 
REMARK    5  A    between atoms: N1_23  and  C21_28 
REMARK    6  A    between atoms: C19_24  and  C20_25 
REMARK    7  A    between atoms: C20_25  and  O2_26 
REMARK    8  A    between atoms: C21_28  and  C22_29 
REMARK       I    between atoms: C22_29  and  N2_31 
REMARK    9  A    between atoms: N2_31  and  C23_33 
REMARK   10  A    between atoms: C26_38  and  O6_39 
ROOT
HETATM    1  C18 UNL     1       7.503  63.034   1.151  1.00  0.00     0.125 C 
HETATM    2  N1  UNL     1       8.697  63.540   1.552  1.00  0.00    -0.354 N 
ENDROOT
BRANCH   1   3
HETATM    3  C17 UNL     1       6.054  63.248   1.570  1.00  0.00     0.049 C 
HETATM    4  C3  UNL     1       5.566  64.602   1.405  1.00  0.00     0.042 C 
HETATM    5  C4  UNL     1       4.639  64.723   0.177  1.00  0.00     0.009 C 
HETATM    6  C5  UNL     1       4.110  63.307   0.080  1.00  0.00     0.006 C 
HETATM    7  C6  UNL     1       5.292  62.470   0.477  1.00  0.00     0.004 C 
HETATM    8  C7  UNL     1       5.040  61.053   0.677  1.00  0.00     0.010 C 
HETATM    9  C8  UNL     1       4.522  60.582   2.024  1.00  0.00    -0.013 C 
HETATM   10  C9  UNL     1       5.059  59.274   2.383  1.00  0.00     0.005 C 
HETATM   11  C16 UNL     1       4.555  61.729   2.975  1.00  0.00     0.023 C 
HETATM   12  C10 UNL     1       5.701  58.909   3.632  1.00  0.00     0.001 C 
HETATM   13  C11 UNL     1       7.074  58.198   3.475  1.00  0.00     0.012 C 
HETATM   14  C12 UNL     1       8.151  59.295   3.166  1.00  0.00     0.094 C 
HETATM   15  C13 UNL     1       7.444  60.533   3.025  1.00  0.00    -0.106 C 
HETATM   16  C14 UNL     1       6.826  61.417   2.933  1.00  0.00    -0.101 C 
HETATM   17  C15 UNL     1       5.889  62.514   2.843  1.00  0.00     0.082 C 
BRANCH   4  18
HETATM   18  C2  UNL     1       5.010  65.507   2.384  1.00  0.00     0.114 C 
HETATM   19  C1  UNL     1       5.156  66.941   1.798  1.00  0.00     0.051 C 
HETATM   20 CL1  UNL     1       3.186  65.438   2.473  1.00  0.00    -0.102 Cl
HETATM   21 CL2  UNL     1       5.531  65.612   4.018  1.00  0.00    -0.102 Cl
ENDBRANCH   4  18
ENDBRANCH   1   3
BRANCH   1  22
HETATM   22  O1  UNL     1       7.668  62.159   0.175  1.00  0.00    -0.349 OA
ATOM     23  H1  UNL     1       8.157  62.487  -0.571  1.00  0.00     0.219 HD
ENDBRANCH   1  22
BRANCH   2  24
HETATM   24  C19 UNL     1       9.922  63.078   0.834  1.00  0.00     0.151 C 
BRANCH  24  25
HETATM   25  C20 UNL     1      11.154  63.344   1.643  1.00  0.00     0.183 C 
BRANCH  25  26
HETATM   26  O2  UNL     1      12.319  63.321   0.913  1.00  0.00    -0.399 OA
ATOM     27  H2  UNL     1      12.689  62.454   0.803  1.00  0.00     0.209 HD
ENDBRANCH  25  26
ENDBRANCH  24  25
ENDBRANCH   2  24
BRANCH   2  28
HETATM   28  C21 UNL     1       8.967  64.449   2.597  1.00  0.00     0.227 C 
BRANCH  28  29
HETATM   29  C22 UNL     1       8.745  65.875   2.365  1.00  0.00     0.236 C 
HETATM   30  O3  UNL     1       8.637  66.350   1.230  1.00  0.00    -0.272 OA
HETATM   31  N2  UNL     1       8.645  66.768   3.458  1.00  0.00    -0.350 N 
ATOM     32  H2  UNL     1       8.733  66.384   4.398  1.00  0.00     0.163 HD
BRANCH  31  33
HETATM   33  C23 UNL     1       8.426  68.186   3.324  1.00  0.00     0.149 C 
HETATM   34  C24 UNL     1       9.680  68.978   3.124  1.00  0.00     0.141 C 
HETATM   35  C25 UNL     1       9.694  69.918   4.280  1.00  0.00     0.263 C 
HETATM   36  O4  UNL     1      10.356  71.009   4.362  1.00  0.00    -0.265 OA
HETATM   37  O5  UNL     1       8.851  69.380   5.243  1.00  0.00    -0.288 OA
HETATM   38  C26 UNL     1       7.754  68.787   4.533  1.00  0.00     0.289 C 
BRANCH  38  39
HETATM   39  O6  UNL     1       6.896  69.836   4.204  1.00  0.00    -0.369 OA
ATOM     40  H6  UNL     1       6.103  69.837   4.728  1.00  0.00     0.212 HD
ENDBRANCH  38  39
ENDBRANCH  31  33
ENDBRANCH  28  29
ENDBRANCH   2  28
TORSDOF 10
ENDMDL
MODEL 4
REMARK VINA RESULT: -7.776798196      2.405      3.111
REMARK  10 active torsions:
REMARK  status: ('A' for Active; 'I' for Inactive)
REMARK    1  A    between atoms: C2_2  and  C3_5 
REMARK    2  A    between atoms: C17_19  and  C18_20 
REMARK    3  A    between atoms: C18_20  and  O1_21 
REMARK    4  A    between atoms: N1_23  and  C19_24 
REMARK    5  A    between atoms: N1_23  and  C21_28 
REMARK    6  A    between atoms: C19_24  and  C20_25 
REMARK    7  A    between atoms: C20_25  and  O2_26 
REMARK    8  A    between atoms: C21_28  and  C22_29 
REMARK       I    between atoms: C22_29  and  N2_31 
REMARK    9  A    between atoms: N2_31  and  C23_33 
REMARK   10  A    between atoms: C26_38  and  O6_39 
ROOT
HETATM    1  C18 UNL     1       6.261  62.252   1.563  1.00  0.00     0.125 C 
HETATM    2  N1  UNL     1       7.016  63.087   2.322  1.00  0.00    -0.354 N 
ENDROOT
BRANCH   1   3
HETATM    3  C17 UNL     1       4.778  61.911   1.498  1.00  0.00     0.049 C 
HETATM    4  C3  UNL     1       3.909  63.027   1.183  1.00  0.00     0.042 C 
HETATM    5  C4  UNL     1       3.412  62.961  -0.277  1.00  0.00     0.009 C 
HETATM    6  C5  UNL     1       3.481  61.470  -0.533  1.00  0.00     0.006 C 
HETATM    7  C6  UNL     1       4.709  61.047   0.222  1.00  0.00     0.004 C 
HETATM    8  C7  UNL     1       4.935  59.616   0.335  1.00  0.00     0.010 C 
HETATM    9  C8  UNL     1       4.245  58.849   1.448  1.00  0.00    -0.013 C 
HETATM   10  C9  UNL     1       5.083  57.772   1.963  1.00  0.00     0.005 C 
HETATM   11  C16 UNL     1       3.579  59.824   2.357  1.00  0.00     0.023 C 
HETATM   12  C10 UNL     1       5.409  57.510   3.353  1.00  0.00     0.001 C 
HETATM   13  C11 UNL     1       6.925  57.332   3.643  1.00  0.00     0.012 C 
HETATM   14  C12 UNL     1       7.577  58.759   3.690  1.00  0.00     0.094 C 
HETATM   15  C13 UNL     1       6.549  59.689   3.328  1.00  0.00    -0.106 C 
HETATM   16  C14 UNL     1       5.712  60.313   3.041  1.00  0.00    -0.101 C 
HETATM   17  C15 UNL     1       4.516  61.027   2.654  1.00  0.00     0.082 C 
BRANCH   4  18
HETATM   18  C2  UNL     1       2.801  63.572   1.931  1.00  0.00     0.114 C 
HETATM   19  C1  UNL     1       2.325  64.839   1.162  1.00  0.00     0.051 C 
HETATM   20 CL1  UNL     1       1.274  62.578   1.783  1.00  0.00    -0.102 Cl
HETATM   21 CL2  UNL     1       2.875  64.027   3.586  1.00  0.00    -0.102 Cl
ENDBRANCH   4  18
ENDBRANCH   1   3
BRANCH   1  22
HETATM   22  O1  UNL     1       7.013  61.602   0.693  1.00  0.00    -0.349 OA
ATOM     23  H1  UNL     1       7.585  60.948   1.076  1.00  0.00     0.219 HD
ENDBRANCH   1  22
BRANCH   2  24
HETATM   24  C19 UNL     1       8.479  63.155   2.033  1.00  0.00     0.151 C 
BRANCH  24  25
HETATM   25  C20 UNL     1       9.285  62.999   3.286  1.00  0.00     0.183 C 
BRANCH  25  26
HETATM   26  O2  UNL     1      10.074  64.085   3.583  1.00  0.00    -0.399 OA
ATOM     27  H2  UNL     1       9.947  64.427   4.459  1.00  0.00     0.209 HD
ENDBRANCH  25  26
ENDBRANCH  24  25
ENDBRANCH   2  24
BRANCH   2  28
HETATM   28  C21 UNL     1       6.617  63.911   3.396  1.00  0.00     0.227 C 
BRANCH  28  29
HETATM   29  C22 UNL     1       6.507  65.352   3.176  1.00  0.00     0.236 C 
HETATM   30  O3  UNL     1       5.525  65.863   2.626  1.00  0.00    -0.272 OA
HETATM   31  N2  UNL     1       7.543  66.218   3.596  1.00  0.00    -0.350 N 
ATOM     32  H2  UNL     1       8.357  65.804   4.050  1.00  0.00     0.163 HD
BRANCH  31  33
HETATM   33  C23 UNL     1       7.520  67.648   3.421  1.00  0.00     0.149 C 
HETATM   34  C24 UNL     1       8.711  68.191   2.696  1.00  0.00     0.141 C 
HETATM   35  C25 UNL     1       9.317  69.141   3.670  1.00  0.00     0.263 C 
HETATM   36  O4  UNL     1      10.126  70.094   3.397  1.00  0.00    -0.265 OA
HETATM   37  O5  UNL     1       8.834  68.792   4.923  1.00  0.00    -0.288 OA
HETATM   38  C26 UNL     1       7.469  68.393   4.731  1.00  0.00     0.289 C 
BRANCH  38  39
HETATM   39  O6  UNL     1       6.730  69.573   4.650  1.00  0.00    -0.369 OA
ATOM     40  H6  UNL     1       6.537  69.943   5.503  1.00  0.00     0.212 HD
ENDBRANCH  38  39
ENDBRANCH  31  33
ENDBRANCH  28  29
ENDBRANCH   2  28
TORSDOF 10
ENDMDL
MODEL 5
REMARK VINA RESULT: -7.722502667      2.194      4.127
REMARK  10 active torsions:
REMARK  status: ('A' for Active; 'I' for Inactive)
REMARK    1  A    between atoms: C2_2  and  C3_5 
REMARK    2  A    between atoms: C17_19  and  C18_20 
REMARK    3  A    between atoms: C18_20  and  O1_21 
REMARK    4  A    between atoms: N1_23  and  C19_24 
REMARK    5  A    between atoms: N1_23  and  C21_28 
REMARK    6  A    between atoms: C19_24  and  C20_25 
REMARK    7  A    between atoms: C20_25  and  O2_26 
REMARK    8  A    between atoms: C21_28  and  C22_29 
REMARK       I    between atoms: C22_29  and  N2_31 
REMARK    9  A    between atoms: N2_31  and  C23_33 
REMARK   10  A    between atoms: C26_38  and  O6_39 
ROOT
HETATM    1  C18 UNL     1       7.383  62.532   1.389  1.00  0.00     0.125 C 
HETATM    2  N1  UNL     1       8.652  62.999   1.508  1.00  0.00    -0.354 N 
ENDROOT
BRANCH   1   3
HETATM    3  C17 UNL     1       6.432  61.772   2.303  1.00  0.00     0.049 C 
HETATM    4  C3  UNL     1       6.190  60.394   1.924  1.00  0.00     0.042 C 
HETATM    5  C4  UNL     1       6.955  59.414   2.838  1.00  0.00     0.009 C 
HETATM    6  C5  UNL     1       7.070  60.238   4.104  1.00  0.00     0.006 C 
HETATM    7  C6  UNL     1       7.274  61.634   3.589  1.00  0.00     0.004 C 
HETATM    8  C7  UNL     1       7.219  62.699   4.576  1.00  0.00     0.010 C 
HETATM    9  C8  UNL     1       5.867  63.268   4.969  1.00  0.00    -0.013 C 
HETATM   10  C9  UNL     1       5.941  64.699   5.242  1.00  0.00     0.005 C 
HETATM   11  C16 UNL     1       4.829  62.697   4.066  1.00  0.00     0.023 C 
HETATM   12  C10 UNL     1       5.090  65.736   4.689  1.00  0.00     0.001 C 
HETATM   13  C11 UNL     1       5.852  66.941   4.069  1.00  0.00     0.012 C 
HETATM   14  C12 UNL     1       6.361  66.510   2.650  1.00  0.00     0.094 C 
HETATM   15  C13 UNL     1       6.036  65.122   2.504  1.00  0.00    -0.106 C 
HETATM   16  C14 UNL     1       5.754  64.077   2.487  1.00  0.00    -0.101 C 
HETATM   17  C15 UNL     1       5.319  62.702   2.592  1.00  0.00     0.082 C 
BRANCH   4  18
HETATM   18  C2  UNL     1       4.948  59.728   1.616  1.00  0.00     0.114 C 
HETATM   19  C1  UNL     1       4.796  59.761   0.067  1.00  0.00     0.051 C 
HETATM   20 CL1  UNL     1       5.030  57.915   1.838  1.00  0.00    -0.102 Cl
HETATM   21 CL2  UNL     1       3.417  60.183   2.248  1.00  0.00    -0.102 Cl
ENDBRANCH   4  18
ENDBRANCH   1   3
BRANCH   1  22
HETATM   22  O1  UNL     1       6.889  62.817   0.197  1.00  0.00    -0.349 OA
ATOM     23  H1  UNL     1       6.665  63.731   0.071  1.00  0.00     0.219 HD
ENDBRANCH   1  22
BRANCH   2  24
HETATM   24  C19 UNL     1       9.227  63.748   0.352  1.00  0.00     0.151 C 
BRANCH  24  25
HETATM   25  C20 UNL     1      10.428  63.048  -0.204  1.00  0.00     0.183 C 
BRANCH  25  26
HETATM   26  O2  UNL     1      11.582  63.793  -0.159  1.00  0.00    -0.399 OA
ATOM     27  H2  UNL     1      12.271  63.474  -0.729  1.00  0.00     0.209 HD
ENDBRANCH  25  26
ENDBRANCH  24  25
ENDBRANCH   2  24
BRANCH   2  28
HETATM   28  C21 UNL     1       9.550  62.857   2.587  1.00  0.00     0.227 C 
BRANCH  28  29
HETATM   29  C22 UNL     1      10.335  64.016   3.008  1.00  0.00     0.236 C 
HETATM   30  O3  UNL     1       9.808  65.067   3.388  1.00  0.00    -0.272 OA
HETATM   31  N2  UNL     1      11.748  63.964   2.992  1.00  0.00    -0.350 N 
ATOM     32  H2  UNL     1      12.191  63.100   2.680  1.00  0.00     0.163 HD
BRANCH  31  33
HETATM   33  C23 UNL     1      12.601  65.056   3.390  1.00  0.00     0.149 C 
HETATM   34  C24 UNL     1      14.034  64.670   3.576  1.00  0.00     0.141 C 
HETATM   35  C25 UNL     1      14.311  65.012   4.999  1.00  0.00     0.263 C 
HETATM   36  O4  UNL     1      15.463  65.196   5.525  1.00  0.00    -0.265 OA
HETATM   37  O5  UNL     1      13.081  65.092   5.639  1.00  0.00    -0.288 OA
HETATM   38  C26 UNL     1      12.175  65.680   4.695  1.00  0.00     0.289 C 
BRANCH  38  39
HETATM   39  O6  UNL     1      12.413  67.054   4.736  1.00  0.00    -0.369 OA
ATOM     40  H6  UNL     1      13.168  67.278   5.268  1.00  0.00     0.212 HD
ENDBRANCH  38  39
ENDBRANCH  31  33
ENDBRANCH  28  29
ENDBRANCH   2  28
TORSDOF 10
ENDMDL
