MODEL 1
REMARK VINA RESULT: -7.404415686      0.000      0.000
REMARK  7 active torsions:
REMARK  status: ('A' for Active; 'I' for Inactive)
REMARK    1  A    between atoms: N1_4  and  C3_5 
REMARK    2  A    between atoms: C3_5  and  C4_6 
REMARK    3  A    between atoms: C4_6  and  N2_7 
REMARK    4  A    between atoms: C6_9  and  C7_10 
REMARK    5  A    between atoms: C9_13  and  N3_14 
REMARK    6  A    between atoms: N3_14  and  C10_16 
REMARK    7  A    between atoms: C10_16  and  C11_17 
REMARK       I    between atoms: N4_20  and  C14_21 
ROOT
HETATM    1  N2  UNL     1       3.974  60.071   2.440  1.00  0.00    -0.340 N 
HETATM    2  C5  UNL     1       5.042  59.284   2.572  1.00  0.00     0.102 A 
HETATM    3  C6  UNL     1       6.133  60.008   3.071  1.00  0.00    -0.011 A 
HETATM    4  C8  UNL     1       5.681  61.302   3.245  1.00  0.00     0.061 A 
HETATM    5  C9  UNL     1       6.294  62.443   3.693  1.00  0.00     0.116 A 
HETATM    6  N6  UNL     1       5.589  63.576   3.744  1.00  0.00    -0.338 N 
ATOM      7  H6  UNL     1       6.037  64.430   4.076  1.00  0.00     0.168 HD
HETATM    8  C17 UNL     1       4.279  63.614   3.360  1.00  0.00     0.183 A 
HETATM    9  N7  UNL     1       3.703  62.482   2.925  1.00  0.00    -0.338 N 
ATOM     10  H7  UNL     1       2.724  62.519   2.641  1.00  0.00     0.168 HD
HETATM   11  C18 UNL     1       4.346  61.296   2.842  1.00  0.00     0.123 A 
ENDROOT
BRANCH   1  12
HETATM   12  C4  UNL     1       2.640  59.729   1.963  1.00  0.00     0.160 C 
BRANCH  12  13
HETATM   13  C3  UNL     1       2.565  59.998   0.472  1.00  0.00     0.295 C 
BRANCH  13  14
HETATM   14  N1  UNL     1       2.589  58.728  -0.202  1.00  0.00     0.117 N 
HETATM   15  C2  UNL     1       2.251  58.813  -1.592  1.00  0.00     0.263 C 
HETATM   16  C1  UNL     1       3.446  59.085  -2.453  1.00  0.00     0.071 C 
HETATM   17 CL1  UNL     1       1.025  60.056  -1.917  1.00  0.00    -0.082 Cl
HETATM   18  C21 UNL     1       1.699  57.437  -1.959  1.00  0.00     0.136 C 
HETATM   19  C20 UNL     1       1.719  56.660  -0.683  1.00  0.00     0.074 C 
HETATM   20  C22 UNL     1       0.293  57.587  -2.442  1.00  0.00     0.274 C 
HETATM   21  O2  UNL     1       2.526  56.798  -2.876  1.00  0.00    -0.373 OA
HETATM   22  C19 UNL     1       1.707  57.748   0.374  1.00  0.00     0.278 C 
HETATM   23  N8  UNL     1      -0.340  56.298  -2.615  1.00  0.00    -0.070 N 
HETATM   24  C23 UNL     1       0.606  55.397  -3.224  1.00  0.00     0.258 C 
ATOM     25  H82 UNL     1      -0.724  55.931  -1.745  1.00  0.00     0.277 HD
ATOM     26  H81 UNL     1      -1.214  56.359  -3.139  1.00  0.00     0.277 HD
HETATM   27  C24 UNL     1       1.775  56.163  -3.847  1.00  0.00     0.196 C 
ENDBRANCH  13  14
ENDBRANCH  12  13
ENDBRANCH   1  12
BRANCH   3  28
HETATM   28  C7  UNL     1       7.477  59.444   3.341  1.00  0.00     0.155 C 
HETATM   29 CL2  UNL     1       7.413  57.818   4.053  1.00  0.00    -0.125 Cl
ENDBRANCH   3  28
BRANCH   5  30
HETATM   30  N3  UNL     1       7.515  62.432   4.065  1.00  0.00    -0.375 N 
ATOM     31  H3  UNL     1       7.712  62.009   4.972  1.00  0.00     0.161 HD
BRANCH  30  32
HETATM   32  C10 UNL     1       8.631  62.948   3.349  1.00  0.00     0.126 C 
BRANCH  32  33
HETATM   33  C11 UNL     1       8.353  63.426   1.965  1.00  0.00     0.006 C 
HETATM   34  C12 UNL     1       9.253  62.635   1.023  1.00  0.00     0.026 C 
HETATM   35  C13 UNL     1      10.198  63.559   0.322  1.00  0.00     0.127 C 
HETATM   36  N4  UNL     1      10.880  64.391   1.285  1.00  0.00    -0.337 N 
HETATM   37  C14 UNL     1      12.293  64.464   1.383  1.00  0.00     0.330 C 
HETATM   38  C15 UNL     1      10.082  65.188   2.192  1.00  0.00     0.127 C 
HETATM   39  N5  UNL     1      12.951  65.274   2.319  1.00  0.00    -0.040 NA
HETATM   40  O1  UNL     1      12.964  63.771   0.593  1.00  0.00    -0.251 OA
HETATM   41  C16 UNL     1       8.638  64.905   1.866  1.00  0.00     0.026 C 
ENDBRANCH  32  33
ENDBRANCH  30  32
ENDBRANCH   5  30
TORSDOF 7
ENDMDL
MODEL 2
REMARK VINA RESULT: -7.390091969      2.707      3.880
REMARK  7 active torsions:
REMARK  status: ('A' for Active; 'I' for Inactive)
REMARK    1  A    between atoms: N1_4  and  C3_5 
REMARK    2  A    between atoms: C3_5  and  C4_6 
REMARK    3  A    between atoms: C4_6  and  N2_7 
REMARK    4  A    between atoms: C6_9  and  C7_10 
REMARK    5  A    between atoms: C9_13  and  N3_14 
REMARK    6  A    between atoms: N3_14  and  C10_16 
REMARK    7  A    between atoms: C10_16  and  C11_17 
REMARK       I    between atoms: N4_20  and  C14_21 
ROOT
HETATM    1  N2  UNL     1       6.657  62.000   0.067  1.00  0.00    -0.340 N 
HETATM    2  C5  UNL     1       6.736  61.330   1.216  1.00  0.00     0.102 A 
HETATM    3  C6  UNL     1       7.517  62.029   2.146  1.00  0.00    -0.011 A 
HETATM    4  C8  UNL     1       7.924  63.183   1.507  1.00  0.00     0.061 A 
HETATM    5  C9  UNL     1       8.703  64.237   1.909  1.00  0.00     0.116 A 
HETATM    6  N6  UNL     1       8.937  65.231   1.047  1.00  0.00    -0.338 N 
ATOM      7  H6  UNL     1       9.516  66.018   1.338  1.00  0.00     0.168 HD
HETATM    8  C17 UNL     1       8.416  65.214  -0.215  1.00  0.00     0.183 A 
HETATM    9  N7  UNL     1       7.655  64.170  -0.582  1.00  0.00    -0.338 N 
ATOM     10  H7  UNL     1       7.269  64.165  -1.526  1.00  0.00     0.168 HD
HETATM   11  C18 UNL     1       7.372  63.125   0.227  1.00  0.00     0.123 A 
ENDROOT
BRANCH   1  12
HETATM   12  C4  UNL     1       5.948  61.641  -1.155  1.00  0.00     0.160 C 
BRANCH  12  13
HETATM   13  C3  UNL     1       4.520  62.147  -1.063  1.00  0.00     0.295 C 
BRANCH  13  14
HETATM   14  N1  UNL     1       3.652  61.081  -1.481  1.00  0.00     0.117 N 
HETATM   15  C2  UNL     1       2.656  60.742  -0.508  1.00  0.00     0.263 C 
HETATM   16  C1  UNL     1       1.413  61.565  -0.656  1.00  0.00     0.071 C 
HETATM   17 CL1  UNL     1       3.250  60.908   1.158  1.00  0.00    -0.082 Cl
HETATM   18  C21 UNL     1       2.300  59.282  -0.785  1.00  0.00     0.136 C 
HETATM   19  C20 UNL     1       3.196  58.872  -1.908  1.00  0.00     0.074 C 
HETATM   20  C22 UNL     1       2.600  58.467   0.431  1.00  0.00     0.274 C 
HETATM   21  O2  UNL     1       0.981  59.164  -1.209  1.00  0.00    -0.373 OA
HETATM   22  C19 UNL     1       4.343  59.860  -1.800  1.00  0.00     0.278 C 
HETATM   23  N8  UNL     1       2.467  57.053   0.157  1.00  0.00    -0.070 N 
HETATM   24  C23 UNL     1       1.293  56.848  -0.654  1.00  0.00     0.258 C 
ATOM     25  H82 UNL     1       3.307  56.655  -0.264  1.00  0.00     0.277 HD
ATOM     26  H81 UNL     1       2.457  56.490   1.008  1.00  0.00     0.277 HD
HETATM   27  C24 UNL     1       0.376  58.073  -0.616  1.00  0.00     0.196 C 
ENDBRANCH  13  14
ENDBRANCH  12  13
ENDBRANCH   1  12
BRANCH   3  28
HETATM   28  C7  UNL     1       7.810  61.572   3.526  1.00  0.00     0.155 C 
HETATM   29 CL2  UNL     1       7.023  60.030   3.925  1.00  0.00    -0.125 Cl
ENDBRANCH   3  28
BRANCH   5  30
HETATM   30  N3  UNL     1       9.196  64.281   3.085  1.00  0.00    -0.375 N 
ATOM     31  H3  UNL     1       8.537  64.424   3.850  1.00  0.00     0.161 HD
BRANCH  30  32
HETATM   32  C10 UNL     1      10.567  64.152   3.443  1.00  0.00     0.126 C 
BRANCH  32  33
HETATM   33  C11 UNL     1      11.500  65.125   2.808  1.00  0.00     0.006 C 
HETATM   34  C12 UNL     1      12.845  64.426   2.650  1.00  0.00     0.026 C 
HETATM   35  C13 UNL     1      13.888  65.132   3.458  1.00  0.00     0.127 C 
HETATM   36  N4  UNL     1      13.428  65.303   4.816  1.00  0.00    -0.337 N 
HETATM   37  C14 UNL     1      14.153  64.837   5.942  1.00  0.00     0.330 C 
HETATM   38  C15 UNL     1      12.170  65.984   5.035  1.00  0.00     0.127 C 
HETATM   39  N5  UNL     1      13.703  65.006   7.260  1.00  0.00    -0.040 NA
HETATM   40  O1  UNL     1      15.235  64.254   5.734  1.00  0.00    -0.251 OA
HETATM   41  C16 UNL     1      11.631  66.353   3.677  1.00  0.00     0.026 C 
ENDBRANCH  32  33
ENDBRANCH  30  32
ENDBRANCH   5  30
TORSDOF 7
ENDMDL
MODEL 3
REMARK VINA RESULT: -7.360277321      2.712      3.660
REMARK  7 active torsions:
REMARK  status: ('A' for Active; 'I' for Inactive)
REMARK    1  A    between atoms: N1_4  and  C3_5 
REMARK    2  A    between atoms: C3_5  and  C4_6 
REMARK    3  A    between atoms: C4_6  and  N2_7 
REMARK    4  A    between atoms: C6_9  and  C7_10 
REMARK    5  A    between atoms: C9_13  and  N3_14 
REMARK    6  A    between atoms: N3_14  and  C10_16 
REMARK    7  A    between atoms: C10_16  and  C11_17 
REMARK       I    between atoms: N4_20  and  C14_21 
ROOT
HETATM    1  N2  UNL     1       6.295  61.371   0.806  1.00  0.00    -0.340 N 
HETATM    2  C5  UNL     1       6.927  62.188  -0.036  1.00  0.00     0.102 A 
HETATM    3  C6  UNL     1       7.787  63.049   0.659  1.00  0.00    -0.011 A 
HETATM    4  C8  UNL     1       7.654  62.719   1.994  1.00  0.00     0.061 A 
HETATM    5  C9  UNL     1       8.234  63.218   3.131  1.00  0.00     0.116 A 
HETATM    6  N6  UNL     1       7.895  62.693   4.311  1.00  0.00    -0.338 N 
ATOM      7  H6  UNL     1       8.321  63.059   5.162  1.00  0.00     0.168 HD
HETATM    8  C17 UNL     1       6.989  61.675   4.401  1.00  0.00     0.183 A 
HETATM    9  N7  UNL     1       6.437  61.205   3.271  1.00  0.00    -0.338 N 
ATOM     10  H7  UNL     1       5.762  60.444   3.346  1.00  0.00     0.168 HD
HETATM   11  C18 UNL     1       6.725  61.681   2.039  1.00  0.00     0.123 A 
ENDROOT
BRANCH   1  12
HETATM   12  C4  UNL     1       5.324  60.325   0.510  1.00  0.00     0.160 C 
BRANCH  12  13
HETATM   13  C3  UNL     1       3.966  60.964   0.280  1.00  0.00     0.295 C 
BRANCH  13  14
HETATM   14  N1  UNL     1       3.555  60.646  -1.060  1.00  0.00     0.117 N 
HETATM   15  C2  UNL     1       2.300  59.959  -1.124  1.00  0.00     0.263 C 
HETATM   16  C1  UNL     1       1.138  60.902  -1.188  1.00  0.00     0.071 C 
HETATM   17 CL1  UNL     1       2.059  58.857   0.248  1.00  0.00    -0.082 Cl
HETATM   18  C21 UNL     1       2.341  59.161  -2.425  1.00  0.00     0.136 C 
HETATM   19  C20 UNL     1       3.695  59.427  -2.999  1.00  0.00     0.074 C 
HETATM   20  C22 UNL     1       2.197  57.707  -2.112  1.00  0.00     0.274 C 
HETATM   21  O2  UNL     1       1.385  59.622  -3.323  1.00  0.00    -0.373 OA
HETATM   22  C19 UNL     1       4.501  59.836  -1.781  1.00  0.00     0.278 C 
HETATM   23  N8  UNL     1       2.427  56.894  -3.286  1.00  0.00    -0.070 N 
HETATM   24  C23 UNL     1       1.783  57.520  -4.414  1.00  0.00     0.258 C 
ATOM     25  H82 UNL     1       3.417  56.716  -3.451  1.00  0.00     0.277 HD
ATOM     26  H81 UNL     1       2.131  55.926  -3.156  1.00  0.00     0.277 HD
HETATM   27  C24 UNL     1       0.762  58.564  -3.956  1.00  0.00     0.196 C 
ENDBRANCH  13  14
ENDBRANCH  12  13
ENDBRANCH   1  12
BRANCH   3  28
HETATM   28  C7  UNL     1       8.644  64.084   0.033  1.00  0.00     0.155 C 
HETATM   29 CL2  UNL     1      10.284  63.500  -0.323  1.00  0.00    -0.125 Cl
ENDBRANCH   3  28
BRANCH   5  30
HETATM   30  N3  UNL     1       9.089  64.164   3.074  1.00  0.00    -0.375 N 
ATOM     31  H3  UNL     1       8.748  65.067   2.743  1.00  0.00     0.161 HD
BRANCH  30  32
HETATM   32  C10 UNL     1      10.466  64.095   3.424  1.00  0.00     0.126 C 
BRANCH  32  33
HETATM   33  C11 UNL     1      11.361  65.073   2.744  1.00  0.00     0.006 C 
HETATM   34  C12 UNL     1      12.714  64.397   2.558  1.00  0.00     0.026 C 
HETATM   35  C13 UNL     1      13.766  65.138   3.321  1.00  0.00     0.127 C 
HETATM   36  N4  UNL     1      13.344  65.325   4.689  1.00  0.00    -0.337 N 
HETATM   37  C14 UNL     1      14.110  64.894   5.802  1.00  0.00     0.330 C 
HETATM   38  C15 UNL     1      12.080  65.986   4.934  1.00  0.00     0.127 C 
HETATM   39  N5  UNL     1      13.697  65.078   7.129  1.00  0.00    -0.040 NA
HETATM   40  O1  UNL     1      15.197  64.328   5.572  1.00  0.00    -0.251 OA
HETATM   41  C16 UNL     1      11.494  66.319   3.587  1.00  0.00     0.026 C 
ENDBRANCH  32  33
ENDBRANCH  30  32
ENDBRANCH   5  30
TORSDOF 7
ENDMDL
MODEL 4
REMARK VINA RESULT: -7.353176158      4.567     10.682
REMARK  7 active torsions:
REMARK  status: ('A' for Active; 'I' for Inactive)
REMARK    1  A    between atoms: N1_4  and  C3_5 
REMARK    2  A    between atoms: C3_5  and  C4_6 
REMARK    3  A    between atoms: C4_6  and  N2_7 
REMARK    4  A    between atoms: C6_9  and  C7_10 
REMARK    5  A    between atoms: C9_13  and  N3_14 
REMARK    6  A    between atoms: N3_14  and  C10_16 
REMARK    7  A    between atoms: C10_16  and  C11_17 
REMARK       I    between atoms: N4_20  and  C14_21 
ROOT
HETATM    1  N2  UNL     1       6.218  59.411   2.518  1.00  0.00    -0.340 N 
HETATM    2  C5  UNL     1       5.001  59.318   1.982  1.00  0.00     0.102 A 
HETATM    3  C6  UNL     1       4.404  58.095   2.315  1.00  0.00    -0.011 A 
HETATM    4  C8  UNL     1       5.325  57.425   3.097  1.00  0.00     0.061 A 
HETATM    5  C9  UNL     1       5.302  56.195   3.702  1.00  0.00     0.116 A 
HETATM    6  N6  UNL     1       6.369  55.803   4.403  1.00  0.00    -0.338 N 
ATOM      7  H6  UNL     1       6.361  54.889   4.856  1.00  0.00     0.168 HD
HETATM    8  C17 UNL     1       7.470  56.601   4.526  1.00  0.00     0.183 A 
HETATM    9  N7  UNL     1       7.465  57.801   3.924  1.00  0.00    -0.338 N 
ATOM     10  H7  UNL     1       8.291  58.391   4.021  1.00  0.00     0.168 HD
HETATM   11  C18 UNL     1       6.428  58.272   3.196  1.00  0.00     0.123 A 
ENDROOT
BRANCH   1  12
HETATM   12  C4  UNL     1       7.176  60.506   2.429  1.00  0.00     0.160 C 
BRANCH  12  13
HETATM   13  C3  UNL     1       6.710  61.483   1.366  1.00  0.00     0.295 C 
BRANCH  13  14
HETATM   14  N1  UNL     1       6.656  62.788   1.966  1.00  0.00     0.117 N 
HETATM   15  C2  UNL     1       7.529  63.739   1.344  1.00  0.00     0.263 C 
HETATM   16  C1  UNL     1       6.878  64.443   0.194  1.00  0.00     0.071 C 
HETATM   17 CL1  UNL     1       9.040  63.000   0.773  1.00  0.00    -0.082 Cl
HETATM   18  C21 UNL     1       7.838  64.772   2.426  1.00  0.00     0.136 C 
HETATM   19  C20 UNL     1       7.128  64.280   3.644  1.00  0.00     0.074 C 
HETATM   20  C22 UNL     1       9.312  64.798   2.670  1.00  0.00     0.274 C 
HETATM   21  O2  UNL     1       7.320  66.017   2.087  1.00  0.00    -0.373 OA
HETATM   22  C19 UNL     1       6.976  62.796   3.369  1.00  0.00     0.278 C 
HETATM   23  N8  UNL     1       9.637  65.615   3.819  1.00  0.00    -0.070 N 
HETATM   24  C23 UNL     1       8.827  66.807   3.781  1.00  0.00     0.258 C 
ATOM     25  H82 UNL     1       9.543  65.107   4.699  1.00  0.00     0.277 HD
ATOM     26  H81 UNL     1      10.634  65.822   3.883  1.00  0.00     0.277 HD
HETATM   27  C24 UNL     1       8.221  67.018   2.392  1.00  0.00     0.196 C 
ENDBRANCH  13  14
ENDBRANCH  12  13
ENDBRANCH   1  12
BRANCH   3  28
HETATM   28  C7  UNL     1       3.052  57.664   1.887  1.00  0.00     0.155 C 
HETATM   29 CL2  UNL     1       1.814  58.913   2.144  1.00  0.00    -0.125 Cl
ENDBRANCH   3  28
BRANCH   5  30
HETATM   30  N3  UNL     1       4.283  55.433   3.608  1.00  0.00    -0.375 N 
ATOM     31  H3  UNL     1       3.709  55.541   2.772  1.00  0.00     0.161 HD
BRANCH  30  32
HETATM   32  C10 UNL     1       3.861  54.449   4.546  1.00  0.00     0.126 C 
BRANCH  32  33
HETATM   33  C11 UNL     1       2.564  54.714   5.229  1.00  0.00     0.006 C 
HETATM   34  C12 UNL     1       2.317  53.562   6.196  1.00  0.00     0.026 C 
HETATM   35  C13 UNL     1       1.076  52.823   5.806  1.00  0.00     0.127 C 
HETATM   36  N4  UNL     1       1.133  52.465   4.409  1.00  0.00    -0.337 N 
HETATM   37  C14 UNL     1       0.996  51.132   3.945  1.00  0.00     0.330 C 
HETATM   38  C15 UNL     1       1.338  53.519   3.437  1.00  0.00     0.127 C 
HETATM   39  N5  UNL     1       1.051  50.789   2.586  1.00  0.00    -0.040 NA
HETATM   40  O1  UNL     1       0.819  50.238   4.796  1.00  0.00    -0.251 OA
HETATM   41  C16 UNL     1       1.455  54.807   4.209  1.00  0.00     0.026 C 
ENDBRANCH  32  33
ENDBRANCH  30  32
ENDBRANCH   5  30
TORSDOF 7
ENDMDL
MODEL 5
REMARK VINA RESULT: -7.352535398      2.440      3.185
REMARK  7 active torsions:
REMARK  status: ('A' for Active; 'I' for Inactive)
REMARK    1  A    between atoms: N1_4  and  C3_5 
REMARK    2  A    between atoms: C3_5  and  C4_6 
REMARK    3  A    between atoms: C4_6  and  N2_7 
REMARK    4  A    between atoms: C6_9  and  C7_10 
REMARK    5  A    between atoms: C9_13  and  N3_14 
REMARK    6  A    between atoms: N3_14  and  C10_16 
REMARK    7  A    between atoms: C10_16  and  C11_17 
REMARK       I    between atoms: N4_20  and  C14_21 
ROOT
HETATM    1  N2  UNL     1       5.914  60.419   1.641  1.00  0.00    -0.340 N 
HETATM    2  C5  UNL     1       6.107  60.454   2.960  1.00  0.00     0.102 A 
HETATM    3  C6  UNL     1       6.916  61.541   3.314  1.00  0.00    -0.011 A 
HETATM    4  C8  UNL     1       7.220  62.189   2.133  1.00  0.00     0.061 A 
HETATM    5  C9  UNL     1       7.972  63.300   1.855  1.00  0.00     0.116 A 
HETATM    6  N6  UNL     1       8.096  63.693   0.584  1.00  0.00    -0.338 N 
ATOM      7  H6  UNL     1       8.655  64.518   0.368  1.00  0.00     0.168 HD
HETATM    8  C17 UNL     1       7.489  63.011  -0.432  1.00  0.00     0.183 A 
HETATM    9  N7  UNL     1       6.757  61.927  -0.131  1.00  0.00    -0.338 N 
ATOM     10  H7  UNL     1       6.306  61.424  -0.895  1.00  0.00     0.168 HD
HETATM   11  C18 UNL     1       6.583  61.463   1.127  1.00  0.00     0.123 A 
ENDROOT
BRANCH   1  12
HETATM   12  C4  UNL     1       5.140  59.467   0.854  1.00  0.00     0.160 C 
BRANCH  12  13
HETATM   13  C3  UNL     1       3.700  59.941   0.785  1.00  0.00     0.295 C 
BRANCH  13  14
HETATM   14  N1  UNL     1       3.327  60.001  -0.602  1.00  0.00     0.117 N 
HETATM   15  C2  UNL     1       2.161  59.230  -0.913  1.00  0.00     0.263 C 
HETATM   16  C1  UNL     1       0.896  60.010  -0.728  1.00  0.00     0.071 C 
HETATM   17 CL1  UNL     1       2.053  57.743   0.052  1.00  0.00    -0.082 Cl
HETATM   18  C21 UNL     1       2.293  58.875  -2.393  1.00  0.00     0.136 C 
HETATM   19  C20 UNL     1       3.605  59.453  -2.813  1.00  0.00     0.074 C 
HETATM   20  C22 UNL     1       2.322  57.388  -2.538  1.00  0.00     0.274 C 
HETATM   21  O2  UNL     1       1.288  59.477  -3.141  1.00  0.00    -0.373 OA
HETATM   22  C19 UNL     1       4.360  59.561  -1.501  1.00  0.00     0.278 C 
HETATM   23  N8  UNL     1       2.643  57.001  -3.895  1.00  0.00    -0.070 N 
HETATM   24  C23 UNL     1       1.929  57.864  -4.801  1.00  0.00     0.258 C 
ATOM     25  H82 UNL     1       3.647  56.995  -4.072  1.00  0.00     0.277 HD
ATOM     26  H81 UNL     1       2.463  56.013  -4.072  1.00  0.00     0.277 HD
HETATM   27  C24 UNL     1       0.793  58.598  -4.085  1.00  0.00     0.196 C 
ENDBRANCH  13  14
ENDBRANCH  12  13
ENDBRANCH   1  12
BRANCH   3  28
HETATM   28  C7  UNL     1       7.328  61.880   4.698  1.00  0.00     0.155 C 
HETATM   29 CL2  UNL     1       6.207  63.002   5.497  1.00  0.00    -0.125 Cl
ENDBRANCH   3  28
BRANCH   5  30
HETATM   30  N3  UNL     1       8.544  63.959   2.786  1.00  0.00    -0.375 N 
ATOM     31  H3  UNL     1       7.942  64.538   3.371  1.00  0.00     0.161 HD
BRANCH  30  32
HETATM   32  C10 UNL     1       9.933  63.972   3.096  1.00  0.00     0.126 C 
BRANCH  32  33
HETATM   33  C11 UNL     1      10.775  64.887   2.276  1.00  0.00     0.006 C 
HETATM   34  C12 UNL     1      12.134  64.219   2.102  1.00  0.00     0.026 C 
HETATM   35  C13 UNL     1      13.201  65.056   2.732  1.00  0.00     0.127 C 
HETATM   36  N4  UNL     1      12.835  65.382   4.090  1.00  0.00    -0.337 N 
HETATM   37  C14 UNL     1      13.658  65.087   5.206  1.00  0.00     0.330 C 
HETATM   38  C15 UNL     1      11.568  66.043   4.320  1.00  0.00     0.127 C 
HETATM   39  N5  UNL     1      13.298  65.406   6.523  1.00  0.00    -0.040 NA
HETATM   40  O1  UNL     1      14.746  64.518   4.989  1.00  0.00    -0.251 OA
HETATM   41  C16 UNL     1      10.916  66.218   2.973  1.00  0.00     0.026 C 
ENDBRANCH  32  33
ENDBRANCH  30  32
ENDBRANCH   5  30
TORSDOF 7
ENDMDL
