MODEL 1
REMARK VINA RESULT: -8.649645006      0.000      0.000
REMARK  8 active torsions:
REMARK  status: ('A' for Active; 'I' for Inactive)
REMARK    1  A    between atoms: C2_2  and  N1_3 
REMARK    2  A    between atoms: N1_3  and  C3_5 
REMARK    3  A    between atoms: C4_8  and  N3_9 
REMARK    4  A    between atoms: N3_9  and  C5_11 
REMARK    5  A    between atoms: N4_14  and  C8_15 
REMARK    6  A    between atoms: C9_18  and  N6_19 
REMARK    7  A    between atoms: N6_19  and  C10_20 
REMARK    8  A    between atoms: C13_23  and  N7_24 
ROOT
HETATM    1  C5  UNL     1       9.672  67.450   4.543  1.00  0.00     0.118 C 
HETATM    2  C6  UNL     1      10.079  67.568   3.110  1.00  0.00     0.047 C 
HETATM    3  C7  UNL     1       8.820  67.457   2.313  1.00  0.00     0.126 C 
HETATM    4  N4  UNL     1       7.900  66.762   3.173  1.00  0.00    -0.364 N 
HETATM    5  C20 UNL     1       8.229  67.054   4.552  1.00  0.00     0.150 C 
ENDROOT
BRANCH   4   6
HETATM    6  C8  UNL     1       6.819  65.898   2.815  1.00  0.00     0.126 A 
HETATM    7  N5  UNL     1       7.038  64.593   2.611  1.00  0.00    -0.301 N 
HETATM    8  C9  UNL     1       6.019  63.732   2.276  1.00  0.00     0.255 A 
ATOM      9  H5  UNL     1       7.985  64.227   2.706  1.00  0.00     0.171 HD
HETATM   10  N8  UNL     1       4.787  64.250   2.158  1.00  0.00    -0.325 N 
HETATM   11  C18 UNL     1       4.529  65.562   2.357  1.00  0.00     0.115 A 
ATOM     12  H8  UNL     1       4.016  63.630   1.909  1.00  0.00     0.169 HD
HETATM   13  C19 UNL     1       5.543  66.402   2.688  1.00  0.00     0.070 A 
HETATM   14 BR1  UNL     1       5.226  68.275   2.979  1.00  0.00    -0.046 Br
BRANCH   8  15
HETATM   15  N6  UNL     1       6.270  62.570   2.114  1.00  0.00    -0.410 NA
BRANCH  15  16
HETATM   16  C10 UNL     1       6.106  61.245   1.946  1.00  0.00     0.167 C 
HETATM   17  C11 UNL     1       7.370  60.440   2.221  1.00  0.00     0.041 C 
HETATM   18  C12 UNL     1       7.296  59.996   3.658  1.00  0.00     0.038 C 
HETATM   19  C13 UNL     1       6.316  58.862   3.816  1.00  0.00     0.222 C 
HETATM   20  C16 UNL     1       5.108  59.192   2.941  1.00  0.00     0.038 C 
HETATM   21  C17 UNL     1       4.937  60.657   2.736  1.00  0.00     0.041 C 
BRANCH  19  22
HETATM   22  N7  UNL     1       6.814  57.595   3.421  1.00  0.00     0.084 N 
HETATM   23  C14 UNL     1       5.821  56.943   2.590  1.00  0.00     0.309 C 
HETATM   24  C15 UNL     1       7.140  56.693   4.482  1.00  0.00     0.309 C 
ENDBRANCH  19  22
ENDBRANCH  15  16
ENDBRANCH   8  15
ENDBRANCH   4   6
BRANCH   1  25
HETATM   25  N3  UNL     1      10.507  66.535   5.280  1.00  0.00    -0.220 N 
ATOM     26  H3  UNL     1      10.244  66.334   6.244  1.00  0.00     0.178 HD
BRANCH  25  27
HETATM   27  C4  UNL     1      11.554  65.953   4.821  1.00  0.00     0.679 A 
HETATM   28  N2  UNL     1      11.607  65.364   3.613  1.00  0.00    -0.175 N 
HETATM   29  C3  UNL     1      12.720  64.754   3.143  1.00  0.00     0.140 A 
ATOM     30  H2  UNL     1      10.773  65.379   3.026  1.00  0.00     0.186 HD
HETATM   31  C22 UNL     1      13.821  64.749   3.951  1.00  0.00     0.094 A 
HETATM   32  C21 UNL     1      13.796  65.350   5.208  1.00  0.00     0.133 A 
HETATM   33 CL1  UNL     1      15.339  64.009   3.500  1.00  0.00    -0.079 Cl
HETATM   34  N9  UNL     1      12.656  65.944   5.620  1.00  0.00    -0.200 N 
ATOM     35  H9  UNL     1      12.619  66.388   6.537  1.00  0.00     0.183 HD
BRANCH  29  36
HETATM   36  N1  UNL     1      12.693  64.227   2.005  1.00  0.00    -0.375 N 
ATOM     37  H1  UNL     1      13.493  63.621   1.824  1.00  0.00     0.161 HD
BRANCH  36  38
HETATM   38  C2  UNL     1      11.792  64.295   0.926  1.00  0.00     0.116 C 
HETATM   39  C1  UNL     1      11.246  62.863   0.718  1.00  0.00     0.026 C 
ENDBRANCH  36  38
ENDBRANCH  29  36
ENDBRANCH  25  27
ENDBRANCH   1  25
TORSDOF 8
ENDMDL
MODEL 2
REMARK VINA RESULT: -8.625037873      2.819      4.006
REMARK  8 active torsions:
REMARK  status: ('A' for Active; 'I' for Inactive)
REMARK    1  A    between atoms: C2_2  and  N1_3 
REMARK    2  A    between atoms: N1_3  and  C3_5 
REMARK    3  A    between atoms: C4_8  and  N3_9 
REMARK    4  A    between atoms: N3_9  and  C5_11 
REMARK    5  A    between atoms: N4_14  and  C8_15 
REMARK    6  A    between atoms: C9_18  and  N6_19 
REMARK    7  A    between atoms: N6_19  and  C10_20 
REMARK    8  A    between atoms: C13_23  and  N7_24 
ROOT
HETATM    1  C5  UNL     1      12.272  65.232   1.240  1.00  0.00     0.118 C 
HETATM    2  C6  UNL     1      12.521  64.809  -0.171  1.00  0.00     0.047 C 
HETATM    3  C7  UNL     1      11.174  64.650  -0.798  1.00  0.00     0.126 C 
HETATM    4  N4  UNL     1      10.278  64.432   0.306  1.00  0.00    -0.364 N 
HETATM    5  C20 UNL     1      10.800  65.099   1.478  1.00  0.00     0.150 C 
ENDROOT
BRANCH   4   6
HETATM    6  C8  UNL     1       9.059  63.685   0.334  1.00  0.00     0.126 A 
HETATM    7  N5  UNL     1       8.781  62.886   1.372  1.00  0.00    -0.301 N 
HETATM    8  C9  UNL     1       7.613  62.163   1.437  1.00  0.00     0.255 A 
ATOM      9  H5  UNL     1       9.453  62.812   2.136  1.00  0.00     0.171 HD
HETATM   10  N8  UNL     1       6.755  62.285   0.413  1.00  0.00    -0.325 N 
HETATM   11  C18 UNL     1       7.002  63.081  -0.651  1.00  0.00     0.115 A 
ATOM     12  H8  UNL     1       5.883  61.756   0.438  1.00  0.00     0.169 HD
HETATM   13  C19 UNL     1       8.158  63.791  -0.703  1.00  0.00     0.070 A 
HETATM   14 BR1  UNL     1       8.555  64.935  -2.195  1.00  0.00    -0.046 Br
BRANCH   8  15
HETATM   15  N6  UNL     1       7.411  61.471   2.395  1.00  0.00    -0.410 NA
BRANCH  15  16
HETATM   16  C10 UNL     1       6.879  60.526   3.192  1.00  0.00     0.167 C 
HETATM   17  C11 UNL     1       5.466  60.123   2.793  1.00  0.00     0.041 C 
HETATM   18  C12 UNL     1       5.597  58.917   1.900  1.00  0.00     0.038 C 
HETATM   19  C13 UNL     1       5.918  57.687   2.710  1.00  0.00     0.222 C 
HETATM   20  C16 UNL     1       6.937  58.103   3.768  1.00  0.00     0.038 C 
HETATM   21  C17 UNL     1       7.749  59.278   3.344  1.00  0.00     0.041 C 
BRANCH  19  22
HETATM   22  N7  UNL     1       4.805  57.110   3.372  1.00  0.00     0.084 N 
HETATM   23  C14 UNL     1       5.165  55.776   3.813  1.00  0.00     0.309 C 
HETATM   24  C15 UNL     1       3.608  56.995   2.599  1.00  0.00     0.309 C 
ENDBRANCH  19  22
ENDBRANCH  15  16
ENDBRANCH   8  15
ENDBRANCH   4   6
BRANCH   1  25
HETATM   25  N3  UNL     1      13.060  64.484   2.187  1.00  0.00    -0.220 N 
ATOM     26  H3  UNL     1      13.518  63.638   1.851  1.00  0.00     0.178 HD
BRANCH  25  27
HETATM   27  C4  UNL     1      13.231  64.797   3.420  1.00  0.00     0.679 A 
HETATM   28  N2  UNL     1      14.298  64.414   4.143  1.00  0.00    -0.175 N 
HETATM   29  C3  UNL     1      14.464  64.752   5.443  1.00  0.00     0.140 A 
ATOM     30  H2  UNL     1      15.014  63.844   3.691  1.00  0.00     0.186 HD
HETATM   31  C22 UNL     1      13.489  65.514   6.021  1.00  0.00     0.094 A 
HETATM   32  C21 UNL     1      12.371  65.926   5.298  1.00  0.00     0.133 A 
HETATM   33 CL1  UNL     1      13.546  66.041   7.687  1.00  0.00    -0.079 Cl
HETATM   34  N9  UNL     1      12.264  65.556   4.004  1.00  0.00    -0.200 N 
ATOM     35  H9  UNL     1      11.452  65.849   3.460  1.00  0.00     0.183 HD
BRANCH  29  36
HETATM   36  N1  UNL     1      15.487  64.357   6.050  1.00  0.00    -0.375 N 
ATOM     37  H1  UNL     1      16.348  64.496   5.520  1.00  0.00     0.161 HD
BRANCH  36  38
HETATM   38  C2  UNL     1      15.701  63.762   7.308  1.00  0.00     0.116 C 
HETATM   39  C1  UNL     1      16.489  62.457   7.050  1.00  0.00     0.026 C 
ENDBRANCH  36  38
ENDBRANCH  29  36
ENDBRANCH  25  27
ENDBRANCH   1  25
TORSDOF 8
ENDMDL
MODEL 3
REMARK VINA RESULT: -8.511581938      0.905      2.226
REMARK  8 active torsions:
REMARK  status: ('A' for Active; 'I' for Inactive)
REMARK    1  A    between atoms: C2_2  and  N1_3 
REMARK    2  A    between atoms: N1_3  and  C3_5 
REMARK    3  A    between atoms: C4_8  and  N3_9 
REMARK    4  A    between atoms: N3_9  and  C5_11 
REMARK    5  A    between atoms: N4_14  and  C8_15 
REMARK    6  A    between atoms: C9_18  and  N6_19 
REMARK    7  A    between atoms: N6_19  and  C10_20 
REMARK    8  A    between atoms: C13_23  and  N7_24 
ROOT
HETATM    1  C5  UNL     1       9.830  67.455   4.528  1.00  0.00     0.118 C 
HETATM    2  C6  UNL     1      10.279  67.442   3.103  1.00  0.00     0.047 C 
HETATM    3  C7  UNL     1       9.040  67.296   2.282  1.00  0.00     0.126 C 
HETATM    4  N4  UNL     1       8.078  66.698   3.170  1.00  0.00    -0.364 N 
HETATM    5  C20 UNL     1       8.377  67.097   4.528  1.00  0.00     0.150 C 
ENDROOT
BRANCH   4   6
HETATM    6  C8  UNL     1       6.984  65.834   2.853  1.00  0.00     0.126 A 
HETATM    7  N5  UNL     1       7.193  64.527   2.652  1.00  0.00    -0.301 N 
HETATM    8  C9  UNL     1       6.162  63.666   2.357  1.00  0.00     0.255 A 
ATOM      9  H5  UNL     1       8.142  64.160   2.719  1.00  0.00     0.171 HD
HETATM   10  N8  UNL     1       4.928  64.186   2.276  1.00  0.00    -0.325 N 
HETATM   11  C18 UNL     1       4.680  65.500   2.473  1.00  0.00     0.115 A 
ATOM     12  H8  UNL     1       4.148  63.566   2.056  1.00  0.00     0.169 HD
HETATM   13  C19 UNL     1       5.706  66.340   2.765  1.00  0.00     0.070 A 
HETATM   14 BR1  UNL     1       5.403  68.216   3.052  1.00  0.00    -0.046 Br
BRANCH   8  15
HETATM   15  N6  UNL     1       6.405  62.503   2.196  1.00  0.00    -0.410 NA
BRANCH  15  16
HETATM   16  C10 UNL     1       6.233  61.184   1.988  1.00  0.00     0.167 C 
HETATM   17  C11 UNL     1       7.449  60.349   2.366  1.00  0.00     0.041 C 
HETATM   18  C12 UNL     1       7.228  59.881   3.781  1.00  0.00     0.038 C 
HETATM   19  C13 UNL     1       6.216  58.766   3.823  1.00  0.00     0.222 C 
HETATM   20  C16 UNL     1       5.105  59.135   2.843  1.00  0.00     0.038 C 
HETATM   21  C17 UNL     1       4.982  60.607   2.650  1.00  0.00     0.041 C 
BRANCH  19  22
HETATM   22  N7  UNL     1       6.726  57.495   3.453  1.00  0.00     0.084 N 
HETATM   23  C14 UNL     1       5.722  56.801   2.669  1.00  0.00     0.309 C 
HETATM   24  C15 UNL     1       7.096  56.632   4.531  1.00  0.00     0.309 C 
ENDBRANCH  19  22
ENDBRANCH  15  16
ENDBRANCH   8  15
ENDBRANCH   4   6
BRANCH   1  25
HETATM   25  N3  UNL     1      10.620  66.585   5.363  1.00  0.00    -0.220 N 
ATOM     26  H3  UNL     1      10.289  66.421   6.313  1.00  0.00     0.178 HD
BRANCH  25  27
HETATM   27  C4  UNL     1      11.705  66.000   5.007  1.00  0.00     0.679 A 
HETATM   28  N2  UNL     1      12.774  65.865   5.811  1.00  0.00    -0.175 N 
HETATM   29  C3  UNL     1      13.913  65.245   5.421  1.00  0.00     0.140 A 
ATOM     30  H2  UNL     1      12.724  66.244   6.757  1.00  0.00     0.186 HD
HETATM   31  C22 UNL     1      13.950  64.748   4.149  1.00  0.00     0.094 A 
HETATM   32  C21 UNL     1      12.859  64.874   3.292  1.00  0.00     0.133 A 
HETATM   33 CL1  UNL     1      15.338  63.918   3.485  1.00  0.00    -0.079 Cl
HETATM   34  N9  UNL     1      11.751  65.502   3.741  1.00  0.00    -0.200 N 
ATOM     35  H9  UNL     1      10.943  65.603   3.127  1.00  0.00     0.183 HD
BRANCH  29  36
HETATM   36  N1  UNL     1      14.867  65.157   6.228  1.00  0.00    -0.375 N 
ATOM     37  H1  UNL     1      15.690  65.686   5.937  1.00  0.00     0.161 HD
BRANCH  36  38
HETATM   38  C2  UNL     1      15.045  64.485   7.452  1.00  0.00     0.116 C 
HETATM   39  C1  UNL     1      15.922  63.248   7.151  1.00  0.00     0.026 C 
ENDBRANCH  36  38
ENDBRANCH  29  36
ENDBRANCH  25  27
ENDBRANCH   1  25
TORSDOF 8
ENDMDL
MODEL 4
REMARK VINA RESULT: -8.465337794      3.023      5.003
REMARK  8 active torsions:
REMARK  status: ('A' for Active; 'I' for Inactive)
REMARK    1  A    between atoms: C2_2  and  N1_3 
REMARK    2  A    between atoms: N1_3  and  C3_5 
REMARK    3  A    between atoms: C4_8  and  N3_9 
REMARK    4  A    between atoms: N3_9  and  C5_11 
REMARK    5  A    between atoms: N4_14  and  C8_15 
REMARK    6  A    between atoms: C9_18  and  N6_19 
REMARK    7  A    between atoms: N6_19  and  C10_20 
REMARK    8  A    between atoms: C13_23  and  N7_24 
ROOT
HETATM    1  C5  UNL     1      11.096  67.316   4.100  1.00  0.00     0.118 C 
HETATM    2  C6  UNL     1      11.945  66.345   4.854  1.00  0.00     0.047 C 
HETATM    3  C7  UNL     1      12.106  65.158   3.962  1.00  0.00     0.126 C 
HETATM    4  N4  UNL     1      10.985  65.219   3.062  1.00  0.00    -0.364 N 
HETATM    5  C20 UNL     1      10.596  66.602   2.885  1.00  0.00     0.150 C 
ENDROOT
BRANCH   4   6
HETATM    6  C8  UNL     1      10.298  64.146   2.413  1.00  0.00     0.126 A 
HETATM    7  N5  UNL     1       9.353  63.458   3.066  1.00  0.00    -0.301 N 
HETATM    8  C9  UNL     1       8.666  62.427   2.469  1.00  0.00     0.255 A 
ATOM      9  H5  UNL     1       9.137  63.704   4.031  1.00  0.00     0.171 HD
HETATM   10  N8  UNL     1       8.979  62.131   1.198  1.00  0.00    -0.325 N 
HETATM   11  C18 UNL     1       9.928  62.804   0.509  1.00  0.00     0.115 A 
ATOM     12  H8  UNL     1       8.484  61.369   0.735  1.00  0.00     0.169 HD
HETATM   13  C19 UNL     1      10.598  63.821   1.109  1.00  0.00     0.070 A 
HETATM   14 BR1  UNL     1      11.956  64.806   0.170  1.00  0.00    -0.046 Br
BRANCH   8  15
HETATM   15  N6  UNL     1       7.822  61.851   3.097  1.00  0.00    -0.410 NA
BRANCH  15  16
HETATM   16  C10 UNL     1       7.041  60.862   3.569  1.00  0.00     0.167 C 
HETATM   17  C11 UNL     1       5.650  60.842   2.950  1.00  0.00     0.041 C 
HETATM   18  C12 UNL     1       5.706  59.881   1.791  1.00  0.00     0.038 C 
HETATM   19  C13 UNL     1       5.712  58.456   2.280  1.00  0.00     0.222 C 
HETATM   20  C16 UNL     1       6.629  58.407   3.500  1.00  0.00     0.038 C 
HETATM   21  C17 UNL     1       7.670  59.472   3.472  1.00  0.00     0.041 C 
BRANCH  19  22
HETATM   22  N7  UNL     1       4.440  57.961   2.665  1.00  0.00     0.084 N 
HETATM   23  C14 UNL     1       4.600  56.614   3.178  1.00  0.00     0.309 C 
HETATM   24  C15 UNL     1       3.451  57.909   1.634  1.00  0.00     0.309 C 
ENDBRANCH  19  22
ENDBRANCH  15  16
ENDBRANCH   8  15
ENDBRANCH   4   6
BRANCH   1  25
HETATM   25  N3  UNL     1      10.032  67.860   4.906  1.00  0.00    -0.220 N 
ATOM     26  H3  UNL     1      10.294  68.475   5.676  1.00  0.00     0.178 HD
BRANCH  25  27
HETATM   27  C4  UNL     1       8.781  67.634   4.732  1.00  0.00     0.679 A 
HETATM   28  N2  UNL     1       8.239  66.403   4.755  1.00  0.00    -0.175 N 
HETATM   29  C3  UNL     1       6.916  66.181   4.569  1.00  0.00     0.140 A 
ATOM     30  H2  UNL     1       8.850  65.604   4.919  1.00  0.00     0.186 HD
HETATM   31  C22 UNL     1       6.123  67.271   4.350  1.00  0.00     0.094 A 
HETATM   32  C21 UNL     1       6.655  68.558   4.320  1.00  0.00     0.133 A 
HETATM   33 CL1  UNL     1       4.396  67.163   4.094  1.00  0.00    -0.079 Cl
HETATM   34  N9  UNL     1       7.982  68.714   4.513  1.00  0.00    -0.200 N 
ATOM     35  H9  UNL     1       8.389  69.649   4.494  1.00  0.00     0.183 HD
BRANCH  29  36
HETATM   36  N1  UNL     1       6.485  65.005   4.605  1.00  0.00    -0.375 N 
ATOM     37  H1  UNL     1       6.511  64.539   3.697  1.00  0.00     0.161 HD
BRANCH  36  38
HETATM   38  C2  UNL     1       5.972  64.189   5.631  1.00  0.00     0.116 C 
HETATM   39  C1  UNL     1       4.637  63.610   5.108  1.00  0.00     0.026 C 
ENDBRANCH  36  38
ENDBRANCH  29  36
ENDBRANCH  25  27
ENDBRANCH   1  25
TORSDOF 8
ENDMDL
MODEL 5
REMARK VINA RESULT: -8.373748586      3.199      8.073
REMARK  8 active torsions:
REMARK  status: ('A' for Active; 'I' for Inactive)
REMARK    1  A    between atoms: C2_2  and  N1_3 
REMARK    2  A    between atoms: N1_3  and  C3_5 
REMARK    3  A    between atoms: C4_8  and  N3_9 
REMARK    4  A    between atoms: N3_9  and  C5_11 
REMARK    5  A    between atoms: N4_14  and  C8_15 
REMARK    6  A    between atoms: C9_18  and  N6_19 
REMARK    7  A    between atoms: N6_19  and  C10_20 
REMARK    8  A    between atoms: C13_23  and  N7_24 
ROOT
HETATM    1  C5  UNL     1      10.901  63.066   0.266  1.00  0.00     0.118 C 
HETATM    2  C6  UNL     1      11.218  64.309  -0.500  1.00  0.00     0.047 C 
HETATM    3  C7  UNL     1      12.002  65.177   0.429  1.00  0.00     0.126 C 
HETATM    4  N4  UNL     1      11.647  64.720   1.747  1.00  0.00    -0.364 N 
HETATM    5  C20 UNL     1      11.307  63.316   1.684  1.00  0.00     0.150 C 
ENDROOT
BRANCH   4   6
HETATM    6  C8  UNL     1      11.601  65.462   2.969  1.00  0.00     0.126 A 
HETATM    7  N5  UNL     1      10.514  66.179   3.281  1.00  0.00    -0.301 N 
HETATM    8  C9  UNL     1      10.432  66.894   4.453  1.00  0.00     0.255 A 
ATOM      9  H5  UNL     1       9.727  66.195   2.634  1.00  0.00     0.171 HD
HETATM   10  N8  UNL     1      11.488  66.850   5.279  1.00  0.00    -0.325 N 
HETATM   11  C18 UNL     1      12.601  66.137   4.996  1.00  0.00     0.115 A 
ATOM     12  H8  UNL     1      11.450  67.374   6.153  1.00  0.00     0.169 HD
HETATM   13  C19 UNL     1      12.670  65.434   3.836  1.00  0.00     0.070 A 
HETATM   14 BR1  UNL     1      14.232  64.407   3.389  1.00  0.00    -0.046 Br
BRANCH   8  15
HETATM   15  N6  UNL     1       9.430  67.511   4.687  1.00  0.00    -0.410 NA
BRANCH  15  16
HETATM   16  C10 UNL     1       8.275  68.176   4.507  1.00  0.00     0.167 C 
HETATM   17  C11 UNL     1       8.468  69.591   3.976  1.00  0.00     0.041 C 
HETATM   18  C12 UNL     1       8.345  69.511   2.477  1.00  0.00     0.038 C 
HETATM   19  C13 UNL     1       6.903  69.354   2.068  1.00  0.00     0.222 C 
HETATM   20  C16 UNL     1       6.265  68.374   3.049  1.00  0.00     0.038 C 
HETATM   21  C17 UNL     1       7.257  67.434   3.640  1.00  0.00     0.041 C 
BRANCH  19  22
HETATM   22  N7  UNL     1       6.150  70.556   2.093  1.00  0.00     0.084 N 
HETATM   23  C14 UNL     1       4.769  70.246   1.779  1.00  0.00     0.309 C 
HETATM   24  C15 UNL     1       6.574  71.578   1.187  1.00  0.00     0.309 C 
ENDBRANCH  19  22
ENDBRANCH  15  16
ENDBRANCH   8  15
ENDBRANCH   4   6
BRANCH   1  25
HETATM   25  N3  UNL     1       9.518  62.678   0.141  1.00  0.00    -0.220 N 
ATOM     26  H3  UNL     1       9.184  62.428  -0.790  1.00  0.00     0.178 HD
BRANCH  25  27
HETATM   27  C4  UNL     1       8.674  62.623   1.105  1.00  0.00     0.679 A 
HETATM   28  N2  UNL     1       8.448  61.514   1.832  1.00  0.00    -0.175 N 
HETATM   29  C3  UNL     1       7.553  61.472   2.847  1.00  0.00     0.140 A 
ATOM     30  H2  UNL     1       8.973  60.669   1.609  1.00  0.00     0.186 HD
HETATM   31  C22 UNL     1       6.863  62.618   3.121  1.00  0.00     0.094 A 
HETATM   32  C21 UNL     1       7.074  63.782   2.386  1.00  0.00     0.133 A 
HETATM   33 CL1  UNL     1       5.674  62.739   4.397  1.00  0.00    -0.079 Cl
HETATM   34  N9  UNL     1       7.982  63.761   1.386  1.00  0.00    -0.200 N 
ATOM     35  H9  UNL     1       8.149  64.604   0.837  1.00  0.00     0.183 HD
BRANCH  29  36
HETATM   36  N1  UNL     1       7.398  60.401   3.478  1.00  0.00    -0.375 N 
ATOM     37  H1  UNL     1       8.108  60.251   4.196  1.00  0.00     0.161 HD
BRANCH  36  38
HETATM   38  C2  UNL     1       6.452  59.360   3.409  1.00  0.00     0.116 C 
HETATM   39  C1  UNL     1       7.061  58.160   4.170  1.00  0.00     0.026 C 
ENDBRANCH  36  38
ENDBRANCH  29  36
ENDBRANCH  25  27
ENDBRANCH   1  25
TORSDOF 8
ENDMDL
