MODEL 1
REMARK VINA RESULT: -8.954763714      0.000      0.000
REMARK  8 active torsions:
REMARK  status: ('A' for Active; 'I' for Inactive)
REMARK    1  A    between atoms: N1_2  and  C3_4 
REMARK    2  A    between atoms: C3_4  and  C4_5 
REMARK    3  A    between atoms: C4_5  and  N2_6 
REMARK    4  A    between atoms: C9_11  and  C10_12 
REMARK       I    between atoms: C10_12  and  N3_14 
REMARK    5  A    between atoms: C11_16  and  C13_19 
REMARK    6  A    between atoms: C13_19  and  C14_24 
REMARK    7  A    between atoms: N5_20  and  O2_22 
REMARK    8  A    between atoms: C17_28  and  O3_29 
ROOT
HETATM    1  C10 UNL     1       9.101  64.073   3.118  1.00  0.00     0.254 C 
HETATM    2  O1  UNL     1       8.519  65.149   3.536  1.00  0.00    -0.271 OA
HETATM    3  N3  UNL     1      10.495  64.120   3.274  1.00  0.00    -0.315 N 
ATOM      4  H3  UNL     1      10.960  63.341   3.739  1.00  0.00     0.169 HD
HETATM    5  C11 UNL     1      11.223  65.122   2.850  1.00  0.00     0.146 C 
HETATM    6  C12 UNL     1      10.471  66.156   2.215  1.00  0.00     0.120 C 
HETATM    7  N4  UNL     1       9.811  66.999   1.696  1.00  0.00    -0.190 NA
ENDROOT
BRANCH   5   8
HETATM    8  C13 UNL     1      12.623  65.140   3.088  1.00  0.00     0.102 C 
HETATM    9  N5  UNL     1      13.397  65.301   2.026  1.00  0.00    -0.266 N 
ATOM     10  H5  UNL     1      14.407  65.320   2.172  1.00  0.00     0.194 HD
BRANCH   9  11
HETATM   11  O2  UNL     1      12.954  65.439   0.802  1.00  0.00    -0.289 OA
ATOM     12  H2  UNL     1      12.065  65.248   0.529  1.00  0.00     0.244 HD
ENDBRANCH   9  11
BRANCH   8  13
HETATM   13  C14 UNL     1      13.371  64.994   4.316  1.00  0.00    -0.000 A 
HETATM   14  C15 UNL     1      13.015  65.819   5.395  1.00  0.00     0.059 A 
HETATM   15  C16 UNL     1      13.647  65.734   6.621  1.00  0.00     0.151 A 
HETATM   16  F1  UNL     1      13.268  66.552   7.632  1.00  0.00    -0.203 F 
HETATM   17  C17 UNL     1      14.654  64.830   6.829  1.00  0.00     0.121 A 
HETATM   18  C18 UNL     1      15.018  64.018   5.801  1.00  0.00     0.048 A 
HETATM   19 BR1  UNL     1      16.417  62.743   6.046  1.00  0.00    -0.048 Br
HETATM   20  C19 UNL     1      14.361  64.116   4.550  1.00  0.00     0.036 A 
BRANCH  17  21
HETATM   21  O3  UNL     1      15.298  64.735   8.061  1.00  0.00    -0.356 OA
ATOM     22  H3  UNL     1      15.034  64.090   8.707  1.00  0.00     0.218 HD
ENDBRANCH  17  21
ENDBRANCH   8  13
ENDBRANCH   5   8
BRANCH   1  23
HETATM   23  C9  UNL     1       8.346  62.966   2.549  1.00  0.00     0.282 C 
HETATM   24  N2  UNL     1       7.331  63.227   1.591  1.00  0.00    -0.052 N 
HETATM   25  C5  UNL     1       6.119  63.756   2.189  1.00  0.00     0.239 C 
HETATM   26  C24 UNL     1       6.883  62.052   0.849  1.00  0.00     0.239 C 
HETATM   27  C6  UNL     1       5.392  62.699   2.993  1.00  0.00     0.033 C 
HETATM   28  C7  UNL     1       6.363  61.711   3.518  1.00  0.00    -0.003 C 
HETATM   29  C8  UNL     1       7.749  62.199   3.743  1.00  0.00     0.048 C 
HETATM   30  C20 UNL     1       6.481  60.438   2.701  1.00  0.00    -0.042 C 
HETATM   31  C21 UNL     1       5.123  59.867   2.479  1.00  0.00     0.015 C 
HETATM   32  C22 UNL     1       7.307  59.464   3.501  1.00  0.00     0.015 C 
HETATM   33  C23 UNL     1       7.244  60.731   1.415  1.00  0.00     0.037 C 
BRANCH  24  34
HETATM   34  C4  UNL     1       7.719  64.223   0.579  1.00  0.00     0.268 C 
BRANCH  34  35
HETATM   35  C3  UNL     1       8.478  63.661  -0.575  1.00  0.00     0.299 C 
BRANCH  35  36
HETATM   36  N1  UNL     1       9.868  64.081  -0.543  1.00  0.00     0.081 N 
HETATM   37  C1  UNL     1      10.761  63.026  -0.197  1.00  0.00     0.309 C 
HETATM   38  C2  UNL     1      10.261  64.865  -1.662  1.00  0.00     0.309 C 
ENDBRANCH  35  36
ENDBRANCH  34  35
ENDBRANCH  24  34
ENDBRANCH   1  23
TORSDOF 8
ENDMDL
MODEL 2
REMARK VINA RESULT: -8.812693789      2.914      4.732
REMARK  8 active torsions:
REMARK  status: ('A' for Active; 'I' for Inactive)
REMARK    1  A    between atoms: N1_2  and  C3_4 
REMARK    2  A    between atoms: C3_4  and  C4_5 
REMARK    3  A    between atoms: C4_5  and  N2_6 
REMARK    4  A    between atoms: C9_11  and  C10_12 
REMARK       I    between atoms: C10_12  and  N3_14 
REMARK    5  A    between atoms: C11_16  and  C13_19 
REMARK    6  A    between atoms: C13_19  and  C14_24 
REMARK    7  A    between atoms: N5_20  and  O2_22 
REMARK    8  A    between atoms: C17_28  and  O3_29 
ROOT
HETATM    1  C10 UNL     1       6.650  65.440   3.203  1.00  0.00     0.254 C 
HETATM    2  O1  UNL     1       6.017  66.535   2.936  1.00  0.00    -0.271 OA
HETATM    3  N3  UNL     1       7.948  65.673   3.683  1.00  0.00    -0.315 N 
ATOM      4  H3  UNL     1       8.238  65.217   4.547  1.00  0.00     0.169 HD
HETATM    5  C11 UNL     1       8.802  66.452   3.068  1.00  0.00     0.146 C 
HETATM    6  C12 UNL     1       8.293  67.039   1.870  1.00  0.00     0.120 C 
HETATM    7  N4  UNL     1       7.832  67.512   0.880  1.00  0.00    -0.190 NA
ENDROOT
BRANCH   5   8
HETATM    8  C13 UNL     1      10.083  66.696   3.632  1.00  0.00     0.102 C 
HETATM    9  N5  UNL     1      10.213  67.811   4.334  1.00  0.00    -0.266 N 
ATOM     10  H5  UNL     1      11.124  68.007   4.750  1.00  0.00     0.194 HD
BRANCH   9  11
HETATM   11  O2  UNL     1       9.252  68.678   4.530  1.00  0.00    -0.289 OA
ATOM     12  H2  UNL     1       9.374  69.620   4.549  1.00  0.00     0.244 HD
ENDBRANCH   9  11
BRANCH   8  13
HETATM   13  C14 UNL     1      11.304  65.928   3.558  1.00  0.00    -0.000 A 
HETATM   14  C15 UNL     1      11.563  65.232   2.367  1.00  0.00     0.059 A 
HETATM   15  C16 UNL     1      12.719  64.496   2.185  1.00  0.00     0.151 A 
HETATM   16  F1  UNL     1      12.924  63.842   1.017  1.00  0.00    -0.203 F 
HETATM   17  C17 UNL     1      13.664  64.421   3.173  1.00  0.00     0.121 A 
HETATM   18  C18 UNL     1      13.440  65.086   4.336  1.00  0.00     0.048 A 
HETATM   19 BR1  UNL     1      14.730  65.009   5.742  1.00  0.00    -0.048 Br
HETATM   20  C19 UNL     1      12.251  65.837   4.509  1.00  0.00     0.036 A 
BRANCH  17  21
HETATM   21  O3  UNL     1      14.833  63.682   3.001  1.00  0.00    -0.356 OA
ATOM     22  H3  UNL     1      15.473  63.919   2.340  1.00  0.00     0.218 HD
ENDBRANCH  17  21
ENDBRANCH   8  13
ENDBRANCH   5   8
BRANCH   1  23
HETATM   23  C9  UNL     1       6.038  64.134   3.004  1.00  0.00     0.282 C 
HETATM   24  N2  UNL     1       5.314  63.528   4.063  1.00  0.00    -0.052 N 
HETATM   25  C5  UNL     1       6.180  62.974   5.087  1.00  0.00     0.239 C 
HETATM   26  C24 UNL     1       4.472  62.406   3.658  1.00  0.00     0.239 C 
HETATM   27  C6  UNL     1       6.907  61.743   4.591  1.00  0.00     0.033 C 
HETATM   28  C7  UNL     1       7.098  61.830   3.124  1.00  0.00    -0.003 C 
HETATM   29  C8  UNL     1       7.172  63.198   2.545  1.00  0.00     0.048 C 
HETATM   30  C20 UNL     1       6.075  61.069   2.302  1.00  0.00    -0.042 C 
HETATM   31  C21 UNL     1       5.987  59.668   2.801  1.00  0.00     0.015 C 
HETATM   32  C22 UNL     1       6.560  61.061   0.875  1.00  0.00     0.015 C 
HETATM   33  C23 UNL     1       4.748  61.816   2.326  1.00  0.00     0.037 C 
BRANCH  24  34
HETATM   34  C4  UNL     1       4.429  64.461   4.781  1.00  0.00     0.268 C 
BRANCH  34  35
HETATM   35  C3  UNL     1       4.047  64.012   6.150  1.00  0.00     0.299 C 
BRANCH  35  36
HETATM   36  N1  UNL     1       4.060  65.120   7.088  1.00  0.00     0.081 N 
HETATM   37  C1  UNL     1       4.553  66.329   6.517  1.00  0.00     0.309 C 
HETATM   38  C2  UNL     1       2.863  65.251   7.845  1.00  0.00     0.309 C 
ENDBRANCH  35  36
ENDBRANCH  34  35
ENDBRANCH  24  34
ENDBRANCH   1  23
TORSDOF 8
ENDMDL
MODEL 3
REMARK VINA RESULT: -8.804075470      2.169      3.479
REMARK  8 active torsions:
REMARK  status: ('A' for Active; 'I' for Inactive)
REMARK    1  A    between atoms: N1_2  and  C3_4 
REMARK    2  A    between atoms: C3_4  and  C4_5 
REMARK    3  A    between atoms: C4_5  and  N2_6 
REMARK    4  A    between atoms: C9_11  and  C10_12 
REMARK       I    between atoms: C10_12  and  N3_14 
REMARK    5  A    between atoms: C11_16  and  C13_19 
REMARK    6  A    between atoms: C13_19  and  C14_24 
REMARK    7  A    between atoms: N5_20  and  O2_22 
REMARK    8  A    between atoms: C17_28  and  O3_29 
ROOT
HETATM    1  C10 UNL     1       8.054  63.743   1.073  1.00  0.00     0.254 C 
HETATM    2  O1  UNL     1       8.249  63.850  -0.200  1.00  0.00    -0.271 OA
HETATM    3  N3  UNL     1       8.911  64.565   1.820  1.00  0.00    -0.315 N 
ATOM      4  H3  UNL     1       8.507  65.178   2.528  1.00  0.00     0.169 HD
HETATM    5  C11 UNL     1      10.209  64.580   1.646  1.00  0.00     0.146 C 
HETATM    6  C12 UNL     1      10.668  63.686   0.632  1.00  0.00     0.120 C 
HETATM    7  N4  UNL     1      11.011  62.931  -0.222  1.00  0.00    -0.190 NA
ENDROOT
BRANCH   5   8
HETATM    8  C13 UNL     1      11.021  65.475   2.392  1.00  0.00     0.102 C 
HETATM    9  N5  UNL     1      10.742  66.763   2.268  1.00  0.00    -0.266 N 
ATOM     10  H5  UNL     1      11.311  67.426   2.796  1.00  0.00     0.194 HD
BRANCH   9  11
HETATM   11  O2  UNL     1       9.785  67.243   1.514  1.00  0.00    -0.289 OA
ATOM     12  H2  UNL     1       9.835  68.066   1.043  1.00  0.00     0.244 HD
ENDBRANCH   9  11
BRANCH   8  13
HETATM   13  C14 UNL     1      12.137  65.221   3.273  1.00  0.00    -0.000 A 
HETATM   14  C15 UNL     1      13.248  64.550   2.738  1.00  0.00     0.059 A 
HETATM   15  C16 UNL     1      14.378  64.288   3.488  1.00  0.00     0.151 A 
HETATM   16  F1  UNL     1      15.425  63.638   2.926  1.00  0.00    -0.203 F 
HETATM   17  C17 UNL     1      14.455  64.680   4.799  1.00  0.00     0.121 A 
HETATM   18  C18 UNL     1      13.394  65.332   5.343  1.00  0.00     0.048 A 
HETATM   19 BR1  UNL     1      13.456  65.897   7.165  1.00  0.00    -0.048 Br
HETATM   20  C19 UNL     1      12.242  65.594   4.560  1.00  0.00     0.036 A 
BRANCH  17  21
HETATM   21  O3  UNL     1      15.589  64.422   5.566  1.00  0.00    -0.356 OA
ATOM     22  H3  UNL     1      15.847  63.534   5.781  1.00  0.00     0.218 HD
ENDBRANCH  17  21
ENDBRANCH   8  13
ENDBRANCH   5   8
BRANCH   1  23
HETATM   23  C9  UNL     1       7.044  62.847   1.620  1.00  0.00     0.282 C 
HETATM   24  N2  UNL     1       6.892  62.734   3.026  1.00  0.00    -0.052 N 
HETATM   25  C5  UNL     1       7.940  61.939   3.640  1.00  0.00     0.239 C 
HETATM   26  C24 UNL     1       5.655  62.088   3.452  1.00  0.00     0.239 C 
HETATM   27  C6  UNL     1       7.801  60.473   3.288  1.00  0.00     0.033 C 
HETATM   28  C7  UNL     1       7.147  60.334   1.966  1.00  0.00    -0.003 C 
HETATM   29  C8  UNL     1       7.331  61.461   1.013  1.00  0.00     0.048 C 
HETATM   30  C20 UNL     1       5.657  60.053   2.018  1.00  0.00    -0.042 C 
HETATM   31  C21 UNL     1       5.406  58.896   2.922  1.00  0.00     0.015 C 
HETATM   32  C22 UNL     1       5.216  59.699   0.620  1.00  0.00     0.015 C 
HETATM   33  C23 UNL     1       4.916  61.321   2.420  1.00  0.00     0.037 C 
BRANCH  24  34
HETATM   34  C4  UNL     1       6.938  64.027   3.730  1.00  0.00     0.268 C 
BRANCH  34  35
HETATM   35  C3  UNL     1       5.640  64.760   3.750  1.00  0.00     0.299 C 
BRANCH  35  36
HETATM   36  N1  UNL     1       5.820  66.155   3.391  1.00  0.00     0.081 N 
HETATM   37  C1  UNL     1       6.979  66.738   3.980  1.00  0.00     0.309 C 
HETATM   38  C2  UNL     1       5.644  66.422   2.005  1.00  0.00     0.309 C 
ENDBRANCH  35  36
ENDBRANCH  34  35
ENDBRANCH  24  34
ENDBRANCH   1  23
TORSDOF 8
ENDMDL
MODEL 4
REMARK VINA RESULT: -8.523717695      4.278      7.916
REMARK  8 active torsions:
REMARK  status: ('A' for Active; 'I' for Inactive)
REMARK    1  A    between atoms: N1_2  and  C3_4 
REMARK    2  A    between atoms: C3_4  and  C4_5 
REMARK    3  A    between atoms: C4_5  and  N2_6 
REMARK    4  A    between atoms: C9_11  and  C10_12 
REMARK       I    between atoms: C10_12  and  N3_14 
REMARK    5  A    between atoms: C11_16  and  C13_19 
REMARK    6  A    between atoms: C13_19  and  C14_24 
REMARK    7  A    between atoms: N5_20  and  O2_22 
REMARK    8  A    between atoms: C17_28  and  O3_29 
ROOT
HETATM    1  C10 UNL     1       8.843  64.721   1.990  1.00  0.00     0.254 C 
HETATM    2  O1  UNL     1       9.716  64.115   1.255  1.00  0.00    -0.271 OA
HETATM    3  N3  UNL     1       8.118  63.837   2.804  1.00  0.00    -0.315 N 
ATOM      4  H3  UNL     1       8.049  64.037   3.802  1.00  0.00     0.169 HD
HETATM    5  C11 UNL     1       7.527  62.766   2.337  1.00  0.00     0.146 C 
HETATM    6  C12 UNL     1       7.687  62.583   0.931  1.00  0.00     0.120 C 
HETATM    7  N4  UNL     1       7.845  62.462  -0.243  1.00  0.00    -0.190 NA
ENDROOT
BRANCH   5   8
HETATM    8  C13 UNL     1       6.856  61.877   3.219  1.00  0.00     0.102 C 
HETATM    9  N5  UNL     1       6.557  62.353   4.417  1.00  0.00    -0.266 N 
ATOM     10  H5  UNL     1       6.073  61.734   5.068  1.00  0.00     0.194 HD
BRANCH   9  11
HETATM   11  O2  UNL     1       6.840  63.565   4.823  1.00  0.00    -0.289 OA
ATOM     12  H2  UNL     1       6.452  63.981   5.584  1.00  0.00     0.244 HD
ENDBRANCH   9  11
BRANCH   8  13
HETATM   13  C14 UNL     1       6.446  60.504   3.038  1.00  0.00    -0.000 A 
HETATM   14  C15 UNL     1       7.306  59.501   3.512  1.00  0.00     0.059 A 
HETATM   15  C16 UNL     1       6.991  58.159   3.417  1.00  0.00     0.151 A 
HETATM   16  F1  UNL     1       7.853  57.229   3.890  1.00  0.00    -0.203 F 
HETATM   17  C17 UNL     1       5.811  57.756   2.849  1.00  0.00     0.121 A 
HETATM   18  C18 UNL     1       4.959  58.706   2.381  1.00  0.00     0.048 A 
HETATM   19 BR1  UNL     1       3.305  58.190   1.581  1.00  0.00    -0.048 Br
HETATM   20  C19 UNL     1       5.296  60.078   2.486  1.00  0.00     0.036 A 
BRANCH  17  21
HETATM   21  O3  UNL     1       5.482  56.406   2.747  1.00  0.00    -0.356 OA
ATOM     22  H3  UNL     1       4.587  56.127   2.593  1.00  0.00     0.218 HD
ENDBRANCH  17  21
ENDBRANCH   8  13
ENDBRANCH   5   8
BRANCH   1  23
HETATM   23  C9  UNL     1       8.667  66.165   1.935  1.00  0.00     0.282 C 
HETATM   24  N2  UNL     1       9.446  67.000   2.778  1.00  0.00    -0.052 N 
HETATM   25  C5  UNL     1       8.987  66.990   4.155  1.00  0.00     0.239 C 
HETATM   26  C24 UNL     1       9.438  68.412   2.407  1.00  0.00     0.239 C 
HETATM   27  C6  UNL     1       7.662  67.708   4.302  1.00  0.00     0.033 C 
HETATM   28  C7  UNL     1       6.895  67.610   3.039  1.00  0.00    -0.003 C 
HETATM   29  C8  UNL     1       7.170  66.423   2.186  1.00  0.00     0.048 C 
HETATM   30  C20 UNL     1       6.998  68.824   2.134  1.00  0.00    -0.042 C 
HETATM   31  C21 UNL     1       6.684  70.050   2.919  1.00  0.00     0.015 C 
HETATM   32  C22 UNL     1       5.977  68.656   1.038  1.00  0.00     0.015 C 
HETATM   33  C23 UNL     1       8.371  68.848   1.475  1.00  0.00     0.037 C 
BRANCH  24  34
HETATM   34  C4  UNL     1      10.863  66.608   2.850  1.00  0.00     0.268 C 
BRANCH  34  35
HETATM   35  C3  UNL     1      11.379  66.427   4.237  1.00  0.00     0.299 C 
BRANCH  35  36
HETATM   36  N1  UNL     1      12.764  65.992   4.229  1.00  0.00     0.081 N 
HETATM   37  C1  UNL     1      13.275  65.733   5.534  1.00  0.00     0.309 C 
HETATM   38  C2  UNL     1      13.050  64.994   3.258  1.00  0.00     0.309 C 
ENDBRANCH  35  36
ENDBRANCH  34  35
ENDBRANCH  24  34
ENDBRANCH   1  23
TORSDOF 8
ENDMDL
MODEL 5
REMARK VINA RESULT: -8.362560013      2.182      3.257
REMARK  8 active torsions:
REMARK  status: ('A' for Active; 'I' for Inactive)
REMARK    1  A    between atoms: N1_2  and  C3_4 
REMARK    2  A    between atoms: C3_4  and  C4_5 
REMARK    3  A    between atoms: C4_5  and  N2_6 
REMARK    4  A    between atoms: C9_11  and  C10_12 
REMARK       I    between atoms: C10_12  and  N3_14 
REMARK    5  A    between atoms: C11_16  and  C13_19 
REMARK    6  A    between atoms: C13_19  and  C14_24 
REMARK    7  A    between atoms: N5_20  and  O2_22 
REMARK    8  A    between atoms: C17_28  and  O3_29 
ROOT
HETATM    1  C10 UNL     1       8.081  64.481   1.587  1.00  0.00     0.254 C 
HETATM    2  O1  UNL     1       7.874  65.132   0.491  1.00  0.00    -0.271 OA
HETATM    3  N3  UNL     1       9.032  65.103   2.411  1.00  0.00    -0.315 N 
ATOM      4  H3  UNL     1       8.796  65.270   3.389  1.00  0.00     0.169 HD
HETATM    5  C11 UNL     1      10.209  65.478   1.978  1.00  0.00     0.146 C 
HETATM    6  C12 UNL     1      10.434  65.197   0.596  1.00  0.00     0.120 C 
HETATM    7  N4  UNL     1      10.583  64.949  -0.558  1.00  0.00    -0.190 NA
ENDROOT
BRANCH   5   8
HETATM    8  C13 UNL     1      11.108  66.155   2.844  1.00  0.00     0.102 C 
HETATM    9  N5  UNL     1      10.945  67.464   2.953  1.00  0.00    -0.266 N 
ATOM     10  H5  UNL     1      11.578  67.973   3.571  1.00  0.00     0.194 HD
BRANCH   9  11
HETATM   11  O2  UNL     1      10.026  68.150   2.322  1.00  0.00    -0.289 OA
ATOM     12  H2  UNL     1       9.092  68.061   2.472  1.00  0.00     0.244 HD
ENDBRANCH   9  11
BRANCH   8  13
HETATM   13  C14 UNL     1      12.208  65.654   3.635  1.00  0.00    -0.000 A 
HETATM   14  C15 UNL     1      13.233  64.969   2.963  1.00  0.00     0.059 A 
HETATM   15  C16 UNL     1      14.344  64.481   3.624  1.00  0.00     0.151 A 
HETATM   16  F1  UNL     1      15.307  63.827   2.931  1.00  0.00    -0.203 F 
HETATM   17  C17 UNL     1      14.486  64.651   4.976  1.00  0.00     0.121 A 
HETATM   18  C18 UNL     1      13.509  65.312   5.651  1.00  0.00     0.048 A 
HETATM   19 BR1  UNL     1      13.664  65.572   7.536  1.00  0.00    -0.048 Br
HETATM   20  C19 UNL     1      12.376  65.807   4.960  1.00  0.00     0.036 A 
BRANCH  17  21
HETATM   21  O3  UNL     1      15.602  64.163   5.653  1.00  0.00    -0.356 OA
ATOM     22  H3  UNL     1      15.512  63.668   6.459  1.00  0.00     0.218 HD
ENDBRANCH  17  21
ENDBRANCH   8  13
ENDBRANCH   5   8
BRANCH   1  23
HETATM   23  C9  UNL     1       7.382  63.238   1.883  1.00  0.00     0.282 C 
HETATM   24  N2  UNL     1       6.153  63.275   2.591  1.00  0.00    -0.052 N 
HETATM   25  C5  UNL     1       6.332  63.519   4.011  1.00  0.00     0.239 C 
HETATM   26  C24 UNL     1       5.383  62.035   2.534  1.00  0.00     0.239 C 
HETATM   27  C6  UNL     1       6.947  62.323   4.705  1.00  0.00     0.033 C 
HETATM   28  C7  UNL     1       7.794  61.570   3.751  1.00  0.00    -0.003 C 
HETATM   29  C8  UNL     1       8.390  62.350   2.635  1.00  0.00     0.048 C 
HETATM   30  C20 UNL     1       7.127  60.360   3.124  1.00  0.00    -0.042 C 
HETATM   31  C21 UNL     1       6.548  59.505   4.198  1.00  0.00     0.015 C 
HETATM   32  C22 UNL     1       8.194  59.587   2.391  1.00  0.00     0.015 C 
HETATM   33  C23 UNL     1       6.110  60.822   2.089  1.00  0.00     0.037 C 
BRANCH  24  34
HETATM   34  C4  UNL     1       5.242  64.339   2.137  1.00  0.00     0.268 C 
BRANCH  34  35
HETATM   35  C3  UNL     1       4.841  65.299   3.205  1.00  0.00     0.299 C 
BRANCH  35  36
HETATM   36  N1  UNL     1       5.093  66.670   2.801  1.00  0.00     0.081 N 
HETATM   37  C1  UNL     1       6.238  67.236   3.432  1.00  0.00     0.309 C 
HETATM   38  C2  UNL     1       5.006  66.884   1.398  1.00  0.00     0.309 C 
ENDBRANCH  35  36
ENDBRANCH  34  35
ENDBRANCH  24  34
ENDBRANCH   1  23
TORSDOF 8
ENDMDL
