MODEL 1
REMARK VINA RESULT: -6.993779641      0.000      0.000
REMARK  9 active torsions:
REMARK  status: ('A' for Active; 'I' for Inactive)
REMARK    1  A    between atoms: O1_2  and  C2_3 
REMARK       I    between atoms: C2_3  and  N1_5 
REMARK    2  A    between atoms: N1_5  and  C3_7 
REMARK    3  A    between atoms: C9_15  and  C10_16 
REMARK    4  A    between atoms: C10_16  and  C11_17 
REMARK    5  A    between atoms: C11_17  and  C12_18 
REMARK    6  A    between atoms: C12_18  and  C13_19 
REMARK    7  A    between atoms: C14_21  and  O4_22 
REMARK    8  A    between atoms: C15_24  and  O5_25 
REMARK    9  A    between atoms: O5_25  and  C16_26 
ROOT
HETATM    1  C3  UNL     1      11.214  65.481   1.965  1.00  0.00     0.158 C 
HETATM    2  C4  UNL     1      10.418  64.820   0.904  1.00  0.00    -0.021 C 
HETATM    3  C5  UNL     1      11.151  64.408  -0.091  1.00  0.00    -0.019 C 
HETATM    4  C6  UNL     1      10.802  63.711  -1.349  1.00  0.00     0.031 C 
HETATM    5  C7  UNL     1       9.718  64.509  -2.014  1.00  0.00     0.047 C 
HETATM    6  C8  UNL     1       8.428  64.596  -1.283  1.00  0.00     0.194 C 
HETATM    7 BR1  UNL     1       7.207  63.423  -2.316  1.00  0.00    -0.061 Br
HETATM    8  O3  UNL     1       8.311  64.214  -0.035  1.00  0.00    -0.357 OA
HETATM    9  C9  UNL     1       8.929  64.716   1.043  1.00  0.00     0.116 C 
HETATM   10  C14 UNL     1       8.373  66.076   1.472  1.00  0.00     0.190 C 
HETATM   11  C15 UNL     1       9.073  66.702   2.609  1.00  0.00     0.203 C 
HETATM   12  C18 UNL     1      10.477  66.371   2.864  1.00  0.00     0.135 A 
HETATM   13  C19 UNL     1      10.998  66.454   4.297  1.00  0.00     0.212 A 
HETATM   14  O7  UNL     1      11.287  67.458   3.407  1.00  0.00    -0.369 OA
ENDROOT
BRANCH   1  15
HETATM   15  N1  UNL     1      12.061  64.599   2.733  1.00  0.00    -0.325 N 
HETATM   16  C2  UNL     1      13.464  64.712   2.801  1.00  0.00     0.360 C 
HETATM   17  O2  UNL     1      14.107  65.596   2.194  1.00  0.00    -0.239 OA
ATOM     18  H1  UNL     1      11.616  63.848   3.261  1.00  0.00     0.165 HD
BRANCH  16  19
HETATM   19  O1  UNL     1      14.185  63.814   3.565  1.00  0.00    -0.309 OA
HETATM   20  C1  UNL     1      14.945  64.272   4.682  1.00  0.00     0.215 C 
ENDBRANCH  16  19
ENDBRANCH   1  15
BRANCH   9  21
HETATM   21  C10 UNL     1       8.644  63.806   2.204  1.00  0.00     0.046 C 
BRANCH  21  22
HETATM   22  C11 UNL     1       8.649  62.345   1.989  1.00  0.00     0.004 C 
BRANCH  22  23
HETATM   23  C12 UNL     1       7.901  61.509   2.979  1.00  0.00     0.011 C 
BRANCH  23  24
HETATM   24  C13 UNL     1       8.007  60.053   2.487  1.00  0.00     0.085 C 
HETATM   25 BR2  UNL     1       6.875  58.988   3.614  1.00  0.00    -0.097 Br
ENDBRANCH  23  24
ENDBRANCH  22  23
ENDBRANCH  21  22
ENDBRANCH   9  21
BRANCH  11  26
HETATM   26  O5  UNL     1       8.371  66.500   3.831  1.00  0.00    -0.310 OA
BRANCH  26  27
HETATM   27  C16 UNL     1       7.255  67.189   4.223  1.00  0.00     0.255 C 
HETATM   28  C17 UNL     1       6.983  68.598   3.836  1.00  0.00     0.126 C 
HETATM   29  O6  UNL     1       6.412  66.605   4.947  1.00  0.00    -0.266 OA
ENDBRANCH  26  27
ENDBRANCH  11  26
BRANCH  10  30
HETATM   30  O4  UNL     1       8.310  66.954   0.396  1.00  0.00    -0.389 OA
ATOM     31  H4  UNL     1       8.413  67.854   0.682  1.00  0.00     0.210 HD
ENDBRANCH  10  30
TORSDOF 9
ENDMDL
MODEL 2
REMARK VINA RESULT: -6.896265949      2.203      5.030
REMARK  9 active torsions:
REMARK  status: ('A' for Active; 'I' for Inactive)
REMARK    1  A    between atoms: O1_2  and  C2_3 
REMARK       I    between atoms: C2_3  and  N1_5 
REMARK    2  A    between atoms: N1_5  and  C3_7 
REMARK    3  A    between atoms: C9_15  and  C10_16 
REMARK    4  A    between atoms: C10_16  and  C11_17 
REMARK    5  A    between atoms: C11_17  and  C12_18 
REMARK    6  A    between atoms: C12_18  and  C13_19 
REMARK    7  A    between atoms: C14_21  and  O4_22 
REMARK    8  A    between atoms: C15_24  and  O5_25 
REMARK    9  A    between atoms: O5_25  and  C16_26 
ROOT
HETATM    1  C3  UNL     1      10.220  64.941  -0.019  1.00  0.00     0.158 C 
HETATM    2  C4  UNL     1       9.061  65.029   0.899  1.00  0.00    -0.021 C 
HETATM    3  C5  UNL     1       7.973  65.422   0.299  1.00  0.00    -0.019 C 
HETATM    4  C6  UNL     1       6.601  65.654   0.800  1.00  0.00     0.031 C 
HETATM    5  C7  UNL     1       6.707  66.577   1.980  1.00  0.00     0.047 C 
HETATM    6  C8  UNL     1       7.434  66.048   3.160  1.00  0.00     0.194 C 
HETATM    7 BR1  UNL     1       6.005  65.683   4.486  1.00  0.00    -0.061 Br
HETATM    8  O3  UNL     1       8.147  64.949   3.101  1.00  0.00    -0.357 OA
HETATM    9  C9  UNL     1       9.233  64.709   2.354  1.00  0.00     0.116 C 
HETATM   10  C14 UNL     1      10.485  65.419   2.874  1.00  0.00     0.190 C 
HETATM   11  C15 UNL     1      11.689  65.246   2.040  1.00  0.00     0.203 C 
HETATM   12  C18 UNL     1      11.543  64.973   0.608  1.00  0.00     0.135 A 
HETATM   13  C19 UNL     1      12.638  64.178  -0.099  1.00  0.00     0.212 A 
HETATM   14  O7  UNL     1      12.583  65.542  -0.245  1.00  0.00    -0.369 OA
ENDROOT
BRANCH   1  15
HETATM   15  N1  UNL     1      10.160  63.863  -0.978  1.00  0.00    -0.325 N 
HETATM   16  C2  UNL     1      10.124  64.051  -2.375  1.00  0.00     0.360 C 
HETATM   17  O2  UNL     1      10.142  65.179  -2.912  1.00  0.00    -0.239 OA
ATOM     18  H1  UNL     1      10.143  62.907  -0.624  1.00  0.00     0.165 HD
BRANCH  16  19
HETATM   19  O1  UNL     1      10.065  62.951  -3.209  1.00  0.00    -0.309 OA
HETATM   20  C1  UNL     1       9.676  63.106  -4.573  1.00  0.00     0.215 C 
ENDBRANCH  16  19
ENDBRANCH   1  15
BRANCH   9  21
HETATM   21  C10 UNL     1       9.554  63.246   2.463  1.00  0.00     0.046 C 
BRANCH  21  22
HETATM   22  C11 UNL     1       8.569  62.257   1.983  1.00  0.00     0.004 C 
BRANCH  22  23
HETATM   23  C12 UNL     1       7.904  61.402   3.016  1.00  0.00     0.011 C 
BRANCH  23  24
HETATM   24  C13 UNL     1       7.941  59.959   2.476  1.00  0.00     0.085 C 
HETATM   25 BR2  UNL     1       6.865  58.886   3.648  1.00  0.00    -0.097 Br
ENDBRANCH  23  24
ENDBRANCH  22  23
ENDBRANCH  21  22
ENDBRANCH   9  21
BRANCH  11  26
HETATM   26  O5  UNL     1      12.551  64.242   2.567  1.00  0.00    -0.310 OA
BRANCH  26  27
HETATM   27  C16 UNL     1      13.692  64.480   3.284  1.00  0.00     0.255 C 
HETATM   28  C17 UNL     1      13.698  65.080   4.644  1.00  0.00     0.126 C 
HETATM   29  O6  UNL     1      14.798  64.175   2.772  1.00  0.00    -0.266 OA
ENDBRANCH  26  27
ENDBRANCH  11  26
BRANCH  10  30
HETATM   30  O4  UNL     1      10.240  66.770   3.099  1.00  0.00    -0.389 OA
ATOM     31  H4  UNL     1       9.985  66.926   4.000  1.00  0.00     0.210 HD
ENDBRANCH  10  30
TORSDOF 9
ENDMDL
MODEL 3
REMARK VINA RESULT: -6.698653284      1.873      2.132
REMARK  9 active torsions:
REMARK  status: ('A' for Active; 'I' for Inactive)
REMARK    1  A    between atoms: O1_2  and  C2_3 
REMARK       I    between atoms: C2_3  and  N1_5 
REMARK    2  A    between atoms: N1_5  and  C3_7 
REMARK    3  A    between atoms: C9_15  and  C10_16 
REMARK    4  A    between atoms: C10_16  and  C11_17 
REMARK    5  A    between atoms: C11_17  and  C12_18 
REMARK    6  A    between atoms: C12_18  and  C13_19 
REMARK    7  A    between atoms: C14_21  and  O4_22 
REMARK    8  A    between atoms: C15_24  and  O5_25 
REMARK    9  A    between atoms: O5_25  and  C16_26 
ROOT
HETATM    1  C3  UNL     1       9.865  66.005   2.764  1.00  0.00     0.158 C 
HETATM    2  C4  UNL     1       9.165  64.872   2.116  1.00  0.00    -0.021 C 
HETATM    3  C5  UNL     1       9.986  63.997   1.608  1.00  0.00    -0.019 C 
HETATM    4  C6  UNL     1       9.750  62.732   0.878  1.00  0.00     0.031 C 
HETATM    5  C7  UNL     1       8.816  63.040  -0.257  1.00  0.00     0.047 C 
HETATM    6  C8  UNL     1       7.454  63.495   0.123  1.00  0.00     0.194 C 
HETATM    7 BR1  UNL     1       6.293  61.940  -0.291  1.00  0.00    -0.061 Br
HETATM    8  O3  UNL     1       7.155  63.840   1.352  1.00  0.00    -0.357 OA
HETATM    9  C9  UNL     1       7.667  64.846   2.074  1.00  0.00     0.116 C 
HETATM   10  C14 UNL     1       7.157  66.219   1.630  1.00  0.00     0.190 C 
HETATM   11  C15 UNL     1       7.751  67.363   2.347  1.00  0.00     0.203 C 
HETATM   12  C18 UNL     1       9.085  67.232   2.937  1.00  0.00     0.135 A 
HETATM   13  C19 UNL     1       9.426  68.074   4.164  1.00  0.00     0.212 A 
HETATM   14  O7  UNL     1       9.894  68.448   2.929  1.00  0.00    -0.369 OA
ENDROOT
BRANCH   1  15
HETATM   15  N1  UNL     1      10.545  65.680   3.996  1.00  0.00    -0.325 N 
HETATM   16  C2  UNL     1      11.947  65.665   4.144  1.00  0.00     0.360 C 
HETATM   17  O2  UNL     1      12.734  65.937   3.212  1.00  0.00    -0.239 OA
ATOM     18  H1  UNL     1       9.976  65.446   4.809  1.00  0.00     0.165 HD
BRANCH  16  19
HETATM   19  O1  UNL     1      12.500  65.338   5.367  1.00  0.00    -0.309 OA
HETATM   20  C1  UNL     1      13.912  65.180   5.496  1.00  0.00     0.215 C 
ENDBRANCH  16  19
ENDBRANCH   1  15
BRANCH   9  21
HETATM   21  C10 UNL     1       7.175  64.696   3.486  1.00  0.00     0.046 C 
BRANCH  21  22
HETATM   22  C11 UNL     1       6.343  63.529   3.836  1.00  0.00     0.004 C 
BRANCH  22  23
HETATM   23  C12 UNL     1       7.059  62.290   4.277  1.00  0.00     0.011 C 
BRANCH  23  24
HETATM   24  C13 UNL     1       6.375  61.112   3.559  1.00  0.00     0.085 C 
HETATM   25 BR2  UNL     1       7.762  60.046   2.767  1.00  0.00    -0.097 Br
ENDBRANCH  23  24
ENDBRANCH  22  23
ENDBRANCH  21  22
ENDBRANCH   9  21
BRANCH  11  26
HETATM   26  O5  UNL     1       6.888  67.841   3.375  1.00  0.00    -0.310 OA
BRANCH  26  27
HETATM   27  C16 UNL     1       6.110  68.964   3.292  1.00  0.00     0.255 C 
HETATM   28  C17 UNL     1       6.344  70.186   4.106  1.00  0.00     0.126 C 
HETATM   29  O6  UNL     1       5.147  68.970   2.487  1.00  0.00    -0.266 OA
ENDBRANCH  26  27
ENDBRANCH  11  26
BRANCH  10  30
HETATM   30  O4  UNL     1       7.291  66.384   0.256  1.00  0.00    -0.389 OA
ATOM     31  H4  UNL     1       7.702  67.215   0.049  1.00  0.00     0.210 HD
ENDBRANCH  10  30
TORSDOF 9
ENDMDL
MODEL 4
REMARK VINA RESULT: -6.667888045      2.839      5.902
REMARK  9 active torsions:
REMARK  status: ('A' for Active; 'I' for Inactive)
REMARK    1  A    between atoms: O1_2  and  C2_3 
REMARK       I    between atoms: C2_3  and  N1_5 
REMARK    2  A    between atoms: N1_5  and  C3_7 
REMARK    3  A    between atoms: C9_15  and  C10_16 
REMARK    4  A    between atoms: C10_16  and  C11_17 
REMARK    5  A    between atoms: C11_17  and  C12_18 
REMARK    6  A    between atoms: C12_18  and  C13_19 
REMARK    7  A    between atoms: C14_21  and  O4_22 
REMARK    8  A    between atoms: C15_24  and  O5_25 
REMARK    9  A    between atoms: O5_25  and  C16_26 
ROOT
HETATM    1  C3  UNL     1       7.901  63.980  -0.390  1.00  0.00     0.158 C 
HETATM    2  C4  UNL     1       7.096  63.759   0.833  1.00  0.00    -0.021 C 
HETATM    3  C5  UNL     1       5.823  63.955   0.640  1.00  0.00    -0.019 C 
HETATM    4  C6  UNL     1       4.661  63.858   1.550  1.00  0.00     0.031 C 
HETATM    5  C7  UNL     1       4.968  64.700   2.755  1.00  0.00     0.047 C 
HETATM    6  C8  UNL     1       6.115  64.256   3.588  1.00  0.00     0.194 C 
HETATM    7 BR1  UNL     1       5.268  63.509   5.218  1.00  0.00    -0.061 Br
HETATM    8  O3  UNL     1       6.957  63.338   3.177  1.00  0.00    -0.357 OA
HETATM    9  C9  UNL     1       7.774  63.385   2.116  1.00  0.00     0.116 C 
HETATM   10  C14 UNL     1       8.979  64.305   2.330  1.00  0.00     0.190 C 
HETATM   11  C15 UNL     1       9.867  64.446   1.162  1.00  0.00     0.203 C 
HETATM   12  C18 UNL     1       9.327  64.248  -0.185  1.00  0.00     0.135 A 
HETATM   13  C19 UNL     1      10.264  63.751  -1.282  1.00  0.00     0.212 A 
HETATM   14  O7  UNL     1       9.923  65.079  -1.227  1.00  0.00    -0.369 OA
ENDROOT
BRANCH   1  15
HETATM   15  N1  UNL     1       7.734  62.983  -1.421  1.00  0.00    -0.325 N 
HETATM   16  C2  UNL     1       7.159  63.238  -2.682  1.00  0.00     0.360 C 
HETATM   17  O2  UNL     1       6.739  64.365  -3.024  1.00  0.00    -0.239 OA
ATOM     18  H1  UNL     1       8.052  62.033  -1.224  1.00  0.00     0.165 HD
BRANCH  16  19
HETATM   19  O1  UNL     1       7.042  62.212  -3.600  1.00  0.00    -0.309 OA
HETATM   20  C1  UNL     1       7.750  62.273  -4.837  1.00  0.00     0.215 C 
ENDBRANCH  16  19
ENDBRANCH   1  15
BRANCH   9  21
HETATM   21  C10 UNL     1       8.369  62.017   1.934  1.00  0.00     0.046 C 
BRANCH  21  22
HETATM   22  C11 UNL     1       7.480  60.840   1.945  1.00  0.00     0.004 C 
BRANCH  22  23
HETATM   23  C12 UNL     1       7.913  59.667   2.768  1.00  0.00     0.011 C 
BRANCH  23  24
HETATM   24  C13 UNL     1       6.630  59.047   3.353  1.00  0.00     0.085 C 
HETATM   25 BR2  UNL     1       7.022  57.215   3.769  1.00  0.00    -0.097 Br
ENDBRANCH  23  24
ENDBRANCH  22  23
ENDBRANCH  21  22
ENDBRANCH   9  21
BRANCH  11  26
HETATM   26  O5  UNL     1      11.016  63.612   1.274  1.00  0.00    -0.310 OA
BRANCH  26  27
HETATM   27  C16 UNL     1      12.300  64.057   1.443  1.00  0.00     0.255 C 
HETATM   28  C17 UNL     1      12.760  64.797   2.647  1.00  0.00     0.126 C 
HETATM   29  O6  UNL     1      13.138  63.831   0.537  1.00  0.00    -0.266 OA
ENDBRANCH  26  27
ENDBRANCH  11  26
BRANCH  10  30
HETATM   30  O4  UNL     1       8.579  65.555   2.792  1.00  0.00    -0.389 OA
ATOM     31  H4  UNL     1       9.156  65.866   3.479  1.00  0.00     0.210 HD
ENDBRANCH  10  30
TORSDOF 9
ENDMDL
MODEL 5
REMARK VINA RESULT: -6.587468573      2.093      2.463
REMARK  9 active torsions:
REMARK  status: ('A' for Active; 'I' for Inactive)
REMARK    1  A    between atoms: O1_2  and  C2_3 
REMARK       I    between atoms: C2_3  and  N1_5 
REMARK    2  A    between atoms: N1_5  and  C3_7 
REMARK    3  A    between atoms: C9_15  and  C10_16 
REMARK    4  A    between atoms: C10_16  and  C11_17 
REMARK    5  A    between atoms: C11_17  and  C12_18 
REMARK    6  A    between atoms: C12_18  and  C13_19 
REMARK    7  A    between atoms: C14_21  and  O4_22 
REMARK    8  A    between atoms: C15_24  and  O5_25 
REMARK    9  A    between atoms: O5_25  and  C16_26 
ROOT
HETATM    1  C3  UNL     1       9.251  65.686   2.588  1.00  0.00     0.158 C 
HETATM    2  C4  UNL     1       8.343  64.623   2.100  1.00  0.00    -0.021 C 
HETATM    3  C5  UNL     1       8.929  63.797   1.280  1.00  0.00    -0.019 C 
HETATM    4  C6  UNL     1       8.430  62.609   0.554  1.00  0.00     0.031 C 
HETATM    5  C7  UNL     1       7.194  63.027  -0.189  1.00  0.00     0.047 C 
HETATM    6  C8  UNL     1       6.040  63.447   0.646  1.00  0.00     0.194 C 
HETATM    7 BR1  UNL     1       4.756  61.944   0.490  1.00  0.00    -0.061 Br
HETATM    8  O3  UNL     1       6.160  63.675   1.932  1.00  0.00    -0.357 OA
HETATM    9  C9  UNL     1       6.909  64.605   2.539  1.00  0.00     0.116 C 
HETATM   10  C14 UNL     1       6.331  66.017   2.407  1.00  0.00     0.190 C 
HETATM   11  C15 UNL     1       7.161  67.085   2.995  1.00  0.00     0.203 C 
HETATM   12  C18 UNL     1       8.609  66.894   3.111  1.00  0.00     0.135 A 
HETATM   13  C19 UNL     1       9.352  67.613   4.234  1.00  0.00     0.212 A 
HETATM   14  O7  UNL     1       9.413  68.102   2.953  1.00  0.00    -0.369 OA
ENDROOT
BRANCH   1  15
HETATM   15  N1  UNL     1      10.277  65.243   3.502  1.00  0.00    -0.325 N 
HETATM   16  C2  UNL     1      11.655  65.246   3.206  1.00  0.00     0.360 C 
HETATM   17  O2  UNL     1      12.116  65.639   2.112  1.00  0.00    -0.239 OA
ATOM     18  H1  UNL     1       9.987  64.906   4.420  1.00  0.00     0.165 HD
BRANCH  16  19
HETATM   19  O1  UNL     1      12.557  64.798   4.151  1.00  0.00    -0.309 OA
HETATM   20  C1  UNL     1      13.017  65.676   5.177  1.00  0.00     0.215 C 
ENDBRANCH  16  19
ENDBRANCH   1  15
BRANCH   9  21
HETATM   21  C10 UNL     1       6.889  64.324   4.014  1.00  0.00     0.046 C 
BRANCH  21  22
HETATM   22  C11 UNL     1       6.244  63.088   4.500  1.00  0.00     0.004 C 
BRANCH  22  23
HETATM   23  C12 UNL     1       7.102  61.864   4.593  1.00  0.00     0.011 C 
BRANCH  23  24
HETATM   24  C13 UNL     1       6.376  60.761   3.800  1.00  0.00     0.085 C 
HETATM   25 BR2  UNL     1       7.710  59.803   2.807  1.00  0.00    -0.097 Br
ENDBRANCH  23  24
ENDBRANCH  22  23
ENDBRANCH  21  22
ENDBRANCH   9  21
BRANCH  11  26
HETATM   26  O5  UNL     1       6.688  67.465   4.283  1.00  0.00    -0.310 OA
BRANCH  26  27
HETATM   27  C16 UNL     1       5.946  68.584   4.552  1.00  0.00     0.255 C 
HETATM   28  C17 UNL     1       6.334  69.951   4.113  1.00  0.00     0.126 C 
HETATM   29  O6  UNL     1       4.880  68.456   5.202  1.00  0.00    -0.266 OA
ENDBRANCH  26  27
ENDBRANCH  11  26
BRANCH  10  30
HETATM   30  O4  UNL     1       6.025  66.312   1.082  1.00  0.00    -0.389 OA
ATOM     31  H4  UNL     1       5.090  66.429   0.965  1.00  0.00     0.210 HD
ENDBRANCH  10  30
TORSDOF 9
ENDMDL
