MODEL 1
REMARK VINA RESULT: -7.342405890      0.000      0.000
REMARK  7 active torsions:
REMARK  status: ('A' for Active; 'I' for Inactive)
REMARK    1  A    between atoms: C10_13  and  C11_14 
REMARK    2  A    between atoms: C14_19  and  O5_20 
REMARK    3  A    between atoms: O5_20  and  C15_21 
REMARK    4  A    between atoms: C15_21  and  C16_22 
REMARK    5  A    between atoms: C16_22  and  O6_23 
REMARK    6  A    between atoms: C17_25  and  N1_26 
REMARK       I    between atoms: N1_26  and  C18_28 
REMARK    7  A    between atoms: C18_28  and  C19_30 
ROOT
HETATM    1  C1  UNL     1       6.782  67.636   4.130  1.00  0.00     0.026 C 
HETATM    2  C2  UNL     1       6.352  67.985   2.952  1.00  0.00     0.023 C 
HETATM    3  C3  UNL     1       5.593  69.247   2.757  1.00  0.00     0.289 C 
HETATM    4  O1  UNL     1       5.449  70.205   3.577  1.00  0.00    -0.260 OA
HETATM    5  O2  UNL     1       5.057  69.164   1.464  1.00  0.00    -0.316 OA
HETATM    6  C4  UNL     1       6.050  68.494   0.730  1.00  0.00     0.198 C 
HETATM    7  C5  UNL     1       6.495  67.305   1.618  1.00  0.00     0.041 C 
HETATM    8  C6  UNL     1       5.404  66.334   1.455  1.00  0.00     0.004 C 
HETATM    9  C7  UNL     1       5.013  66.059   0.017  1.00  0.00     0.011 C 
HETATM   10  C8  UNL     1       5.489  65.048   2.213  1.00  0.00     0.040 C 
HETATM   11  C9  UNL     1       6.331  64.006   1.532  1.00  0.00     0.154 C 
HETATM   12  O3  UNL     1       6.273  62.856   2.343  1.00  0.00    -0.352 OA
HETATM   13  C10 UNL     1       7.256  62.966   3.294  1.00  0.00     0.274 C 
HETATM   14  O4  UNL     1       7.849  64.230   3.131  1.00  0.00    -0.352 OA
HETATM   15  C12 UNL     1       7.775  64.401   1.796  1.00  0.00     0.164 C 
HETATM   16  C13 UNL     1       8.263  65.553   1.096  1.00  0.00     0.079 C 
HETATM   17  C14 UNL     1       9.823  65.505   1.203  1.00  0.00     0.159 C 
HETATM   18  C17 UNL     1      10.332  66.002   2.491  1.00  0.00     0.143 C 
HETATM   19  C20 UNL     1       9.936  67.422   2.649  1.00  0.00    -0.059 C 
HETATM   20  C21 UNL     1      10.679  68.445   3.444  1.00  0.00     0.046 C 
HETATM   21  C22 UNL     1       8.808  67.787   2.067  1.00  0.00     0.009 C 
HETATM   22  C23 UNL     1       7.885  66.931   1.272  1.00  0.00    -0.054 C 
ENDROOT
BRANCH  17  23
HETATM   23  O5  UNL     1      10.184  64.195   1.004  1.00  0.00    -0.381 OA
BRANCH  23  24
HETATM   24  C15 UNL     1      10.529  63.936  -0.322  1.00  0.00     0.194 C 
BRANCH  24  25
HETATM   25  C16 UNL     1      11.995  64.276  -0.463  1.00  0.00     0.190 C 
BRANCH  25  26
HETATM   26  O6  UNL     1      12.758  63.578   0.449  1.00  0.00    -0.399 OA
ATOM     27  H6  UNL     1      13.628  63.953   0.528  1.00  0.00     0.209 HD
ENDBRANCH  25  26
ENDBRANCH  24  25
ENDBRANCH  23  24
ENDBRANCH  17  23
BRANCH  18  28
HETATM   28  N1  UNL     1      11.690  65.640   2.634  1.00  0.00    -0.350 N 
HETATM   29  C18 UNL     1      12.509  65.299   3.682  1.00  0.00     0.228 C 
HETATM   30  O7  UNL     1      12.121  65.282   4.859  1.00  0.00    -0.273 OA
ATOM     31  H1  UNL     1      12.182  65.629   1.741  1.00  0.00     0.163 HD
BRANCH  29  32
HETATM   32  C19 UNL     1      13.928  64.917   3.454  1.00  0.00     0.187 C 
HETATM   33 BR1  UNL     1      14.773  64.646   5.164  1.00  0.00    -0.087 Br
ENDBRANCH  29  32
ENDBRANCH  18  28
BRANCH  13  34
HETATM   34  C11 UNL     1       8.281  61.881   3.293  1.00  0.00     0.175 C 
HETATM   35 CL1  UNL     1       8.021  60.760   1.966  1.00  0.00    -0.125 Cl
ENDBRANCH  13  34
TORSDOF 7
ENDMDL
MODEL 2
REMARK VINA RESULT: -6.851816341      1.181      1.382
REMARK  7 active torsions:
REMARK  status: ('A' for Active; 'I' for Inactive)
REMARK    1  A    between atoms: C10_13  and  C11_14 
REMARK    2  A    between atoms: C14_19  and  O5_20 
REMARK    3  A    between atoms: O5_20  and  C15_21 
REMARK    4  A    between atoms: C15_21  and  C16_22 
REMARK    5  A    between atoms: C16_22  and  O6_23 
REMARK    6  A    between atoms: C17_25  and  N1_26 
REMARK       I    between atoms: N1_26  and  C18_28 
REMARK    7  A    between atoms: C18_28  and  C19_30 
ROOT
HETATM    1  C1  UNL     1       6.037  67.195   2.833  1.00  0.00     0.026 C 
HETATM    2  C2  UNL     1       6.101  67.296   1.537  1.00  0.00     0.023 C 
HETATM    3  C3  UNL     1       5.509  68.459   0.829  1.00  0.00     0.289 C 
HETATM    4  O1  UNL     1       5.087  69.546   1.332  1.00  0.00    -0.260 OA
HETATM    5  O2  UNL     1       5.508  68.109  -0.529  1.00  0.00    -0.316 OA
HETATM    6  C4  UNL     1       6.687  67.363  -0.685  1.00  0.00     0.198 C 
HETATM    7  C5  UNL     1       6.725  66.385   0.515  1.00  0.00     0.041 C 
HETATM    8  C6  UNL     1       5.755  65.349   0.139  1.00  0.00     0.004 C 
HETATM    9  C7  UNL     1       5.937  64.790  -1.257  1.00  0.00     0.011 C 
HETATM   10  C8  UNL     1       5.508  64.234   1.104  1.00  0.00     0.040 C 
HETATM   11  C9  UNL     1       6.518  63.124   1.009  1.00  0.00     0.154 C 
HETATM   12  O3  UNL     1       6.122  62.145   1.941  1.00  0.00    -0.352 OA
HETATM   13  C10 UNL     1       6.668  62.481   3.155  1.00  0.00     0.274 C 
HETATM   14  O4  UNL     1       7.313  63.718   2.990  1.00  0.00    -0.352 OA
HETATM   15  C12 UNL     1       7.761  63.633   1.722  1.00  0.00     0.164 C 
HETATM   16  C13 UNL     1       8.510  64.655   1.054  1.00  0.00     0.079 C 
HETATM   17  C14 UNL     1       9.908  64.705   1.754  1.00  0.00     0.159 C 
HETATM   18  C17 UNL     1       9.899  65.459   3.018  1.00  0.00     0.143 C 
HETATM   19  C20 UNL     1       9.511  66.863   2.737  1.00  0.00    -0.059 C 
HETATM   20  C21 UNL     1       9.919  68.052   3.542  1.00  0.00     0.046 C 
HETATM   21  C22 UNL     1       8.702  67.056   1.711  1.00  0.00     0.009 C 
HETATM   22  C23 UNL     1       8.132  66.022   0.805  1.00  0.00    -0.054 C 
ENDROOT
BRANCH  17  23
HETATM   23  O5  UNL     1      10.283  63.400   1.964  1.00  0.00    -0.381 OA
BRANCH  23  24
HETATM   24  C15 UNL     1      10.770  62.796   0.805  1.00  0.00     0.194 C 
BRANCH  24  25
HETATM   25  C16 UNL     1      11.779  63.751   0.210  1.00  0.00     0.190 C 
BRANCH  25  26
HETATM   26  O6  UNL     1      13.054  63.467   0.652  1.00  0.00    -0.399 OA
ATOM     27  H6  UNL     1      13.440  62.757   0.152  1.00  0.00     0.209 HD
ENDBRANCH  25  26
ENDBRANCH  24  25
ENDBRANCH  23  24
ENDBRANCH  17  23
BRANCH  18  28
HETATM   28  N1  UNL     1      11.087  65.198   3.734  1.00  0.00    -0.350 N 
HETATM   29  C18 UNL     1      12.428  65.394   3.515  1.00  0.00     0.228 C 
HETATM   30  O7  UNL     1      12.871  65.887   2.467  1.00  0.00    -0.273 OA
ATOM     31  H1  UNL     1      10.905  64.755   4.635  1.00  0.00     0.163 HD
BRANCH  29  32
HETATM   32  C19 UNL     1      13.436  65.025   4.544  1.00  0.00     0.187 C 
HETATM   33 BR1  UNL     1      14.993  64.322   3.653  1.00  0.00    -0.087 Br
ENDBRANCH  29  32
ENDBRANCH  18  28
BRANCH  13  34
HETATM   34  C11 UNL     1       7.586  61.466   3.753  1.00  0.00     0.175 C 
HETATM   35 CL1  UNL     1       7.915  60.160   2.625  1.00  0.00    -0.125 Cl
ENDBRANCH  13  34
TORSDOF 7
ENDMDL
MODEL 3
REMARK VINA RESULT: -6.640132308      5.164      7.960
REMARK  7 active torsions:
REMARK  status: ('A' for Active; 'I' for Inactive)
REMARK    1  A    between atoms: C10_13  and  C11_14 
REMARK    2  A    between atoms: C14_19  and  O5_20 
REMARK    3  A    between atoms: O5_20  and  C15_21 
REMARK    4  A    between atoms: C15_21  and  C16_22 
REMARK    5  A    between atoms: C16_22  and  O6_23 
REMARK    6  A    between atoms: C17_25  and  N1_26 
REMARK       I    between atoms: N1_26  and  C18_28 
REMARK    7  A    between atoms: C18_28  and  C19_30 
ROOT
HETATM    1  C1  UNL     1       8.589  62.629   0.675  1.00  0.00     0.026 C 
HETATM    2  C2  UNL     1       7.854  63.490   1.316  1.00  0.00     0.023 C 
HETATM    3  C3  UNL     1       8.191  64.937   1.312  1.00  0.00     0.289 C 
HETATM    4  O1  UNL     1       9.032  65.540   0.576  1.00  0.00    -0.260 OA
HETATM    5  O2  UNL     1       7.382  65.511   2.303  1.00  0.00    -0.316 OA
HETATM    6  C4  UNL     1       6.184  64.784   2.222  1.00  0.00     0.198 C 
HETATM    7  C5  UNL     1       6.602  63.296   2.128  1.00  0.00     0.041 C 
HETATM    8  C6  UNL     1       6.973  62.960   3.508  1.00  0.00     0.004 C 
HETATM    9  C7  UNL     1       5.951  63.360   4.553  1.00  0.00     0.011 C 
HETATM   10  C8  UNL     1       7.469  61.577   3.786  1.00  0.00     0.040 C 
HETATM   11  C9  UNL     1       6.366  60.575   3.988  1.00  0.00     0.154 C 
HETATM   12  O3  UNL     1       6.993  59.348   4.279  1.00  0.00    -0.352 OA
HETATM   13  C10 UNL     1       7.277  58.731   3.086  1.00  0.00     0.274 C 
HETATM   14  O4  UNL     1       6.918  59.625   2.063  1.00  0.00    -0.352 OA
HETATM   15  C12 UNL     1       5.847  60.244   2.597  1.00  0.00     0.164 C 
HETATM   16  C13 UNL     1       5.085  61.264   1.938  1.00  0.00     0.079 C 
HETATM   17  C14 UNL     1       4.338  60.561   0.757  1.00  0.00     0.159 C 
HETATM   18  C17 UNL     1       5.188  60.352  -0.426  1.00  0.00     0.143 C 
HETATM   19  C20 UNL     1       5.641  61.671  -0.931  1.00  0.00    -0.059 C 
HETATM   20  C21 UNL     1       5.991  61.981  -2.349  1.00  0.00     0.046 C 
HETATM   21  C22 UNL     1       5.781  62.629  -0.033  1.00  0.00     0.009 C 
HETATM   22  C23 UNL     1       5.540  62.533   1.433  1.00  0.00    -0.054 C 
ENDROOT
BRANCH  17  23
HETATM   23  O5  UNL     1       3.878  59.363   1.248  1.00  0.00    -0.381 OA
BRANCH  23  24
HETATM   24  C15 UNL     1       2.486  59.324   1.332  1.00  0.00     0.194 C 
BRANCH  24  25
HETATM   25  C16 UNL     1       2.069  57.921   0.955  1.00  0.00     0.190 C 
BRANCH  25  26
HETATM   26  O6  UNL     1       3.130  57.206   0.442  1.00  0.00    -0.399 OA
ATOM     27  H6  UNL     1       2.852  56.640  -0.269  1.00  0.00     0.209 HD
ENDBRANCH  25  26
ENDBRANCH  24  25
ENDBRANCH  23  24
ENDBRANCH  17  23
BRANCH  18  28
HETATM   28  N1  UNL     1       4.556  59.450  -1.310  1.00  0.00    -0.350 N 
HETATM   29  C18 UNL     1       3.473  59.498  -2.152  1.00  0.00     0.228 C 
HETATM   30  O7  UNL     1       2.751  60.500  -2.260  1.00  0.00    -0.273 OA
ATOM     31  H1  UNL     1       5.016  58.540  -1.326  1.00  0.00     0.163 HD
BRANCH  29  32
HETATM   32  C19 UNL     1       3.108  58.333  -3.000  1.00  0.00     0.187 C 
HETATM   33 BR1  UNL     1       3.051  58.905  -4.839  1.00  0.00    -0.087 Br
ENDBRANCH  29  32
ENDBRANCH  18  28
BRANCH  13  34
HETATM   34  C11 UNL     1       6.645  57.393   2.884  1.00  0.00     0.175 C 
HETATM   35 CL1  UNL     1       7.013  56.307   4.216  1.00  0.00    -0.125 Cl
ENDBRANCH  13  34
TORSDOF 7
ENDMDL
MODEL 4
REMARK VINA RESULT: -6.554043660      3.749      6.437
REMARK  7 active torsions:
REMARK  status: ('A' for Active; 'I' for Inactive)
REMARK    1  A    between atoms: C10_13  and  C11_14 
REMARK    2  A    between atoms: C14_19  and  O5_20 
REMARK    3  A    between atoms: O5_20  and  C15_21 
REMARK    4  A    between atoms: C15_21  and  C16_22 
REMARK    5  A    between atoms: C16_22  and  O6_23 
REMARK    6  A    between atoms: C17_25  and  N1_26 
REMARK       I    between atoms: N1_26  and  C18_28 
REMARK    7  A    between atoms: C18_28  and  C19_30 
ROOT
HETATM    1  C1  UNL     1       3.770  62.240   0.678  1.00  0.00     0.026 C 
HETATM    2  C2  UNL     1       4.247  61.065   0.968  1.00  0.00     0.023 C 
HETATM    3  C3  UNL     1       3.440  59.836   0.753  1.00  0.00     0.289 C 
HETATM    4  O1  UNL     1       2.353  59.721   0.108  1.00  0.00    -0.260 OA
HETATM    5  O2  UNL     1       4.131  58.815   1.421  1.00  0.00    -0.316 OA
HETATM    6  C4  UNL     1       5.483  59.144   1.233  1.00  0.00     0.198 C 
HETATM    7  C5  UNL     1       5.587  60.662   1.521  1.00  0.00     0.041 C 
HETATM    8  C6  UNL     1       5.543  60.733   2.987  1.00  0.00     0.004 C 
HETATM    9  C7  UNL     1       6.499  59.794   3.694  1.00  0.00     0.011 C 
HETATM   10  C8  UNL     1       5.590  62.083   3.628  1.00  0.00     0.040 C 
HETATM   11  C9  UNL     1       6.985  62.622   3.784  1.00  0.00     0.154 C 
HETATM   12  O3  UNL     1       6.859  63.865   4.435  1.00  0.00    -0.352 OA
HETATM   13  C10 UNL     1       6.644  64.820   3.473  1.00  0.00     0.274 C 
HETATM   14  O4  UNL     1       6.535  64.150   2.242  1.00  0.00    -0.352 OA
HETATM   15  C12 UNL     1       7.393  63.123   2.407  1.00  0.00     0.164 C 
HETATM   16  C13 UNL     1       7.665  62.125   1.417  1.00  0.00     0.079 C 
HETATM   17  C14 UNL     1       8.440  62.846   0.265  1.00  0.00     0.159 C 
HETATM   18  C17 UNL     1       7.561  63.593  -0.648  1.00  0.00     0.143 C 
HETATM   19  C20 UNL     1       6.622  62.644  -1.294  1.00  0.00    -0.059 C 
HETATM   20  C21 UNL     1       5.999  62.823  -2.639  1.00  0.00     0.046 C 
HETATM   21  C22 UNL     1       6.287  61.578  -0.591  1.00  0.00     0.009 C 
HETATM   22  C23 UNL     1       6.742  61.221   0.781  1.00  0.00    -0.054 C 
ENDROOT
BRANCH  17  23
HETATM   23  O5  UNL     1       9.343  63.685   0.873  1.00  0.00    -0.381 OA
BRANCH  23  24
HETATM   24  C15 UNL     1      10.593  63.089   1.038  1.00  0.00     0.194 C 
BRANCH  24  25
HETATM   25  C16 UNL     1      11.600  64.004   0.380  1.00  0.00     0.190 C 
BRANCH  25  26
HETATM   26  O6  UNL     1      12.882  63.516   0.518  1.00  0.00    -0.399 OA
ATOM     27  H6  UNL     1      13.036  63.202   1.401  1.00  0.00     0.209 HD
ENDBRANCH  25  26
ENDBRANCH  24  25
ENDBRANCH  23  24
ENDBRANCH  17  23
BRANCH  18  28
HETATM   28  N1  UNL     1       8.337  64.457  -1.451  1.00  0.00    -0.350 N 
HETATM   29  C18 UNL     1       9.254  64.299  -2.460  1.00  0.00     0.228 C 
HETATM   30  O7  UNL     1       9.619  63.185  -2.866  1.00  0.00    -0.273 OA
ATOM     31  H1  UNL     1       8.177  65.439  -1.227  1.00  0.00     0.163 HD
BRANCH  29  32
HETATM   32  C19 UNL     1       9.862  65.475  -3.137  1.00  0.00     0.187 C 
HETATM   33 BR1  UNL     1       9.247  65.519  -4.962  1.00  0.00    -0.087 Br
ENDBRANCH  29  32
ENDBRANCH  18  28
BRANCH  13  34
HETATM   34  C11 UNL     1       7.660  65.913   3.408  1.00  0.00     0.175 C 
HETATM   35 CL1  UNL     1       7.724  66.629   1.805  1.00  0.00    -0.125 Cl
ENDBRANCH  13  34
TORSDOF 7
ENDMDL
MODEL 5
REMARK VINA RESULT: -6.350372248      3.128      4.840
REMARK  7 active torsions:
REMARK  status: ('A' for Active; 'I' for Inactive)
REMARK    1  A    between atoms: C10_13  and  C11_14 
REMARK    2  A    between atoms: C14_19  and  O5_20 
REMARK    3  A    between atoms: O5_20  and  C15_21 
REMARK    4  A    between atoms: C15_21  and  C16_22 
REMARK    5  A    between atoms: C16_22  and  O6_23 
REMARK    6  A    between atoms: C17_25  and  N1_26 
REMARK       I    between atoms: N1_26  and  C18_28 
REMARK    7  A    between atoms: C18_28  and  C19_30 
ROOT
HETATM    1  C1  UNL     1       9.323  67.868   4.160  1.00  0.00     0.026 C 
HETATM    2  C2  UNL     1       8.822  68.669   3.266  1.00  0.00     0.023 C 
HETATM    3  C3  UNL     1       9.580  69.853   2.787  1.00  0.00     0.289 C 
HETATM    4  O1  UNL     1      10.804  70.126   2.983  1.00  0.00    -0.260 OA
HETATM    5  O2  UNL     1       8.655  70.623   2.067  1.00  0.00    -0.316 OA
HETATM    6  C4  UNL     1       7.835  69.668   1.445  1.00  0.00     0.198 C 
HETATM    7  C5  UNL     1       7.505  68.623   2.540  1.00  0.00     0.041 C 
HETATM    8  C6  UNL     1       6.484  69.296   3.354  1.00  0.00     0.004 C 
HETATM    9  C7  UNL     1       5.343  69.902   2.563  1.00  0.00     0.011 C 
HETATM   10  C8  UNL     1       5.947  68.573   4.547  1.00  0.00     0.040 C 
HETATM   11  C9  UNL     1       4.844  67.607   4.215  1.00  0.00     0.154 C 
HETATM   12  O3  UNL     1       4.424  67.047   5.438  1.00  0.00    -0.352 OA
HETATM   13  C10 UNL     1       5.231  65.969   5.702  1.00  0.00     0.274 C 
HETATM   14  O4  UNL     1       6.210  65.928   4.694  1.00  0.00    -0.352 OA
HETATM   15  C12 UNL     1       5.527  66.383   3.624  1.00  0.00     0.164 C 
HETATM   16  C13 UNL     1       6.080  66.529   2.310  1.00  0.00     0.079 C 
HETATM   17  C14 UNL     1       6.338  65.081   1.778  1.00  0.00     0.159 C 
HETATM   18  C17 UNL     1       7.581  64.485   2.296  1.00  0.00     0.143 C 
HETATM   19  C20 UNL     1       8.730  65.313   1.857  1.00  0.00    -0.059 C 
HETATM   20  C21 UNL     1      10.121  64.817   1.637  1.00  0.00     0.046 C 
HETATM   21  C22 UNL     1       8.497  66.603   1.691  1.00  0.00     0.009 C 
HETATM   22  C23 UNL     1       7.210  67.321   1.899  1.00  0.00    -0.054 C 
ENDROOT
BRANCH  17  23
HETATM   23  O5  UNL     1       5.246  64.334   2.145  1.00  0.00    -0.381 OA
BRANCH  23  24
HETATM   24  C15 UNL     1       4.385  64.093   1.074  1.00  0.00     0.194 C 
BRANCH  24  25
HETATM   25  C16 UNL     1       4.115  62.606   1.060  1.00  0.00     0.190 C 
BRANCH  25  26
HETATM   26  O6  UNL     1       4.510  62.017   2.243  1.00  0.00    -0.399 OA
ATOM     27  H6  UNL     1       5.212  61.393   2.098  1.00  0.00     0.209 HD
ENDBRANCH  25  26
ENDBRANCH  24  25
ENDBRANCH  23  24
ENDBRANCH  17  23
BRANCH  18  28
HETATM   28  N1  UNL     1       7.585  63.097   2.033  1.00  0.00    -0.350 N 
HETATM   29  C18 UNL     1       7.948  61.969   2.726  1.00  0.00     0.228 C 
HETATM   30  O7  UNL     1       8.435  62.009   3.865  1.00  0.00    -0.273 OA
ATOM     31  H1  UNL     1       7.231  62.880   1.102  1.00  0.00     0.163 HD
BRANCH  29  32
HETATM   32  C19 UNL     1       7.767  60.616   2.137  1.00  0.00     0.187 C 
HETATM   33 BR1  UNL     1       6.916  59.486   3.446  1.00  0.00    -0.087 Br
ENDBRANCH  29  32
ENDBRANCH  18  28
BRANCH  13  34
HETATM   34  C11 UNL     1       4.532  64.656   5.833  1.00  0.00     0.175 C 
HETATM   35 CL1  UNL     1       5.567  63.329   5.328  1.00  0.00    -0.125 Cl
ENDBRANCH  13  34
TORSDOF 7
ENDMDL
