MODEL 1
REMARK VINA RESULT: -6.818425716      0.000      0.000
REMARK  3 active torsions:
REMARK  status: ('A' for Active; 'I' for Inactive)
REMARK    1  A    between atoms: S1_2  and  N1_3 
REMARK    2  A    between atoms: S1_2  and  C2_7 
REMARK    3  A    between atoms: N1_3  and  O1_5 
ROOT
HETATM    1  C2  UNL     1      50.118 161.278  31.135  1.00  0.00     0.058 C 
HETATM    2  C3  UNL     1      49.568 160.945  32.462  1.00  0.00     0.016 C 
HETATM    3  C4  UNL     1      48.185 160.352  32.448  1.00  0.00     0.001 C 
HETATM    4  C5  UNL     1      47.254 161.138  31.532  1.00  0.00     0.000 C 
HETATM    5  C6  UNL     1      46.665 160.265  30.479  1.00  0.00     0.000 C 
HETATM    6  C7  UNL     1      47.428 160.136  29.229  1.00  0.00     0.000 C 
HETATM    7  C8  UNL     1      48.714 160.893  29.155  1.00  0.00     0.001 C 
HETATM    8  C9  UNL     1      49.800 160.330  30.036  1.00  0.00     0.016 C 
ENDROOT
BRANCH   1   9
HETATM    9  S1  UNL     1      51.944 161.518  31.284  1.00  0.00    -0.105 SA
HETATM   10  C1  UNL     1      52.746 162.957  30.450  1.00  0.00     0.104 C 
BRANCH   9  11
HETATM   11  N1  UNL     1      52.704 161.001  32.633  1.00  0.00    -0.253 N 
ATOM     12  H1  UNL     1      52.240 160.367  33.284  1.00  0.00     0.201 HD
BRANCH  11  13
HETATM   13  O1  UNL     1      53.966 161.435  32.865  1.00  0.00    -0.284 OA
ATOM     14  H1  UNL     1      54.191 161.712  33.745  1.00  0.00     0.245 HD
ENDBRANCH  11  13
ENDBRANCH   9  11
ENDBRANCH   1   9
TORSDOF 3
ENDMDL
MODEL 2
REMARK VINA RESULT: -6.616812269      0.655      2.089
REMARK  3 active torsions:
REMARK  status: ('A' for Active; 'I' for Inactive)
REMARK    1  A    between atoms: S1_2  and  N1_3 
REMARK    2  A    between atoms: S1_2  and  C2_7 
REMARK    3  A    between atoms: N1_3  and  O1_5 
ROOT
HETATM    1  C2  UNL     1      50.393 160.758  31.108  1.00  0.00     0.058 C 
HETATM    2  C3  UNL     1      50.016 160.825  29.684  1.00  0.00     0.016 C 
HETATM    3  C4  UNL     1      48.544 160.684  29.407  1.00  0.00     0.001 C 
HETATM    4  C5  UNL     1      47.941 159.524  30.190  1.00  0.00     0.000 C 
HETATM    5  C6  UNL     1      46.820 159.980  31.057  1.00  0.00     0.000 C 
HETATM    6  C7  UNL     1      47.175 160.422  32.413  1.00  0.00     0.000 C 
HETATM    7  C8  UNL     1      48.625 160.369  32.770  1.00  0.00     0.001 C 
HETATM    8  C9  UNL     1      49.461 161.408  32.065  1.00  0.00     0.016 C 
ENDROOT
BRANCH   1   9
HETATM    9  S1  UNL     1      52.105 161.424  31.309  1.00  0.00    -0.105 SA
HETATM   10  C1  UNL     1      52.594 162.967  30.421  1.00  0.00     0.104 C 
BRANCH   9  11
HETATM   11  N1  UNL     1      52.895 161.166  32.715  1.00  0.00    -0.253 N 
ATOM     12  H1  UNL     1      52.383 160.956  33.572  1.00  0.00     0.201 HD
BRANCH  11  13
HETATM   13  O1  UNL     1      54.247 161.238  32.713  1.00  0.00    -0.284 OA
ATOM     14  H1  UNL     1      54.652 162.097  32.752  1.00  0.00     0.245 HD
ENDBRANCH  11  13
ENDBRANCH   9  11
ENDBRANCH   1   9
TORSDOF 3
ENDMDL
MODEL 3
REMARK VINA RESULT: -6.343004562      1.077      1.077
REMARK  3 active torsions:
REMARK  status: ('A' for Active; 'I' for Inactive)
REMARK    1  A    between atoms: S1_2  and  N1_3 
REMARK    2  A    between atoms: S1_2  and  C2_7 
REMARK    3  A    between atoms: N1_3  and  O1_5 
ROOT
HETATM    1  C2  UNL     1      50.217 161.469  31.069  1.00  0.00     0.058 C 
HETATM    2  C3  UNL     1      49.825 161.114  32.446  1.00  0.00     0.016 C 
HETATM    3  C4  UNL     1      48.544 160.335  32.563  1.00  0.00     0.001 C 
HETATM    4  C5  UNL     1      47.442 160.948  31.706  1.00  0.00     0.000 C 
HETATM    5  C6  UNL     1      46.902 159.961  30.730  1.00  0.00     0.000 C 
HETATM    6  C7  UNL     1      47.575 159.892  29.425  1.00  0.00     0.000 C 
HETATM    7  C8  UNL     1      48.730 160.817  29.224  1.00  0.00     0.001 C 
HETATM    8  C9  UNL     1      49.951 160.445  30.026  1.00  0.00     0.016 C 
ENDROOT
BRANCH   1   9
HETATM    9  S1  UNL     1      51.996 161.966  31.059  1.00  0.00    -0.105 SA
HETATM   10  C1  UNL     1      52.597 163.235  32.259  1.00  0.00     0.104 C 
BRANCH   9  11
HETATM   11  N1  UNL     1      53.121 160.876  30.599  1.00  0.00    -0.253 N 
ATOM     12  H1  UNL     1      52.849 159.943  30.288  1.00  0.00     0.201 HD
BRANCH  11  13
HETATM   13  O1  UNL     1      54.424 161.242  30.640  1.00  0.00    -0.284 OA
ATOM     14  H1  UNL     1      54.643 162.146  30.450  1.00  0.00     0.245 HD
ENDBRANCH  11  13
ENDBRANCH   9  11
ENDBRANCH   1   9
TORSDOF 3
ENDMDL
MODEL 4
REMARK VINA RESULT: -6.129201824      1.251      2.356
REMARK  3 active torsions:
REMARK  status: ('A' for Active; 'I' for Inactive)
REMARK    1  A    between atoms: S1_2  and  N1_3 
REMARK    2  A    between atoms: S1_2  and  C2_7 
REMARK    3  A    between atoms: N1_3  and  O1_5 
ROOT
HETATM    1  C2  UNL     1      50.252 160.910  31.028  1.00  0.00     0.058 C 
HETATM    2  C3  UNL     1      49.713 160.880  29.656  1.00  0.00     0.016 C 
HETATM    3  C4  UNL     1      48.233 160.626  29.558  1.00  0.00     0.001 C 
HETATM    4  C5  UNL     1      47.809 159.468  30.455  1.00  0.00     0.000 C 
HETATM    5  C6  UNL     1      46.763 159.889  31.426  1.00  0.00     0.000 C 
HETATM    6  C7  UNL     1      47.236 160.422  32.712  1.00  0.00     0.000 C 
HETATM    7  C8  UNL     1      48.716 160.486  32.900  1.00  0.00     0.001 C 
HETATM    8  C9  UNL     1      49.389 161.542  32.059  1.00  0.00     0.016 C 
ENDROOT
BRANCH   1   9
HETATM    9  S1  UNL     1      51.922 161.701  31.001  1.00  0.00    -0.105 SA
HETATM   10  C1  UNL     1      52.282 163.113  32.134  1.00  0.00     0.104 C 
BRANCH   9  11
HETATM   11  N1  UNL     1      53.222 160.794  30.607  1.00  0.00    -0.253 N 
ATOM     12  H1  UNL     1      53.113 159.820  30.321  1.00  0.00     0.201 HD
BRANCH  11  13
HETATM   13  O1  UNL     1      54.447 161.367  30.669  1.00  0.00    -0.284 OA
ATOM     14  H1  UNL     1      54.641 161.932  31.407  1.00  0.00     0.245 HD
ENDBRANCH  11  13
ENDBRANCH   9  11
ENDBRANCH   1   9
TORSDOF 3
ENDMDL
MODEL 5
REMARK VINA RESULT: -5.634939862      1.057      1.057
REMARK  3 active torsions:
REMARK  status: ('A' for Active; 'I' for Inactive)
REMARK    1  A    between atoms: S1_2  and  N1_3 
REMARK    2  A    between atoms: S1_2  and  C2_7 
REMARK    3  A    between atoms: N1_3  and  O1_5 
ROOT
HETATM    1  C2  UNL     1      50.017 161.378  31.411  1.00  0.00     0.058 C 
HETATM    2  C3  UNL     1      49.403 160.923  32.673  1.00  0.00     0.016 C 
HETATM    3  C4  UNL     1      48.104 160.180  32.517  1.00  0.00     0.001 C 
HETATM    4  C5  UNL     1      47.166 160.899  31.554  1.00  0.00     0.000 C 
HETATM    5  C6  UNL     1      46.770 160.015  30.422  1.00  0.00     0.000 C 
HETATM    6  C7  UNL     1      47.642 160.033  29.239  1.00  0.00     0.000 C 
HETATM    7  C8  UNL     1      48.832 160.932  29.304  1.00  0.00     0.001 C 
HETATM    8  C9  UNL     1      49.902 160.454  30.254  1.00  0.00     0.016 C 
ENDROOT
BRANCH   1   9
HETATM    9  S1  UNL     1      51.784 161.815  31.726  1.00  0.00    -0.105 SA
HETATM   10  C1  UNL     1      53.092 161.220  30.565  1.00  0.00     0.104 C 
BRANCH   9  11
HETATM   11  N1  UNL     1      52.131 163.220  32.482  1.00  0.00    -0.253 N 
ATOM     12  H1  UNL     1      51.430 163.956  32.567  1.00  0.00     0.201 HD
BRANCH  11  13
HETATM   13  O1  UNL     1      53.374 163.383  32.994  1.00  0.00    -0.284 OA
ATOM     14  H1  UNL     1      53.505 164.057  33.650  1.00  0.00     0.245 HD
ENDBRANCH  11  13
ENDBRANCH   9  11
ENDBRANCH   1   9
TORSDOF 3
ENDMDL
