MODEL 1
REMARK VINA RESULT: -3.784742804      0.000      0.000
REMARK  4 active torsions:
REMARK  status: ('A' for Active; 'I' for Inactive)
REMARK    1  A    between atoms: N1_1  and  C1_4 
REMARK    2  A    between atoms: C4_9  and  C5_10 
REMARK    3  A    between atoms: C8_13  and  C9_14 
REMARK    4  A    between atoms: C12_19  and  N4_20 
ROOT
HETATM    1  C5  UNL     1     -24.548  48.126  14.761  1.00  0.00     0.007 A 
HETATM    2  C6  UNL     1     -25.885  48.424  14.895  1.00  0.00     0.017 A 
HETATM    3  C7  UNL     1     -26.420  48.785  16.136  1.00  0.00     0.033 A 
HETATM    4  C8  UNL     1     -25.616  48.847  17.245  1.00  0.00     0.059 A 
HETATM    5  N6  UNL     1     -24.315  48.553  17.101  1.00  0.00    -0.363 N 
ATOM      6  H6  UNL     1     -23.708  48.595  17.919  1.00  0.00     0.165 HD
HETATM    7  C13 UNL     1     -23.774  48.199  15.898  1.00  0.00     0.102 A 
ENDROOT
BRANCH   1   8
HETATM    8  C4  UNL     1     -23.964  47.741  13.452  1.00  0.00     0.060 A 
HETATM    9  C3  UNL     1     -24.757  47.283  12.429  1.00  0.00     0.118 A 
HETATM   10  N2  UNL     1     -24.254  46.921  11.214  1.00  0.00    -0.370 N 
HETATM   11  C2  UNL     1     -22.925  47.026  11.039  1.00  0.00     0.136 A 
ATOM     12  H2  UNL     1     -24.862  46.583  10.468  1.00  0.00     0.164 HD
HETATM   13  C1  UNL     1     -22.111  47.483  12.049  1.00  0.00     0.115 A 
HETATM   14  N7  UNL     1     -22.636  47.835  13.243  1.00  0.00    -0.340 N 
ATOM     15  H7  UNL     1     -22.026  48.173  13.987  1.00  0.00     0.167 HD
BRANCH  13  16
HETATM   16  N1  UNL     1     -20.839  47.565  11.826  1.00  0.00    -0.384 N 
ATOM     17  H12 UNL     1     -20.478  47.747  10.889  1.00  0.00     0.157 HD
ATOM     18  H11 UNL     1     -20.199  47.442  12.610  1.00  0.00     0.157 HD
ENDBRANCH  13  16
ENDBRANCH   1   8
BRANCH   4  19
HETATM   19  C9  UNL     1     -26.103  49.218  18.582  1.00  0.00     0.077 A 
HETATM   20  C10 UNL     1     -25.699  48.495  19.681  1.00  0.00     0.050 A 
HETATM   21  C11 UNL     1     -26.192  48.890  20.920  1.00  0.00     0.108 A 
HETATM   22  N3  UNL     1     -27.023  49.936  21.008  1.00  0.00    -0.202 N 
HETATM   23  C12 UNL     1     -27.411  50.634  19.934  1.00  0.00     0.676 A 
ATOM     24  H3  UNL     1     -27.372  50.210  21.926  1.00  0.00     0.183 HD
HETATM   25  N5  UNL     1     -26.944  50.265  18.733  1.00  0.00    -0.190 N 
ATOM     26  H5  UNL     1     -27.233  50.790  17.907  1.00  0.00     0.184 HD
BRANCH  23  27
HETATM   27  N4  UNL     1     -28.227  51.655  20.050  1.00  0.00    -0.234 N 
ATOM     28  H42 UNL     1     -29.222  51.508  20.222  1.00  0.00     0.174 HD
ATOM     29  H41 UNL     1     -27.887  52.613  19.972  1.00  0.00     0.174 HD
ENDBRANCH  23  27
ENDBRANCH   4  19
TORSDOF 4
ENDMDL
MODEL 2
REMARK VINA RESULT: -3.586566168      0.852      7.878
REMARK  4 active torsions:
REMARK  status: ('A' for Active; 'I' for Inactive)
REMARK    1  A    between atoms: N1_1  and  C1_4 
REMARK    2  A    between atoms: C4_9  and  C5_10 
REMARK    3  A    between atoms: C8_13  and  C9_14 
REMARK    4  A    between atoms: C12_19  and  N4_20 
ROOT
HETATM    1  C5  UNL     1     -25.320  48.701  17.107  1.00  0.00     0.007 A 
HETATM    2  C6  UNL     1     -26.126  48.551  16.002  1.00  0.00     0.017 A 
HETATM    3  C7  UNL     1     -25.581  48.239  14.751  1.00  0.00     0.033 A 
HETATM    4  C8  UNL     1     -24.227  48.078  14.607  1.00  0.00     0.059 A 
HETATM    5  N6  UNL     1     -23.452  48.228  15.692  1.00  0.00    -0.363 N 
ATOM      6  H6  UNL     1     -22.444  48.111  15.597  1.00  0.00     0.165 HD
HETATM    7  C13 UNL     1     -23.967  48.531  16.922  1.00  0.00     0.102 A 
ENDROOT
BRANCH   1   8
HETATM    8  C4  UNL     1     -25.883  49.031  18.441  1.00  0.00     0.060 A 
HETATM    9  C3  UNL     1     -25.598  48.262  19.541  1.00  0.00     0.118 A 
HETATM   10  N2  UNL     1     -26.098  48.537  20.780  1.00  0.00    -0.370 N 
HETATM   11  C2  UNL     1     -26.899  49.610  20.899  1.00  0.00     0.136 A 
ATOM     12  H2  UNL     1     -25.873  47.951  21.583  1.00  0.00     0.164 HD
HETATM   13  C1  UNL     1     -27.197  50.396  19.811  1.00  0.00     0.115 A 
HETATM   14  N7  UNL     1     -26.688  50.101  18.595  1.00  0.00    -0.340 N 
ATOM     15  H7  UNL     1     -26.914  50.689  17.792  1.00  0.00     0.167 HD
BRANCH  13  16
HETATM   16  N1  UNL     1     -27.973  51.417  19.983  1.00  0.00    -0.384 N 
ATOM     17  H12 UNL     1     -28.256  52.004  19.198  1.00  0.00     0.157 HD
ATOM     18  H11 UNL     1     -28.299  51.626  20.927  1.00  0.00     0.157 HD
ENDBRANCH  13  16
ENDBRANCH   1   8
BRANCH   4  19
HETATM   19  C9  UNL     1     -23.579  47.751  13.328  1.00  0.00     0.077 A 
HETATM   20  C10 UNL     1     -24.349  47.445  12.231  1.00  0.00     0.050 A 
HETATM   21  C11 UNL     1     -23.683  47.144  11.048  1.00  0.00     0.108 A 
HETATM   22  N3  UNL     1     -22.345  47.160  11.011  1.00  0.00    -0.202 N 
HETATM   23  C12 UNL     1     -21.602  47.459  12.083  1.00  0.00     0.676 A 
ATOM     24  H3  UNL     1     -21.875  46.937  10.133  1.00  0.00     0.183 HD
HETATM   25  N5  UNL     1     -22.231  47.751  13.230  1.00  0.00    -0.190 N 
ATOM     26  H5  UNL     1     -21.676  47.981  14.055  1.00  0.00     0.184 HD
BRANCH  23  27
HETATM   27  N4  UNL     1     -20.292  47.466  12.018  1.00  0.00    -0.234 N 
ATOM     28  H42 UNL     1     -19.804  46.940  11.292  1.00  0.00     0.174 HD
ATOM     29  H41 UNL     1     -19.734  47.996  12.688  1.00  0.00     0.174 HD
ENDBRANCH  23  27
ENDBRANCH   4  19
TORSDOF 4
ENDMDL
MODEL 3
REMARK VINA RESULT: -3.462831246      0.571      1.058
REMARK  4 active torsions:
REMARK  status: ('A' for Active; 'I' for Inactive)
REMARK    1  A    between atoms: N1_1  and  C1_4 
REMARK    2  A    between atoms: C4_9  and  C5_10 
REMARK    3  A    between atoms: C8_13  and  C9_14 
REMARK    4  A    between atoms: C12_19  and  N4_20 
ROOT
HETATM    1  C5  UNL     1     -24.416  48.082  14.803  1.00  0.00     0.007 A 
HETATM    2  C6  UNL     1     -23.583  48.076  15.898  1.00  0.00     0.017 A 
HETATM    3  C7  UNL     1     -24.062  48.426  17.166  1.00  0.00     0.033 A 
HETATM    4  C8  UNL     1     -25.375  48.783  17.336  1.00  0.00     0.059 A 
HETATM    5  N6  UNL     1     -26.175  48.786  16.259  1.00  0.00    -0.363 N 
ATOM      6  H6  UNL     1     -27.153  49.051  16.374  1.00  0.00     0.165 HD
HETATM    7  C13 UNL     1     -25.726  48.446  15.014  1.00  0.00     0.102 A 
ENDROOT
BRANCH   1   8
HETATM    8  C4  UNL     1     -23.924  47.712  13.451  1.00  0.00     0.060 A 
HETATM    9  C3  UNL     1     -24.794  47.348  12.455  1.00  0.00     0.118 A 
HETATM   10  N2  UNL     1     -24.377  47.003  11.203  1.00  0.00    -0.370 N 
HETATM   11  C2  UNL     1     -23.055  47.029  10.963  1.00  0.00     0.136 A 
ATOM     12  H2  UNL     1     -25.042  46.735  10.478  1.00  0.00     0.164 HD
HETATM   13  C1  UNL     1     -22.164  47.392  11.946  1.00  0.00     0.115 A 
HETATM   14  N7  UNL     1     -22.604  47.730  13.178  1.00  0.00    -0.340 N 
ATOM     15  H7  UNL     1     -21.937  47.997  13.901  1.00  0.00     0.167 HD
BRANCH  13  16
HETATM   16  N1  UNL     1     -20.901  47.401  11.660  1.00  0.00    -0.384 N 
ATOM     17  H12 UNL     1     -20.466  48.208  11.215  1.00  0.00     0.157 HD
ATOM     18  H11 UNL     1     -20.345  46.577  11.890  1.00  0.00     0.157 HD
ENDBRANCH  13  16
ENDBRANCH   1   8
BRANCH   4  19
HETATM   19  C9  UNL     1     -25.952  49.164  18.634  1.00  0.00     0.077 A 
HETATM   20  C10 UNL     1     -25.637  48.441  19.760  1.00  0.00     0.050 A 
HETATM   21  C11 UNL     1     -26.212  48.846  20.960  1.00  0.00     0.108 A 
HETATM   22  N3  UNL     1     -27.034  49.902  20.985  1.00  0.00    -0.202 N 
HETATM   23  C12 UNL     1     -27.336  50.602  19.884  1.00  0.00     0.676 A 
ATOM     24  H3  UNL     1     -27.445  50.184  21.875  1.00  0.00     0.183 HD
HETATM   25  N5  UNL     1     -26.788  50.222  18.721  1.00  0.00    -0.190 N 
ATOM     26  H5  UNL     1     -27.010  50.748  17.875  1.00  0.00     0.184 HD
BRANCH  23  27
HETATM   27  N4  UNL     1     -28.145  51.633  19.938  1.00  0.00    -0.234 N 
ATOM     28  H42 UNL     1     -29.136  51.506  20.146  1.00  0.00     0.174 HD
ATOM     29  H41 UNL     1     -27.803  52.580  19.775  1.00  0.00     0.174 HD
ENDBRANCH  23  27
ENDBRANCH   4  19
TORSDOF 4
ENDMDL
MODEL 4
REMARK VINA RESULT: -1.938661530      1.360      7.773
REMARK  4 active torsions:
REMARK  status: ('A' for Active; 'I' for Inactive)
REMARK    1  A    between atoms: N1_1  and  C1_4 
REMARK    2  A    between atoms: C4_9  and  C5_10 
REMARK    3  A    between atoms: C8_13  and  C9_14 
REMARK    4  A    between atoms: C12_19  and  N4_20 
ROOT
HETATM    1  C5  UNL     1     -25.008  48.668  16.935  1.00  0.00     0.007 A 
HETATM    2  C6  UNL     1     -25.801  48.553  15.816  1.00  0.00     0.017 A 
HETATM    3  C7  UNL     1     -25.234  48.403  14.545  1.00  0.00     0.033 A 
HETATM    4  C8  UNL     1     -23.871  48.370  14.395  1.00  0.00     0.059 A 
HETATM    5  N6  UNL     1     -23.110  48.484  15.494  1.00  0.00    -0.363 N 
ATOM      6  H6  UNL     1     -22.095  48.461  15.394  1.00  0.00     0.165 HD
HETATM    7  C13 UNL     1     -23.645  48.630  16.743  1.00  0.00     0.102 A 
ENDROOT
BRANCH   1   8
HETATM    8  C4  UNL     1     -25.594  48.826  18.290  1.00  0.00     0.060 A 
HETATM    9  C3  UNL     1     -25.276  47.961  19.306  1.00  0.00     0.118 A 
HETATM   10  N2  UNL     1     -25.796  48.078  20.561  1.00  0.00    -0.370 N 
HETATM   11  C2  UNL     1     -26.651  49.090  20.785  1.00  0.00     0.136 A 
ATOM     12  H2  UNL     1     -25.545  47.423  21.302  1.00  0.00     0.164 HD
HETATM   13  C1  UNL     1     -26.984  49.970  19.782  1.00  0.00     0.115 A 
HETATM   14  N7  UNL     1     -26.454  49.832  18.547  1.00  0.00    -0.340 N 
ATOM     15  H7  UNL     1     -26.706  50.489  17.808  1.00  0.00     0.167 HD
BRANCH  13  16
HETATM   16  N1  UNL     1     -27.813  50.927  20.052  1.00  0.00    -0.384 N 
ATOM     17  H12 UNL     1     -27.647  51.565  20.830  1.00  0.00     0.157 HD
ATOM     18  H11 UNL     1     -28.642  51.032  19.467  1.00  0.00     0.157 HD
ENDBRANCH  13  16
ENDBRANCH   1   8
BRANCH   4  19
HETATM   19  C9  UNL     1     -23.200  48.216  13.096  1.00  0.00     0.077 A 
HETATM   20  C10 UNL     1     -22.149  47.338  12.969  1.00  0.00     0.050 A 
HETATM   21  C11 UNL     1     -21.552  47.235  11.718  1.00  0.00     0.108 A 
HETATM   22  N3  UNL     1     -22.006  47.972  10.696  1.00  0.00    -0.202 N 
HETATM   23  C12 UNL     1     -23.029  48.824  10.827  1.00  0.00     0.676 A 
ATOM     24  H3  UNL     1     -21.555  47.881   9.786  1.00  0.00     0.183 HD
HETATM   25  N5  UNL     1     -23.614  48.935  12.029  1.00  0.00    -0.190 N 
ATOM     26  H5  UNL     1     -24.396  49.581  12.141  1.00  0.00     0.184 HD
BRANCH  23  27
HETATM   27  N4  UNL     1     -23.452  49.536   9.809  1.00  0.00    -0.234 N 
ATOM     28  H42 UNL     1     -23.507  49.127   8.876  1.00  0.00     0.174 HD
ATOM     29  H41 UNL     1     -23.736  50.508   9.928  1.00  0.00     0.174 HD
ENDBRANCH  23  27
ENDBRANCH   4  19
TORSDOF 4
ENDMDL
MODEL 5
REMARK VINA RESULT: -1.901988675      1.169      1.503
REMARK  4 active torsions:
REMARK  status: ('A' for Active; 'I' for Inactive)
REMARK    1  A    between atoms: N1_1  and  C1_4 
REMARK    2  A    between atoms: C4_9  and  C5_10 
REMARK    3  A    between atoms: C8_13  and  C9_14 
REMARK    4  A    between atoms: C12_19  and  N4_20 
ROOT
HETATM    1  C5  UNL     1     -23.864  48.346  14.427  1.00  0.00     0.007 A 
HETATM    2  C6  UNL     1     -25.234  48.403  14.544  1.00  0.00     0.017 A 
HETATM    3  C7  UNL     1     -25.843  48.563  15.794  1.00  0.00     0.033 A 
HETATM    4  C8  UNL     1     -25.078  48.664  16.929  1.00  0.00     0.059 A 
HETATM    5  N6  UNL     1     -23.744  48.605  16.800  1.00  0.00    -0.363 N 
ATOM      6  H6  UNL     1     -23.166  48.678  17.637  1.00  0.00     0.165 HD
HETATM    7  C13 UNL     1     -23.132  48.450  15.588  1.00  0.00     0.102 A 
ENDROOT
BRANCH   1   8
HETATM    8  C4  UNL     1     -23.203  48.177  13.109  1.00  0.00     0.060 A 
HETATM    9  C3  UNL     1     -22.200  47.258  12.930  1.00  0.00     0.118 A 
HETATM   10  N2  UNL     1     -21.572  47.077  11.733  1.00  0.00    -0.370 N 
HETATM   11  C2  UNL     1     -21.970  47.844  10.704  1.00  0.00     0.136 A 
ATOM     12  H2  UNL     1     -20.829  46.387  11.624  1.00  0.00     0.164 HD
HETATM   13  C1  UNL     1     -22.973  48.772  10.859  1.00  0.00     0.115 A 
HETATM   14  N7  UNL     1     -23.580  48.930  12.056  1.00  0.00    -0.340 N 
ATOM     15  H7  UNL     1     -24.323  49.620  12.163  1.00  0.00     0.167 HD
BRANCH  13  16
HETATM   16  N1  UNL     1     -23.318  49.484   9.834  1.00  0.00    -0.384 N 
ATOM     17  H12 UNL     1     -23.610  49.045   8.961  1.00  0.00     0.157 HD
ATOM     18  H11 UNL     1     -23.291  50.500   9.917  1.00  0.00     0.157 HD
ENDBRANCH  13  16
ENDBRANCH   1   8
BRANCH   4  19
HETATM   19  C9  UNL     1     -25.642  48.832  18.276  1.00  0.00     0.077 A 
HETATM   20  C10 UNL     1     -25.286  47.961  19.279  1.00  0.00     0.050 A 
HETATM   21  C11 UNL     1     -25.850  48.168  20.533  1.00  0.00     0.108 A 
HETATM   22  N3  UNL     1     -26.702  49.182  20.725  1.00  0.00    -0.202 N 
HETATM   23  C12 UNL     1     -27.044  50.026  19.744  1.00  0.00     0.676 A 
ATOM     24  H3  UNL     1     -27.104  49.317  21.653  1.00  0.00     0.183 HD
HETATM   25  N5  UNL     1     -26.508  49.838  18.530  1.00  0.00    -0.190 N 
ATOM     26  H5  UNL     1     -26.760  50.475  17.773  1.00  0.00     0.184 HD
BRANCH  23  27
HETATM   27  N4  UNL     1     -27.882  51.011  19.960  1.00  0.00    -0.234 N 
ATOM     28  H42 UNL     1     -28.528  51.314  19.232  1.00  0.00     0.174 HD
ATOM     29  H41 UNL     1     -27.907  51.494  20.859  1.00  0.00     0.174 HD
ENDBRANCH  23  27
ENDBRANCH   4  19
TORSDOF 4
ENDMDL
