MODEL 1
REMARK VINA RESULT: -7.649682081      0.000      0.000
REMARK  3 active torsions:
REMARK  status: ('A' for Active; 'I' for Inactive)
REMARK    1  A    between atoms: N1_1  and  C1_4 
REMARK    2  A    between atoms: C7_18  and  C8_19 
REMARK    3  A    between atoms: C8_19  and  C9_20 
ROOT
HETATM    1  C1  UNL     1     -23.338  47.834  16.329  1.00  0.00     0.130 A 
HETATM    2  N2  UNL     1     -23.730  48.103  17.592  1.00  0.00    -0.325 N 
ATOM      3  H2  UNL     1     -23.062  48.046  18.361  1.00  0.00     0.169 HD
HETATM    4  C2  UNL     1     -25.008  48.447  17.832  1.00  0.00     0.137 A 
HETATM    5  N3  UNL     1     -25.639  48.760  18.996  1.00  0.00    -0.337 N 
ATOM      6  H3  UNL     1     -25.233  48.789  19.931  1.00  0.00     0.168 HD
HETATM    7  C3  UNL     1     -26.911  49.022  18.650  1.00  0.00     0.182 A 
HETATM    8  N4  UNL     1     -27.076  48.880  17.322  1.00  0.00    -0.347 N 
ATOM      9  H4  UNL     1     -27.947  49.022  16.812  1.00  0.00     0.167 HD
HETATM   10  C4  UNL     1     -25.893  48.518  16.780  1.00  0.00     0.107 A 
HETATM   11  C5  UNL     1     -25.527  48.250  15.477  1.00  0.00     0.093 A 
HETATM   12  N5  UNL     1     -26.397  48.320  14.443  1.00  0.00    -0.360 N 
ATOM     13  H5  UNL     1     -27.368  48.581  14.622  1.00  0.00     0.165 HD
HETATM   14  C6  UNL     1     -26.005  48.050  13.177  1.00  0.00     0.113 A 
HETATM   15  C7  UNL     1     -24.692  47.700  12.947  1.00  0.00     0.029 A 
HETATM   16  N8  UNL     1     -23.834  47.634  13.995  1.00  0.00    -0.353 N 
ATOM     17  H8  UNL     1     -22.864  47.374  13.817  1.00  0.00     0.166 HD
HETATM   18  C12 UNL     1     -24.209  47.899  15.259  1.00  0.00     0.106 A 
ENDROOT
BRANCH  15  19
HETATM   19  C8  UNL     1     -24.193  47.390  11.580  1.00  0.00     0.100 C 
BRANCH  19  20
HETATM   20  C9  UNL     1     -22.971  48.174  11.275  1.00  0.00    -0.019 A 
HETATM   21  C10 UNL     1     -21.700  47.690  11.119  1.00  0.00     0.116 A 
HETATM   22  N6  UNL     1     -20.901  48.735  10.853  1.00  0.00    -0.312 N 
HETATM   23  N7  UNL     1     -21.636  49.832  10.841  1.00  0.00    -0.312 N 
ATOM     24  H6  UNL     1     -19.896  48.690  10.688  1.00  0.00     0.186 HD
HETATM   25  C11 UNL     1     -22.919  49.534  11.096  1.00  0.00     0.116 A 
ATOM     26  H7  UNL     1     -21.279  50.770  10.662  1.00  0.00     0.186 HD
ENDBRANCH  19  20
ENDBRANCH  15  19
BRANCH   1  27
HETATM   27  N1  UNL     1     -22.124  47.506  16.087  1.00  0.00    -0.384 N 
ATOM     28  H12 UNL     1     -21.475  48.251  15.833  1.00  0.00     0.157 HD
ATOM     29  H11 UNL     1     -21.834  46.530  16.151  1.00  0.00     0.157 HD
ENDBRANCH   1  27
TORSDOF 3
ENDMDL
MODEL 2
REMARK VINA RESULT: -6.946760762      1.200      2.591
REMARK  3 active torsions:
REMARK  status: ('A' for Active; 'I' for Inactive)
REMARK    1  A    between atoms: N1_1  and  C1_4 
REMARK    2  A    between atoms: C7_18  and  C8_19 
REMARK    3  A    between atoms: C8_19  and  C9_20 
ROOT
HETATM    1  C1  UNL     1     -26.006  48.374  14.923  1.00  0.00     0.130 A 
HETATM    2  N2  UNL     1     -26.935  48.693  15.849  1.00  0.00    -0.325 N 
ATOM      3  H2  UNL     1     -27.891  48.906  15.565  1.00  0.00     0.169 HD
HETATM    4  C2  UNL     1     -26.591  48.730  17.148  1.00  0.00     0.137 A 
HETATM    5  N3  UNL     1     -27.330  49.019  18.253  1.00  0.00    -0.337 N 
ATOM      6  H3  UNL     1     -28.318  49.270  18.288  1.00  0.00     0.168 HD
HETATM    7  C3  UNL     1     -26.481  48.904  19.289  1.00  0.00     0.182 A 
HETATM    8  N4  UNL     1     -25.255  48.556  18.854  1.00  0.00    -0.347 N 
ATOM      9  H4  UNL     1     -24.435  48.406  19.442  1.00  0.00     0.167 HD
HETATM   10  C4  UNL     1     -25.295  48.439  17.509  1.00  0.00     0.107 A 
HETATM   11  C5  UNL     1     -24.321  48.109  16.589  1.00  0.00     0.093 A 
HETATM   12  N5  UNL     1     -23.046  47.823  16.945  1.00  0.00    -0.360 N 
ATOM     13  H5  UNL     1     -22.783  47.849  17.930  1.00  0.00     0.165 HD
HETATM   14  C6  UNL     1     -22.115  47.503  16.017  1.00  0.00     0.113 A 
HETATM   15  C7  UNL     1     -22.482  47.469  14.689  1.00  0.00     0.029 A 
HETATM   16  N8  UNL     1     -23.763  47.759  14.352  1.00  0.00    -0.353 N 
ATOM     17  H8  UNL     1     -24.027  47.732  13.367  1.00  0.00     0.166 HD
HETATM   18  C12 UNL     1     -24.700  48.079  15.262  1.00  0.00     0.106 A 
ENDROOT
BRANCH  15  19
HETATM   19  C8  UNL     1     -21.510  47.125  13.617  1.00  0.00     0.100 C 
BRANCH  19  20
HETATM   20  C9  UNL     1     -21.787  47.902  12.384  1.00  0.00    -0.019 A 
HETATM   21  C10 UNL     1     -22.411  47.453  11.251  1.00  0.00     0.116 A 
HETATM   22  N6  UNL     1     -22.455  48.476  10.384  1.00  0.00    -0.312 N 
HETATM   23  N7  UNL     1     -21.883  49.525  10.943  1.00  0.00    -0.312 N 
ATOM     24  H6  UNL     1     -22.862  48.447   9.449  1.00  0.00     0.186 HD
HETATM   25  C11 UNL     1     -21.456  49.218  12.178  1.00  0.00     0.116 A 
ATOM     26  H7  UNL     1     -21.782  50.439  10.501  1.00  0.00     0.186 HD
ENDBRANCH  19  20
ENDBRANCH  15  19
BRANCH   1  27
HETATM   27  N1  UNL     1     -26.319  48.335  13.681  1.00  0.00    -0.384 N 
ATOM     28  H12 UNL     1     -27.063  48.957  13.363  1.00  0.00     0.157 HD
ATOM     29  H11 UNL     1     -25.833  47.701  13.049  1.00  0.00     0.157 HD
ENDBRANCH   1  27
TORSDOF 3
ENDMDL
MODEL 3
REMARK VINA RESULT: -6.920149896      1.375      6.070
REMARK  3 active torsions:
REMARK  status: ('A' for Active; 'I' for Inactive)
REMARK    1  A    between atoms: N1_1  and  C1_4 
REMARK    2  A    between atoms: C7_18  and  C8_19 
REMARK    3  A    between atoms: C8_19  and  C9_20 
ROOT
HETATM    1  C1  UNL     1     -22.462  47.559  14.868  1.00  0.00     0.130 A 
HETATM    2  N2  UNL     1     -21.451  47.386  13.991  1.00  0.00    -0.325 N 
ATOM      3  H2  UNL     1     -20.517  47.149  14.325  1.00  0.00     0.169 HD
HETATM    4  C2  UNL     1     -21.683  47.530  12.675  1.00  0.00     0.137 A 
HETATM    5  N3  UNL     1     -20.845  47.411  11.609  1.00  0.00    -0.337 N 
ATOM      6  H3  UNL     1     -19.851  47.183  11.625  1.00  0.00     0.168 HD
HETATM    7  C3  UNL     1     -21.608  47.660  10.529  1.00  0.00     0.182 A 
HETATM    8  N4  UNL     1     -22.874  47.925  10.900  1.00  0.00    -0.347 N 
ATOM      9  H4  UNL     1     -23.645  48.145  10.270  1.00  0.00     0.167 HD
HETATM   10  C4  UNL     1     -22.951  47.851  12.247  1.00  0.00     0.107 A 
HETATM   11  C5  UNL     1     -24.007  48.033  13.115  1.00  0.00     0.093 A 
HETATM   12  N5  UNL     1     -25.255  48.348  12.694  1.00  0.00    -0.360 N 
ATOM     13  H5  UNL     1     -25.433  48.457  11.695  1.00  0.00     0.165 HD
HETATM   14  C6  UNL     1     -26.268  48.521  13.573  1.00  0.00     0.113 A 
HETATM   15  C7  UNL     1     -26.016  48.370  14.919  1.00  0.00     0.029 A 
HETATM   16  N8  UNL     1     -24.760  48.055  15.322  1.00  0.00    -0.353 N 
ATOM     17  H8  UNL     1     -24.581  47.945  16.320  1.00  0.00     0.166 HD
HETATM   18  C12 UNL     1     -23.742  47.880  14.461  1.00  0.00     0.106 A 
ENDROOT
BRANCH  15  19
HETATM   19  C8  UNL     1     -27.084  48.545  15.940  1.00  0.00     0.100 C 
BRANCH  19  20
HETATM   20  C9  UNL     1     -26.512  48.529  17.309  1.00  0.00    -0.019 A 
HETATM   21  C10 UNL     1     -25.186  48.492  17.647  1.00  0.00     0.116 A 
HETATM   22  N6  UNL     1     -25.113  48.488  18.987  1.00  0.00    -0.312 N 
HETATM   23  N7  UNL     1     -26.338  48.522  19.474  1.00  0.00    -0.312 N 
ATOM     24  H6  UNL     1     -24.254  48.464  19.536  1.00  0.00     0.186 HD
HETATM   25  C11 UNL     1     -27.235  48.547  18.475  1.00  0.00     0.116 A 
ATOM     26  H7  UNL     1     -26.571  48.529  20.467  1.00  0.00     0.186 HD
ENDBRANCH  19  20
ENDBRANCH  15  19
BRANCH   1  27
HETATM   27  N1  UNL     1     -22.255  47.425  16.126  1.00  0.00    -0.384 N 
ATOM     28  H12 UNL     1     -22.807  46.726  16.623  1.00  0.00     0.157 HD
ATOM     29  H11 UNL     1     -21.560  48.004  16.596  1.00  0.00     0.157 HD
ENDBRANCH   1  27
TORSDOF 3
ENDMDL
MODEL 4
REMARK VINA RESULT: -6.744405138      1.550      6.666
REMARK  3 active torsions:
REMARK  status: ('A' for Active; 'I' for Inactive)
REMARK    1  A    between atoms: N1_1  and  C1_4 
REMARK    2  A    between atoms: C7_18  and  C8_19 
REMARK    3  A    between atoms: C8_19  and  C9_20 
ROOT
HETATM    1  C1  UNL     1     -25.277  48.266  13.070  1.00  0.00     0.130 A 
HETATM    2  N2  UNL     1     -24.225  48.160  12.231  1.00  0.00    -0.325 N 
ATOM      3  H2  UNL     1     -24.358  48.267  11.225  1.00  0.00     0.169 HD
HETATM    4  C2  UNL     1     -23.001  47.912  12.729  1.00  0.00     0.137 A 
HETATM    5  N3  UNL     1     -21.803  47.763  12.103  1.00  0.00    -0.337 N 
ATOM      6  H3  UNL     1     -21.617  47.816  11.101  1.00  0.00     0.168 HD
HETATM    7  C3  UNL     1     -20.915  47.532  13.086  1.00  0.00     0.182 A 
HETATM    8  N4  UNL     1     -21.529  47.534  14.283  1.00  0.00    -0.347 N 
ATOM      9  H4  UNL     1     -21.077  47.383  15.185  1.00  0.00     0.167 HD
HETATM   10  C4  UNL     1     -22.845  47.772  14.089  1.00  0.00     0.107 A 
HETATM   11  C5  UNL     1     -23.897  47.874  14.976  1.00  0.00     0.093 A 
HETATM   12  N5  UNL     1     -23.743  47.736  16.313  1.00  0.00    -0.360 N 
ATOM     13  H5  UNL     1     -22.815  47.549  16.694  1.00  0.00     0.165 HD
HETATM   14  C6  UNL     1     -24.797  47.842  17.154  1.00  0.00     0.113 A 
HETATM   15  C7  UNL     1     -26.046  48.097  16.630  1.00  0.00     0.029 A 
HETATM   16  N8  UNL     1     -26.181  48.231  15.287  1.00  0.00    -0.353 N 
ATOM     17  H8  UNL     1     -27.108  48.419  14.906  1.00  0.00     0.166 HD
HETATM   18  C12 UNL     1     -25.143  48.128  14.438  1.00  0.00     0.106 A 
ENDROOT
BRANCH  15  19
HETATM   19  C8  UNL     1     -27.248  48.225  17.496  1.00  0.00     0.100 C 
BRANCH  19  20
HETATM   20  C9  UNL     1     -26.932  48.991  18.727  1.00  0.00    -0.019 A 
HETATM   21  C10 UNL     1     -26.308  48.522  19.851  1.00  0.00     0.116 A 
HETATM   22  N6  UNL     1     -26.223  49.541  20.719  1.00  0.00    -0.312 N 
HETATM   23  N7  UNL     1     -26.768  50.608  20.168  1.00  0.00    -0.312 N 
ATOM     24  H6  UNL     1     -25.806  49.499  21.649  1.00  0.00     0.186 HD
HETATM   25  C11 UNL     1     -27.220  50.316  18.938  1.00  0.00     0.116 A 
ATOM     26  H7  UNL     1     -26.836  51.524  20.612  1.00  0.00     0.186 HD
ENDBRANCH  19  20
ENDBRANCH  15  19
BRANCH   1  27
HETATM   27  N1  UNL     1     -26.449  48.502  12.609  1.00  0.00    -0.384 N 
ATOM     28  H12 UNL     1     -26.950  49.307  12.983  1.00  0.00     0.157 HD
ATOM     29  H11 UNL     1     -26.850  47.896  11.894  1.00  0.00     0.157 HD
ENDBRANCH   1  27
TORSDOF 3
ENDMDL
MODEL 5
REMARK VINA RESULT: -6.188925862      1.516      6.327
REMARK  3 active torsions:
REMARK  status: ('A' for Active; 'I' for Inactive)
REMARK    1  A    between atoms: N1_1  and  C1_4 
REMARK    2  A    between atoms: C7_18  and  C8_19 
REMARK    3  A    between atoms: C8_19  and  C9_20 
ROOT
HETATM    1  C1  UNL     1     -22.701  47.866  15.968  1.00  0.00     0.130 A 
HETATM    2  N2  UNL     1     -21.873  48.001  14.911  1.00  0.00    -0.325 N 
ATOM      3  H2  UNL     1     -20.866  47.896  15.031  1.00  0.00     0.169 HD
HETATM    4  C2  UNL     1     -22.385  48.275  13.698  1.00  0.00     0.137 A 
HETATM    5  N3  UNL     1     -21.772  48.455  12.497  1.00  0.00    -0.337 N 
ATOM      6  H3  UNL     1     -20.772  48.412  12.300  1.00  0.00     0.168 HD
HETATM    7  C3  UNL     1     -22.766  48.702  11.625  1.00  0.00     0.182 A 
HETATM    8  N4  UNL     1     -23.956  48.678  12.252  1.00  0.00    -0.347 N 
ATOM      9  H4  UNL     1     -24.864  48.835  11.812  1.00  0.00     0.167 HD
HETATM   10  C4  UNL     1     -23.748  48.411  13.559  1.00  0.00     0.107 A 
HETATM   11  C5  UNL     1     -24.623  48.280  14.618  1.00  0.00     0.093 A 
HETATM   12  N5  UNL     1     -25.962  48.414  14.481  1.00  0.00    -0.360 N 
ATOM     13  H5  UNL     1     -26.354  48.621  13.561  1.00  0.00     0.165 HD
HETATM   14  C6  UNL     1     -26.792  48.279  15.541  1.00  0.00     0.113 A 
HETATM   15  C7  UNL     1     -26.253  47.998  16.777  1.00  0.00     0.029 A 
HETATM   16  N8  UNL     1     -24.908  47.868  16.896  1.00  0.00    -0.353 N 
ATOM     17  H8  UNL     1     -24.516  47.660  17.814  1.00  0.00     0.166 HD
HETATM   18  C12 UNL     1     -24.071  47.999  15.852  1.00  0.00     0.106 A 
ENDROOT
BRANCH  15  19
HETATM   19  C8  UNL     1     -27.107  47.837  17.985  1.00  0.00     0.100 C 
BRANCH  19  20
HETATM   20  C9  UNL     1     -26.922  48.975  18.918  1.00  0.00    -0.019 A 
HETATM   21  C10 UNL     1     -27.301  50.275  18.716  1.00  0.00     0.116 A 
HETATM   22  N6  UNL     1     -26.946  50.972  19.806  1.00  0.00    -0.312 N 
HETATM   23  N7  UNL     1     -26.367  50.149  20.660  1.00  0.00    -0.312 N 
ATOM     24  H6  UNL     1     -27.097  51.970  19.951  1.00  0.00     0.186 HD
HETATM   25  C11 UNL     1     -26.329  48.906  20.154  1.00  0.00     0.116 A 
ATOM     26  H7  UNL     1     -26.001  50.419  21.573  1.00  0.00     0.186 HD
ENDBRANCH  19  20
ENDBRANCH  15  19
BRANCH   1  27
HETATM   27  N1  UNL     1     -22.226  47.606  17.130  1.00  0.00    -0.384 N 
ATOM     28  H12 UNL     1     -21.641  46.776  17.225  1.00  0.00     0.157 HD
ATOM     29  H11 UNL     1     -22.436  48.216  17.918  1.00  0.00     0.157 HD
ENDBRANCH   1  27
TORSDOF 3
ENDMDL
