MODEL 1
REMARK VINA RESULT: -5.042874824      0.000      0.000
REMARK  6 active torsions:
REMARK  status: ('A' for Active; 'I' for Inactive)
REMARK    1  A    between atoms: O1_2  and  C2_3 
REMARK    2  A    between atoms: C5_6  and  C6_7 
REMARK    3  A    between atoms: C6_7  and  N1_8 
REMARK    4  A    between atoms: C7_11  and  C8_12 
REMARK    5  A    between atoms: C11_15  and  N3_16 
REMARK    6  A    between atoms: C13_24  and  N6_25 
ROOT
HETATM    1  N1  UNL     1       3.157  15.043  23.817  1.00  0.00    -0.118 N 
HETATM    2  N2  UNL     1       2.419  15.500  24.844  1.00  0.00    -0.268 N 
ATOM      3  H2  UNL     1       2.136  14.957  25.659  1.00  0.00     0.189 HD
HETATM    4  C7  UNL     1       2.118  16.781  24.622  1.00  0.00     0.147 A 
HETATM    5  N5  UNL     1       2.679  17.104  23.446  1.00  0.00    -0.173 N 
ATOM      6  H5  UNL     1       2.622  18.022  23.005  1.00  0.00     0.186 HD
HETATM    7  C13 UNL     1       3.337  16.024  22.924  1.00  0.00     0.694 A 
ENDROOT
BRANCH   4   8
HETATM    8  C8  UNL     1       1.324  17.686  25.483  1.00  0.00     0.025 A 
HETATM    9  C9  UNL     1       0.826  18.866  24.968  1.00  0.00     0.020 A 
HETATM   10  C10 UNL     1       0.091  19.717  25.745  1.00  0.00     0.049 A 
HETATM   11  C11 UNL     1      -0.144  19.375  27.061  1.00  0.00     0.098 A 
HETATM   12  N4  UNL     1       0.345  18.224  27.557  1.00  0.00    -0.352 N 
HETATM   13  C12 UNL     1       1.067  17.394  26.785  1.00  0.00     0.105 A 
ATOM     14  H4  UNL     1       0.166  17.979  28.531  1.00  0.00     0.166 HD
BRANCH  11  15
HETATM   15  N3  UNL     1      -0.841  20.178  27.805  1.00  0.00    -0.385 N 
ATOM     16  H32 UNL     1      -1.671  20.643  27.438  1.00  0.00     0.157 HD
ATOM     17  H31 UNL     1      -0.547  20.340  28.768  1.00  0.00     0.157 HD
ENDBRANCH  11  15
ENDBRANCH   4   8
BRANCH   1  18
HETATM   18  C6  UNL     1       3.634  13.682  23.748  1.00  0.00     0.206 C 
BRANCH  18  19
HETATM   19  C5  UNL     1       2.581  12.742  23.277  1.00  0.00    -0.038 A 
HETATM   20  C4  UNL     1       2.143  12.772  21.963  1.00  0.00     0.011 A 
HETATM   21  C3  UNL     1       1.166  11.879  21.597  1.00  0.00     0.037 A 
HETATM   22  C2  UNL     1       0.606  10.971  22.457  1.00  0.00     0.068 A 
HETATM   23  C15 UNL     1       1.078  10.984  23.751  1.00  0.00     0.037 A 
HETATM   24  C14 UNL     1       2.052  11.853  24.171  1.00  0.00     0.011 A 
BRANCH  22  25
HETATM   25  O1  UNL     1      -0.377  10.105  22.006  1.00  0.00    -0.356 OA
HETATM   26  C1  UNL     1      -0.609  10.025  20.615  1.00  0.00     0.210 C 
ENDBRANCH  22  25
ENDBRANCH  18  19
ENDBRANCH   1  18
BRANCH   7  27
HETATM   27  N6  UNL     1       3.992  15.991  21.816  1.00  0.00    -0.233 N 
ATOM     28  H62 UNL     1       4.726  16.638  21.528  1.00  0.00     0.174 HD
ATOM     29  H61 UNL     1       3.909  15.325  21.048  1.00  0.00     0.174 HD
ENDBRANCH   7  27
TORSDOF 6
ENDMDL
MODEL 2
REMARK VINA RESULT: -5.018708584      0.044      1.008
REMARK  6 active torsions:
REMARK  status: ('A' for Active; 'I' for Inactive)
REMARK    1  A    between atoms: O1_2  and  C2_3 
REMARK    2  A    between atoms: C5_6  and  C6_7 
REMARK    3  A    between atoms: C6_7  and  N1_8 
REMARK    4  A    between atoms: C7_11  and  C8_12 
REMARK    5  A    between atoms: C11_15  and  N3_16 
REMARK    6  A    between atoms: C13_24  and  N6_25 
ROOT
HETATM    1  N1  UNL     1       3.152  15.038  23.821  1.00  0.00    -0.118 N 
HETATM    2  N2  UNL     1       2.408  15.501  24.841  1.00  0.00    -0.268 N 
ATOM      3  H2  UNL     1       2.117  14.961  25.656  1.00  0.00     0.189 HD
HETATM    4  C7  UNL     1       2.114  16.783  24.613  1.00  0.00     0.147 A 
HETATM    5  N5  UNL     1       2.685  17.100  23.441  1.00  0.00    -0.173 N 
ATOM      6  H5  UNL     1       2.635  18.017  22.997  1.00  0.00     0.186 HD
HETATM    7  C13 UNL     1       3.343  16.016  22.927  1.00  0.00     0.694 A 
ENDROOT
BRANCH   4   8
HETATM    8  C8  UNL     1       1.319  17.693  25.467  1.00  0.00     0.025 A 
HETATM    9  C9  UNL     1       0.833  18.875  24.946  1.00  0.00     0.020 A 
HETATM   10  C10 UNL     1       0.096  19.732  25.715  1.00  0.00     0.049 A 
HETATM   11  C11 UNL     1      -0.154  19.393  27.029  1.00  0.00     0.098 A 
HETATM   12  N4  UNL     1       0.323  18.239  27.531  1.00  0.00    -0.352 N 
HETATM   13  C12 UNL     1       1.047  17.404  26.767  1.00  0.00     0.105 A 
ATOM     14  H4  UNL     1       0.133  17.996  28.504  1.00  0.00     0.166 HD
BRANCH  11  15
HETATM   15  N3  UNL     1      -0.853  20.200  27.767  1.00  0.00    -0.385 N 
ATOM     16  H32 UNL     1      -0.818  21.209  27.615  1.00  0.00     0.157 HD
ATOM     17  H31 UNL     1      -1.440  19.813  28.505  1.00  0.00     0.157 HD
ENDBRANCH  11  15
ENDBRANCH   4   8
BRANCH   1  18
HETATM   18  C6  UNL     1       3.624  13.675  23.759  1.00  0.00     0.206 C 
BRANCH  18  19
HETATM   19  C5  UNL     1       2.564  12.735  23.305  1.00  0.00    -0.038 A 
HETATM   20  C4  UNL     1       2.042  11.786  24.169  1.00  0.00     0.011 A 
HETATM   21  C3  UNL     1       1.069  10.948  23.683  1.00  0.00     0.037 A 
HETATM   22  C2  UNL     1       0.595  10.999  22.399  1.00  0.00     0.068 A 
HETATM   23  C15 UNL     1       1.148  11.959  21.581  1.00  0.00     0.037 A 
HETATM   24  C14 UNL     1       2.121  12.823  22.014  1.00  0.00     0.011 A 
BRANCH  22  25
HETATM   25  O1  UNL     1      -0.389  10.114  21.989  1.00  0.00    -0.356 OA
HETATM   26  C1  UNL     1      -0.680  10.032  20.610  1.00  0.00     0.210 C 
ENDBRANCH  22  25
ENDBRANCH  18  19
ENDBRANCH   1  18
BRANCH   7  27
HETATM   27  N6  UNL     1       4.005  15.977  21.824  1.00  0.00    -0.233 N 
ATOM     28  H62 UNL     1       5.019  15.917  21.729  1.00  0.00     0.174 HD
ATOM     29  H61 UNL     1       3.650  15.988  20.867  1.00  0.00     0.174 HD
ENDBRANCH   7  27
TORSDOF 6
ENDMDL
MODEL 3
REMARK VINA RESULT: -4.950085162      0.583      1.009
REMARK  6 active torsions:
REMARK  status: ('A' for Active; 'I' for Inactive)
REMARK    1  A    between atoms: O1_2  and  C2_3 
REMARK    2  A    between atoms: C5_6  and  C6_7 
REMARK    3  A    between atoms: C6_7  and  N1_8 
REMARK    4  A    between atoms: C7_11  and  C8_12 
REMARK    5  A    between atoms: C11_15  and  N3_16 
REMARK    6  A    between atoms: C13_24  and  N6_25 
ROOT
HETATM    1  N1  UNL     1       3.160  15.043  23.751  1.00  0.00    -0.118 N 
HETATM    2  N2  UNL     1       2.426  15.514  24.775  1.00  0.00    -0.268 N 
ATOM      3  H2  UNL     1       2.150  14.983  25.600  1.00  0.00     0.189 HD
HETATM    4  C7  UNL     1       2.117  16.789  24.533  1.00  0.00     0.147 A 
HETATM    5  N5  UNL     1       2.670  17.096  23.349  1.00  0.00    -0.173 N 
ATOM      6  H5  UNL     1       2.607  18.006  22.894  1.00  0.00     0.186 HD
HETATM    7  C13 UNL     1       3.331  16.010  22.842  1.00  0.00     0.694 A 
ENDROOT
BRANCH   4   8
HETATM    8  C8  UNL     1       1.325  17.705  25.385  1.00  0.00     0.025 A 
HETATM    9  C9  UNL     1       1.091  17.384  26.707  1.00  0.00     0.020 A 
HETATM   10  C10 UNL     1       0.361  18.214  27.512  1.00  0.00     0.049 A 
HETATM   11  C11 UNL     1      -0.140  19.383  26.977  1.00  0.00     0.098 A 
HETATM   12  N4  UNL     1       0.091  19.689  25.687  1.00  0.00    -0.352 N 
HETATM   13  C12 UNL     1       0.809  18.866  24.904  1.00  0.00     0.105 A 
ATOM     14  H4  UNL     1      -0.283  20.555  25.300  1.00  0.00     0.166 HD
BRANCH  11  15
HETATM   15  N3  UNL     1      -0.833  20.176  27.735  1.00  0.00    -0.385 N 
ATOM     16  H32 UNL     1      -1.776  20.462  27.469  1.00  0.00     0.157 HD
ATOM     17  H31 UNL     1      -0.422  20.514  28.605  1.00  0.00     0.157 HD
ENDBRANCH  11  15
ENDBRANCH   4   8
BRANCH   1  18
HETATM   18  C6  UNL     1       3.643  13.683  23.702  1.00  0.00     0.206 C 
BRANCH  18  19
HETATM   19  C5  UNL     1       2.593  12.732  23.249  1.00  0.00    -0.038 A 
HETATM   20  C4  UNL     1       2.243  12.648  21.911  1.00  0.00     0.011 A 
HETATM   21  C3  UNL     1       1.264  11.752  21.563  1.00  0.00     0.037 A 
HETATM   22  C2  UNL     1       0.619  10.944  22.463  1.00  0.00     0.068 A 
HETATM   23  C15 UNL     1       1.004  11.067  23.779  1.00  0.00     0.037 A 
HETATM   24  C14 UNL     1       1.977  11.945  24.183  1.00  0.00     0.011 A 
BRANCH  22  25
HETATM   25  O1  UNL     1      -0.360  10.066  22.028  1.00  0.00    -0.356 OA
HETATM   26  C1  UNL     1      -0.700  10.071  20.657  1.00  0.00     0.210 C 
ENDBRANCH  22  25
ENDBRANCH  18  19
ENDBRANCH   1  18
BRANCH   7  27
HETATM   27  N6  UNL     1       3.980  15.962  21.730  1.00  0.00    -0.233 N 
ATOM     28  H62 UNL     1       3.716  15.435  20.898  1.00  0.00     0.174 HD
ATOM     29  H61 UNL     1       4.847  16.436  21.480  1.00  0.00     0.174 HD
ENDBRANCH   7  27
TORSDOF 6
ENDMDL
MODEL 4
REMARK VINA RESULT: -4.907472314      0.586      1.424
REMARK  6 active torsions:
REMARK  status: ('A' for Active; 'I' for Inactive)
REMARK    1  A    between atoms: O1_2  and  C2_3 
REMARK    2  A    between atoms: C5_6  and  C6_7 
REMARK    3  A    between atoms: C6_7  and  N1_8 
REMARK    4  A    between atoms: C7_11  and  C8_12 
REMARK    5  A    between atoms: C11_15  and  N3_16 
REMARK    6  A    between atoms: C13_24  and  N6_25 
ROOT
HETATM    1  N1  UNL     1       3.168  15.027  23.758  1.00  0.00    -0.118 N 
HETATM    2  N2  UNL     1       2.433  15.504  24.779  1.00  0.00    -0.268 N 
ATOM      3  H2  UNL     1       2.151  14.975  25.604  1.00  0.00     0.189 HD
HETATM    4  C7  UNL     1       2.135  16.781  24.535  1.00  0.00     0.147 A 
HETATM    5  N5  UNL     1       2.694  17.082  23.353  1.00  0.00    -0.173 N 
ATOM      6  H5  UNL     1       2.639  17.993  22.897  1.00  0.00     0.186 HD
HETATM    7  C13 UNL     1       3.349  15.992  22.849  1.00  0.00     0.694 A 
ENDROOT
BRANCH   4   8
HETATM    8  C8  UNL     1       1.345  17.703  25.382  1.00  0.00     0.025 A 
HETATM    9  C9  UNL     1       1.067  17.365  26.692  1.00  0.00     0.020 A 
HETATM   10  C10 UNL     1       0.339  18.200  27.493  1.00  0.00     0.049 A 
HETATM   11  C11 UNL     1      -0.115  19.392  26.967  1.00  0.00     0.098 A 
HETATM   12  N4  UNL     1       0.159  19.715  25.690  1.00  0.00    -0.352 N 
HETATM   13  C12 UNL     1       0.875  18.887  24.910  1.00  0.00     0.105 A 
ATOM     14  H4  UNL     1      -0.180  20.599  25.309  1.00  0.00     0.166 HD
BRANCH  11  15
HETATM   15  N3  UNL     1      -0.806  20.191  27.721  1.00  0.00    -0.385 N 
ATOM     16  H32 UNL     1      -1.583  19.839  28.281  1.00  0.00     0.157 HD
ATOM     17  H31 UNL     1      -0.563  21.181  27.747  1.00  0.00     0.157 HD
ENDBRANCH  11  15
ENDBRANCH   4   8
BRANCH   1  18
HETATM   18  C6  UNL     1       3.643  13.664  23.712  1.00  0.00     0.206 C 
BRANCH  18  19
HETATM   19  C5  UNL     1       2.582  12.716  23.277  1.00  0.00    -0.038 A 
HETATM   20  C4  UNL     1       1.948  11.895  24.195  1.00  0.00     0.011 A 
HETATM   21  C3  UNL     1       0.981  11.041  23.725  1.00  0.00     0.037 A 
HETATM   22  C2  UNL     1       0.616  10.959  22.407  1.00  0.00     0.068 A 
HETATM   23  C15 UNL     1       1.278  11.796  21.536  1.00  0.00     0.037 A 
HETATM   24  C14 UNL     1       2.251  12.669  21.951  1.00  0.00     0.011 A 
BRANCH  22  25
HETATM   25  O1  UNL     1      -0.370  10.068  22.015  1.00  0.00    -0.356 OA
HETATM   26  C1  UNL     1      -0.748  10.045  20.655  1.00  0.00     0.210 C 
ENDBRANCH  22  25
ENDBRANCH  18  19
ENDBRANCH   1  18
BRANCH   7  27
HETATM   27  N6  UNL     1       4.003  15.939  21.740  1.00  0.00    -0.233 N 
ATOM     28  H62 UNL     1       4.188  15.102  21.187  1.00  0.00     0.174 HD
ATOM     29  H61 UNL     1       4.434  16.702  21.219  1.00  0.00     0.174 HD
ENDBRANCH   7  27
TORSDOF 6
ENDMDL
MODEL 5
REMARK VINA RESULT: -4.807978400      1.544      2.408
REMARK  6 active torsions:
REMARK  status: ('A' for Active; 'I' for Inactive)
REMARK    1  A    between atoms: O1_2  and  C2_3 
REMARK    2  A    between atoms: C5_6  and  C6_7 
REMARK    3  A    between atoms: C6_7  and  N1_8 
REMARK    4  A    between atoms: C7_11  and  C8_12 
REMARK    5  A    between atoms: C11_15  and  N3_16 
REMARK    6  A    between atoms: C13_24  and  N6_25 
ROOT
HETATM    1  N1  UNL     1       2.767  14.321  24.975  1.00  0.00    -0.118 N 
HETATM    2  N2  UNL     1       2.624  15.646  24.794  1.00  0.00    -0.268 N 
ATOM      3  H2  UNL     1       3.074  16.197  24.064  1.00  0.00     0.189 HD
HETATM    4  C7  UNL     1       1.795  16.120  25.726  1.00  0.00     0.147 A 
HETATM    5  N5  UNL     1       1.433  15.071  26.481  1.00  0.00    -0.173 N 
ATOM      6  H5  UNL     1       0.801  15.118  27.280  1.00  0.00     0.186 HD
HETATM    7  C13 UNL     1       2.034  13.930  26.023  1.00  0.00     0.694 A 
ENDROOT
BRANCH   4   8
HETATM    8  C8  UNL     1       1.350  17.519  25.913  1.00  0.00     0.025 A 
HETATM    9  C9  UNL     1       0.437  17.825  26.902  1.00  0.00     0.020 A 
HETATM   10  C10 UNL     1       0.011  19.110  27.093  1.00  0.00     0.049 A 
HETATM   11  C11 UNL     1       0.512  20.101  26.273  1.00  0.00     0.098 A 
HETATM   12  N4  UNL     1       1.401  19.796  25.311  1.00  0.00    -0.352 N 
HETATM   13  C12 UNL     1       1.813  18.530  25.131  1.00  0.00     0.105 A 
ATOM     14  H4  UNL     1       1.766  20.535  24.709  1.00  0.00     0.166 HD
BRANCH  11  15
HETATM   15  N3  UNL     1       0.113  21.323  26.448  1.00  0.00    -0.385 N 
ATOM     16  H32 UNL     1      -0.565  21.554  27.175  1.00  0.00     0.157 HD
ATOM     17  H31 UNL     1       0.486  22.056  25.845  1.00  0.00     0.157 HD
ENDBRANCH  11  15
ENDBRANCH   4   8
BRANCH   1  18
HETATM   18  C6  UNL     1       3.615  13.509  24.133  1.00  0.00     0.206 C 
BRANCH  18  19
HETATM   19  C5  UNL     1       2.833  12.725  23.139  1.00  0.00    -0.038 A 
HETATM   20  C4  UNL     1       2.633  11.365  23.310  1.00  0.00     0.011 A 
HETATM   21  C3  UNL     1       1.905  10.703  22.353  1.00  0.00     0.037 A 
HETATM   22  C2  UNL     1       1.373  11.312  21.247  1.00  0.00     0.068 A 
HETATM   23  C15 UNL     1       1.601  12.665  21.125  1.00  0.00     0.037 A 
HETATM   24  C14 UNL     1       2.320  13.376  22.051  1.00  0.00     0.011 A 
BRANCH  22  25
HETATM   25  O1  UNL     1       0.651  10.569  20.327  1.00  0.00    -0.356 OA
HETATM   26  C1  UNL     1      -0.625  10.096  20.705  1.00  0.00     0.210 C 
ENDBRANCH  22  25
ENDBRANCH  18  19
ENDBRANCH   1  18
BRANCH   7  27
HETATM   27  N6  UNL     1       1.895  12.746  26.510  1.00  0.00    -0.233 N 
ATOM     28  H62 UNL     1       1.123  12.104  26.329  1.00  0.00     0.174 HD
ATOM     29  H61 UNL     1       2.518  12.240  27.139  1.00  0.00     0.174 HD
ENDBRANCH   7  27
TORSDOF 6
ENDMDL
