MODEL 1
REMARK VINA RESULT: -6.922960813      0.000      0.000
REMARK  6 active torsions:
REMARK  status: ('A' for Active; 'I' for Inactive)
REMARK    1  A    between atoms: N1_2  and  C3_4 
REMARK    2  A    between atoms: C3_4  and  C4_5 
REMARK    3  A    between atoms: C9_10  and  N2_11 
REMARK    4  A    between atoms: C11_13  and  C12_14 
REMARK    5  A    between atoms: C14_18  and  N4_19 
REMARK    6  A    between atoms: C15_24  and  N6_25 
ROOT
HETATM    1  N2  UNL     1       2.636  14.391  23.289  1.00  0.00    -0.267 N 
HETATM    2  C10 UNL     1       1.769  15.157  23.969  1.00  0.00     0.130 A 
HETATM    3  C11 UNL     1       2.406  16.266  24.475  1.00  0.00     0.014 A 
HETATM    4  C16 UNL     1       3.672  16.151  24.083  1.00  0.00     0.121 A 
HETATM    5  N7  UNL     1       3.835  15.016  23.355  1.00  0.00    -0.304 N 
ATOM      6  H7  UNL     1       4.706  14.692  22.933  1.00  0.00     0.186 HD
ENDROOT
BRANCH   3   7
HETATM    7  C12 UNL     1       1.653  17.265  25.248  1.00  0.00     0.037 A 
HETATM    8  C13 UNL     1       0.978  18.259  24.575  1.00  0.00     0.122 A 
HETATM    9  N3  UNL     1       0.259  19.236  25.188  1.00  0.00    -0.201 N 
HETATM   10  C14 UNL     1       0.190  19.257  26.512  1.00  0.00     0.677 A 
ATOM     11  H3  UNL     1      -0.222  19.946  24.636  1.00  0.00     0.183 HD
HETATM   12  N5  UNL     1       0.828  18.319  27.225  1.00  0.00    -0.176 N 
HETATM   13  C15 UNL     1       1.562  17.318  26.611  1.00  0.00     0.127 A 
ATOM     14  H5  UNL     1       0.771  18.342  28.243  1.00  0.00     0.186 HD
BRANCH  10  15
HETATM   15  N4  UNL     1      -0.471  20.175  27.165  1.00  0.00    -0.234 N 
ATOM     16  H42 UNL     1      -0.513  21.110  26.760  1.00  0.00     0.174 HD
ATOM     17  H41 UNL     1      -0.947  19.983  28.046  1.00  0.00     0.174 HD
ENDBRANCH  10  15
BRANCH  13  18
HETATM   18  N6  UNL     1       2.109  16.477  27.318  1.00  0.00    -0.384 N 
ATOM     19  H62 UNL     1       1.800  15.508  27.246  1.00  0.00     0.157 HD
ATOM     20  H61 UNL     1       2.865  16.732  27.953  1.00  0.00     0.157 HD
ENDBRANCH  13  18
ENDBRANCH   3   7
BRANCH   1  21
HETATM   21  C9  UNL     1       2.282  13.249  22.566  1.00  0.00     0.063 A 
HETATM   22  C4  UNL     1       2.480  12.064  23.276  1.00  0.00    -0.012 A 
HETATM   23  C5  UNL     1       2.252  10.804  22.720  1.00  0.00     0.011 A 
HETATM   24  C6  UNL     1       1.813  10.711  21.417  1.00  0.00     0.001 A 
HETATM   25  C7  UNL     1       1.622  11.885  20.717  1.00  0.00     0.002 A 
HETATM   26  C8  UNL     1       1.848  13.160  21.263  1.00  0.00     0.032 A 
BRANCH  22  27
HETATM   27  C3  UNL     1       2.785  12.162  24.735  1.00  0.00     0.156 C 
BRANCH  27  28
HETATM   28  N1  UNL     1       1.672  12.064  25.601  1.00  0.00    -0.417 N 
HETATM   29  C1  UNL     1       0.411  11.687  25.212  1.00  0.00     0.142 C 
HETATM   30  C2  UNL     1       1.670  13.124  26.573  1.00  0.00     0.142 C 
ENDBRANCH  27  28
ENDBRANCH  22  27
ENDBRANCH   1  21
TORSDOF 6
ENDMDL
MODEL 2
REMARK VINA RESULT: -6.477548946      0.521      1.369
REMARK  6 active torsions:
REMARK  status: ('A' for Active; 'I' for Inactive)
REMARK    1  A    between atoms: N1_2  and  C3_4 
REMARK    2  A    between atoms: C3_4  and  C4_5 
REMARK    3  A    between atoms: C9_10  and  N2_11 
REMARK    4  A    between atoms: C11_13  and  C12_14 
REMARK    5  A    between atoms: C14_18  and  N4_19 
REMARK    6  A    between atoms: C15_24  and  N6_25 
ROOT
HETATM    1  N2  UNL     1       2.767  14.246  23.277  1.00  0.00    -0.267 N 
HETATM    2  C10 UNL     1       1.881  15.060  23.872  1.00  0.00     0.130 A 
HETATM    3  C11 UNL     1       2.519  16.165  24.387  1.00  0.00     0.014 A 
HETATM    4  C16 UNL     1       3.804  15.998  24.088  1.00  0.00     0.121 A 
HETATM    5  N7  UNL     1       3.979  14.834  23.407  1.00  0.00    -0.304 N 
ATOM      6  H7  UNL     1       4.865  14.470  23.056  1.00  0.00     0.186 HD
ENDROOT
BRANCH   3   7
HETATM    7  C12 UNL     1       1.748  17.210  25.076  1.00  0.00     0.037 A 
HETATM    8  C13 UNL     1       1.845  17.317  26.446  1.00  0.00     0.122 A 
HETATM    9  N3  UNL     1       1.172  18.239  27.184  1.00  0.00    -0.201 N 
HETATM   10  C14 UNL     1       0.367  19.096  26.573  1.00  0.00     0.677 A 
ATOM     11  H3  UNL     1       1.285  18.270  28.198  1.00  0.00     0.183 HD
HETATM   12  N5  UNL     1       0.227  19.043  25.241  1.00  0.00    -0.176 N 
HETATM   13  C15 UNL     1       0.909  18.108  24.480  1.00  0.00     0.127 A 
ATOM     14  H5  UNL     1      -0.395  19.706  24.778  1.00  0.00     0.186 HD
BRANCH  10  15
HETATM   15  N4  UNL     1      -0.320  19.998  27.223  1.00  0.00    -0.234 N 
ATOM     16  H42 UNL     1      -1.275  19.765  27.494  1.00  0.00     0.174 HD
ATOM     17  H41 UNL     1       0.070  20.907  27.472  1.00  0.00     0.174 HD
ENDBRANCH  10  15
BRANCH  13  18
HETATM   18  N6  UNL     1       0.752  18.121  23.262  1.00  0.00    -0.384 N 
ATOM     19  H62 UNL     1       0.465  18.995  22.820  1.00  0.00     0.157 HD
ATOM     20  H61 UNL     1       0.916  17.287  22.699  1.00  0.00     0.157 HD
ENDBRANCH  13  18
ENDBRANCH   3   7
BRANCH   1  21
HETATM   21  C9  UNL     1       2.426  13.092  22.565  1.00  0.00     0.063 A 
HETATM   22  C4  UNL     1       2.556  11.923  23.316  1.00  0.00    -0.012 A 
HETATM   23  C5  UNL     1       2.329  10.654  22.781  1.00  0.00     0.011 A 
HETATM   24  C6  UNL     1       1.959  10.536  21.459  1.00  0.00     0.001 A 
HETATM   25  C7  UNL     1       1.834  11.693  20.720  1.00  0.00     0.002 A 
HETATM   26  C8  UNL     1       2.060  12.978  21.244  1.00  0.00     0.032 A 
BRANCH  22  27
HETATM   27  C3  UNL     1       2.785  12.054  24.787  1.00  0.00     0.156 C 
BRANCH  27  28
HETATM   28  N1  UNL     1       1.621  12.054  25.589  1.00  0.00    -0.417 N 
HETATM   29  C1  UNL     1       0.378  11.657  25.163  1.00  0.00     0.142 C 
HETATM   30  C2  UNL     1       1.580  13.205  26.452  1.00  0.00     0.142 C 
ENDBRANCH  27  28
ENDBRANCH  22  27
ENDBRANCH   1  21
TORSDOF 6
ENDMDL
MODEL 3
REMARK VINA RESULT: -5.595952812      1.139      1.715
REMARK  6 active torsions:
REMARK  status: ('A' for Active; 'I' for Inactive)
REMARK    1  A    between atoms: N1_2  and  C3_4 
REMARK    2  A    between atoms: C3_4  and  C4_5 
REMARK    3  A    between atoms: C9_10  and  N2_11 
REMARK    4  A    between atoms: C11_13  and  C12_14 
REMARK    5  A    between atoms: C14_18  and  N4_19 
REMARK    6  A    between atoms: C15_24  and  N6_25 
ROOT
HETATM    1  N2  UNL     1       2.381  13.926  23.999  1.00  0.00    -0.267 N 
HETATM    2  C10 UNL     1       1.724  15.093  24.093  1.00  0.00     0.130 A 
HETATM    3  C11 UNL     1       1.999  15.701  25.296  1.00  0.00     0.014 A 
HETATM    4  C16 UNL     1       2.835  14.876  25.921  1.00  0.00     0.121 A 
HETATM    5  N7  UNL     1       3.085  13.787  25.147  1.00  0.00    -0.304 N 
ATOM      6  H7  UNL     1       3.695  13.006  25.387  1.00  0.00     0.186 HD
ENDROOT
BRANCH   3   7
HETATM    7  C12 UNL     1       1.402  17.005  25.621  1.00  0.00     0.037 A 
HETATM    8  C13 UNL     1       1.125  17.302  26.936  1.00  0.00     0.122 A 
HETATM    9  N3  UNL     1       0.567  18.470  27.349  1.00  0.00    -0.201 N 
HETATM   10  C14 UNL     1       0.259  19.395  26.449  1.00  0.00     0.677 A 
ATOM     11  H3  UNL     1       0.385  18.635  28.339  1.00  0.00     0.183 HD
HETATM   12  N5  UNL     1       0.502  19.165  25.151  1.00  0.00    -0.176 N 
HETATM   13  C15 UNL     1       1.072  17.979  24.721  1.00  0.00     0.127 A 
ATOM     14  H5  UNL     1       0.262  19.881  24.465  1.00  0.00     0.186 HD
BRANCH  10  15
HETATM   15  N4  UNL     1      -0.292  20.534  26.775  1.00  0.00    -0.234 N 
ATOM     16  H42 UNL     1      -0.204  20.846  27.742  1.00  0.00     0.174 HD
ATOM     17  H41 UNL     1      -0.788  21.114  26.099  1.00  0.00     0.174 HD
ENDBRANCH  10  15
BRANCH  13  18
HETATM   18  N6  UNL     1       1.285  17.835  23.521  1.00  0.00    -0.384 N 
ATOM     19  H62 UNL     1       1.137  16.914  23.109  1.00  0.00     0.157 HD
ATOM     20  H61 UNL     1       1.588  18.617  22.940  1.00  0.00     0.157 HD
ENDBRANCH  13  18
ENDBRANCH   3   7
BRANCH   1  21
HETATM   21  C9  UNL     1       2.396  13.118  22.859  1.00  0.00     0.063 A 
HETATM   22  C4  UNL     1       2.429  11.753  23.152  1.00  0.00    -0.012 A 
HETATM   23  C5  UNL     1       2.513  10.772  22.163  1.00  0.00     0.011 A 
HETATM   24  C6  UNL     1       2.567  11.151  20.839  1.00  0.00     0.001 A 
HETATM   25  C7  UNL     1       2.538  12.500  20.554  1.00  0.00     0.002 A 
HETATM   26  C8  UNL     1       2.453  13.500  21.539  1.00  0.00     0.032 A 
BRANCH  22  27
HETATM   27  C3  UNL     1       2.195  11.333  24.566  1.00  0.00     0.156 C 
BRANCH  27  28
HETATM   28  N1  UNL     1       0.884  10.903  24.868  1.00  0.00    -0.417 N 
HETATM   29  C1  UNL     1       0.115  10.108  24.055  1.00  0.00     0.142 C 
HETATM   30  C2  UNL     1       0.129  11.942  25.518  1.00  0.00     0.142 C 
ENDBRANCH  27  28
ENDBRANCH  22  27
ENDBRANCH   1  21
TORSDOF 6
ENDMDL
MODEL 4
REMARK VINA RESULT: -5.557593067      1.394      2.767
REMARK  6 active torsions:
REMARK  status: ('A' for Active; 'I' for Inactive)
REMARK    1  A    between atoms: N1_2  and  C3_4 
REMARK    2  A    between atoms: C3_4  and  C4_5 
REMARK    3  A    between atoms: C9_10  and  N2_11 
REMARK    4  A    between atoms: C11_13  and  C12_14 
REMARK    5  A    between atoms: C14_18  and  N4_19 
REMARK    6  A    between atoms: C15_24  and  N6_25 
ROOT
HETATM    1  N2  UNL     1       1.780  13.740  24.680  1.00  0.00    -0.267 N 
HETATM    2  C10 UNL     1       1.405  15.028  24.644  1.00  0.00     0.130 A 
HETATM    3  C11 UNL     1       1.679  15.640  25.845  1.00  0.00     0.014 A 
HETATM    4  C16 UNL     1       2.228  14.693  26.601  1.00  0.00     0.121 A 
HETATM    5  N7  UNL     1       2.303  13.526  25.910  1.00  0.00    -0.304 N 
ATOM      6  H7  UNL     1       2.686  12.646  26.255  1.00  0.00     0.186 HD
ENDROOT
BRANCH   3   7
HETATM    7  C12 UNL     1       1.367  17.063  26.040  1.00  0.00     0.037 A 
HETATM    8  C13 UNL     1       0.680  17.737  25.055  1.00  0.00     0.122 A 
HETATM    9  N3  UNL     1       0.347  19.052  25.126  1.00  0.00    -0.201 N 
HETATM   10  C14 UNL     1       0.695  19.752  26.196  1.00  0.00     0.677 A 
ATOM     11  H3  UNL     1      -0.165  19.497  24.363  1.00  0.00     0.183 HD
HETATM   12  N5  UNL     1       1.368  19.156  27.190  1.00  0.00    -0.176 N 
HETATM   13  C15 UNL     1       1.711  17.815  27.128  1.00  0.00     0.127 A 
ATOM     14  H5  UNL     1       1.634  19.701  28.010  1.00  0.00     0.186 HD
BRANCH  10  15
HETATM   15  N4  UNL     1       0.420  21.023  26.323  1.00  0.00    -0.234 N 
ATOM     16  H42 UNL     1       0.615  21.465  27.221  1.00  0.00     0.174 HD
ATOM     17  H41 UNL     1       0.032  21.577  25.560  1.00  0.00     0.174 HD
ENDBRANCH  10  15
BRANCH  13  18
HETATM   18  N6  UNL     1       2.313  17.322  28.077  1.00  0.00    -0.384 N 
ATOM     19  H62 UNL     1       3.234  17.692  28.311  1.00  0.00     0.157 HD
ATOM     20  H61 UNL     1       1.901  16.572  28.632  1.00  0.00     0.157 HD
ENDBRANCH  13  18
ENDBRANCH   3   7
BRANCH   1  21
HETATM   21  C9  UNL     1       1.734  12.873  23.585  1.00  0.00     0.063 A 
HETATM   22  C4  UNL     1       2.560  13.271  22.532  1.00  0.00    -0.012 A 
HETATM   23  C5  UNL     1       2.617  12.584  21.318  1.00  0.00     0.011 A 
HETATM   24  C6  UNL     1       1.833  11.465  21.138  1.00  0.00     0.001 A 
HETATM   25  C7  UNL     1       1.016  11.077  22.180  1.00  0.00     0.002 A 
HETATM   26  C8  UNL     1       0.947  11.759  23.407  1.00  0.00     0.032 A 
BRANCH  22  27
HETATM   27  C3  UNL     1       3.536  14.373  22.783  1.00  0.00     0.156 C 
BRANCH  27  28
HETATM   28  N1  UNL     1       3.529  15.423  21.838  1.00  0.00    -0.417 N 
HETATM   29  C1  UNL     1       4.638  15.883  21.172  1.00  0.00     0.142 C 
HETATM   30  C2  UNL     1       2.630  16.476  22.231  1.00  0.00     0.142 C 
ENDBRANCH  27  28
ENDBRANCH  22  27
ENDBRANCH   1  21
TORSDOF 6
ENDMDL
MODEL 5
REMARK VINA RESULT: -5.527645428      1.483      2.918
REMARK  6 active torsions:
REMARK  status: ('A' for Active; 'I' for Inactive)
REMARK    1  A    between atoms: N1_2  and  C3_4 
REMARK    2  A    between atoms: C3_4  and  C4_5 
REMARK    3  A    between atoms: C9_10  and  N2_11 
REMARK    4  A    between atoms: C11_13  and  C12_14 
REMARK    5  A    between atoms: C14_18  and  N4_19 
REMARK    6  A    between atoms: C15_24  and  N6_25 
ROOT
HETATM    1  N2  UNL     1       1.748  13.551  25.123  1.00  0.00    -0.267 N 
HETATM    2  C10 UNL     1       1.340  14.818  24.950  1.00  0.00     0.130 A 
HETATM    3  C11 UNL     1       1.668  15.579  26.047  1.00  0.00     0.014 A 
HETATM    4  C16 UNL     1       2.283  14.745  26.881  1.00  0.00     0.121 A 
HETATM    5  N7  UNL     1       2.347  13.501  26.336  1.00  0.00    -0.304 N 
ATOM      6  H7  UNL     1       2.770  12.678  26.764  1.00  0.00     0.186 HD
ENDROOT
BRANCH   3   7
HETATM    7  C12 UNL     1       1.333  17.011  26.082  1.00  0.00     0.037 A 
HETATM    8  C13 UNL     1       0.521  17.481  27.090  1.00  0.00     0.122 A 
HETATM    9  N3  UNL     1       0.142  18.780  27.215  1.00  0.00    -0.201 N 
HETATM   10  C14 UNL     1       0.562  19.667  26.323  1.00  0.00     0.677 A 
ATOM     11  H3  UNL     1      -0.461  19.070  27.985  1.00  0.00     0.183 HD
HETATM   12  N5  UNL     1       1.353  19.272  25.316  1.00  0.00    -0.176 N 
HETATM   13  C15 UNL     1       1.747  17.951  25.181  1.00  0.00     0.127 A 
ATOM     14  H5  UNL     1       1.672  19.959  24.633  1.00  0.00     0.186 HD
BRANCH  10  15
HETATM   15  N4  UNL     1       0.225  20.928  26.375  1.00  0.00    -0.234 N 
ATOM     16  H42 UNL     1       0.091  21.347  27.295  1.00  0.00     0.174 HD
ATOM     17  H41 UNL     1       0.105  21.496  25.537  1.00  0.00     0.174 HD
ENDBRANCH  10  15
BRANCH  13  18
HETATM   18  N6  UNL     1       2.485  17.654  24.246  1.00  0.00    -0.384 N 
ATOM     19  H62 UNL     1       2.866  16.709  24.211  1.00  0.00     0.157 HD
ATOM     20  H61 UNL     1       2.705  18.328  23.512  1.00  0.00     0.157 HD
ENDBRANCH  13  18
ENDBRANCH   3   7
BRANCH   1  21
HETATM   21  C9  UNL     1       1.660  12.552  24.149  1.00  0.00     0.063 A 
HETATM   22  C4  UNL     1       2.407  12.833  23.004  1.00  0.00    -0.012 A 
HETATM   23  C5  UNL     1       2.410  12.001  21.883  1.00  0.00     0.011 A 
HETATM   24  C6  UNL     1       1.649  10.851  21.894  1.00  0.00     0.001 A 
HETATM   25  C7  UNL     1       0.910  10.580  23.026  1.00  0.00     0.002 A 
HETATM   26  C8  UNL     1       0.896  11.408  24.162  1.00  0.00     0.032 A 
BRANCH  22  27
HETATM   27  C3  UNL     1       3.364  13.979  23.053  1.00  0.00     0.156 C 
BRANCH  27  28
HETATM   28  N1  UNL     1       3.275  14.896  21.982  1.00  0.00    -0.417 N 
HETATM   29  C1  UNL     1       4.268  15.770  21.616  1.00  0.00     0.142 C 
HETATM   30  C2  UNL     1       1.957  15.468  21.891  1.00  0.00     0.142 C 
ENDBRANCH  27  28
ENDBRANCH  22  27
ENDBRANCH   1  21
TORSDOF 6
ENDMDL
