MODEL 1
REMARK VINA RESULT: -6.424877603      0.000      0.000
REMARK  8 active torsions:
REMARK  status: ('A' for Active; 'I' for Inactive)
REMARK    1  A    between atoms: C14_14  and  C16_16 
REMARK    2  A    between atoms: C16_16  and  N1_18 
REMARK       I    between atoms: N1_18  and  C18_20 
REMARK    3  A    between atoms: C18_20  and  C19_22 
REMARK    4  A    between atoms: C19_22  and  C20_23 
REMARK    5  A    between atoms: C23_26  and  N2_27 
REMARK    6  A    between atoms: N2_27  and  C26_30 
REMARK    7  A    between atoms: C26_30  and  C27_31 
REMARK    8  A    between atoms: C27_31  and  O2_32 
ROOT
HETATM    1  C1  UNL     1      -6.539   8.435  23.131  1.00  0.00     0.014 C 
HETATM    2  C2  UNL     1      -5.261   8.386  22.923  1.00  0.00    -0.084 C 
HETATM    3  C3  UNL     1      -4.309   9.516  23.244  1.00  0.00     0.034 C 
HETATM    4  C4  UNL     1      -3.308   8.694  24.072  1.00  0.00     0.010 C 
HETATM    5  C5  UNL     1      -3.195   7.378  23.298  1.00  0.00     0.003 C 
HETATM    6  C6  UNL     1      -4.351   7.347  22.364  1.00  0.00     0.025 C 
HETATM    7  C7  UNL     1      -5.058   6.107  22.146  1.00  0.00     0.025 C 
HETATM    8  C8  UNL     1      -5.052   5.286  23.408  1.00  0.00     0.013 C 
HETATM    9  C9  UNL     1      -3.761   5.006  24.011  1.00  0.00    -0.000 C 
HETATM   10  C10 UNL     1      -2.692   4.325  23.365  1.00  0.00     0.005 C 
HETATM   11  C11 UNL     1      -1.742   5.425  23.875  1.00  0.00     0.016 C 
HETATM   12  C12 UNL     1      -2.975   6.269  24.220  1.00  0.00    -0.035 C 
HETATM   13  C13 UNL     1      -2.836   6.693  25.687  1.00  0.00     0.016 C 
HETATM   14  C14 UNL     1      -2.579   4.050  21.917  1.00  0.00     0.000 C 
HETATM   15  C15 UNL     1      -1.082   4.310  21.608  1.00  0.00     0.022 C 
HETATM   16  C22 UNL     1      -3.258   4.953  20.965  1.00  0.00     0.049 C 
HETATM   17  C23 UNL     1      -4.687   5.193  21.014  1.00  0.00     0.195 C 
ENDROOT
BRANCH  14  18
HETATM   18  C16 UNL     1      -2.690   2.570  21.632  1.00  0.00    -0.006 C 
HETATM   19  C17 UNL     1      -4.059   2.035  21.368  1.00  0.00     0.064 C 
BRANCH  18  20
HETATM   20  N1  UNL     1      -1.723   2.028  20.748  1.00  0.00    -0.334 N 
HETATM   21  C18 UNL     1      -0.823   1.018  21.196  1.00  0.00     0.221 C 
HETATM   22  O1  UNL     1      -0.938   0.632  22.380  1.00  0.00    -0.273 OA
ATOM     23  H1  UNL     1      -1.670   2.364  19.786  1.00  0.00     0.168 HD
BRANCH  21  24
HETATM   24  C19 UNL     1       0.207   0.435  20.312  1.00  0.00     0.103 C 
BRANCH  24  25
HETATM   25  C20 UNL     1       1.439   0.003  21.066  1.00  0.00     0.005 C 
HETATM   26  C21 UNL     1       2.691   0.612  20.506  1.00  0.00     0.005 C 
ENDBRANCH  24  25
ENDBRANCH  21  24
ENDBRANCH  18  20
ENDBRANCH  14  18
BRANCH  17  27
HETATM   27  N2  UNL     1      -5.298   5.540  19.752  1.00  0.00    -0.068 N 
HETATM   28  C24 UNL     1      -4.283   6.098  18.890  1.00  0.00     0.272 C 
HETATM   29  C25 UNL     1      -6.346   6.494  19.837  1.00  0.00     0.272 C 
BRANCH  27  30
HETATM   30  C26 UNL     1      -5.831   4.355  19.106  1.00  0.00     0.262 C 
BRANCH  30  31
HETATM   31  C27 UNL     1      -7.285   4.101  19.435  1.00  0.00     0.192 C 
BRANCH  31  32
HETATM   32  O2  UNL     1      -7.373   2.862  20.132  1.00  0.00    -0.399 OA
ATOM     33  H2  UNL     1      -8.216   2.828  20.569  1.00  0.00     0.209 HD
ENDBRANCH  31  32
ENDBRANCH  30  31
ENDBRANCH  27  30
ENDBRANCH  17  27
TORSDOF 8
ENDMDL
MODEL 2
REMARK VINA RESULT: -6.339946955      2.362      4.452
REMARK  8 active torsions:
REMARK  status: ('A' for Active; 'I' for Inactive)
REMARK    1  A    between atoms: C14_14  and  C16_16 
REMARK    2  A    between atoms: C16_16  and  N1_18 
REMARK       I    between atoms: N1_18  and  C18_20 
REMARK    3  A    between atoms: C18_20  and  C19_22 
REMARK    4  A    between atoms: C19_22  and  C20_23 
REMARK    5  A    between atoms: C23_26  and  N2_27 
REMARK    6  A    between atoms: N2_27  and  C26_30 
REMARK    7  A    between atoms: C26_30  and  C27_31 
REMARK    8  A    between atoms: C27_31  and  O2_32 
ROOT
HETATM    1  C1  UNL     1      -6.251   7.449  23.000  1.00  0.00     0.014 C 
HETATM    2  C2  UNL     1      -6.136   6.166  23.134  1.00  0.00    -0.084 C 
HETATM    3  C3  UNL     1      -7.225   5.274  23.686  1.00  0.00     0.034 C 
HETATM    4  C4  UNL     1      -7.244   4.258  22.531  1.00  0.00     0.010 C 
HETATM    5  C5  UNL     1      -5.763   4.067  22.196  1.00  0.00     0.003 C 
HETATM    6  C6  UNL     1      -5.043   5.196  22.840  1.00  0.00     0.025 C 
HETATM    7  C7  UNL     1      -3.957   5.841  22.141  1.00  0.00     0.025 C 
HETATM    8  C8  UNL     1      -4.225   5.830  20.659  1.00  0.00     0.013 C 
HETATM    9  C9  UNL     1      -4.498   4.544  20.044  1.00  0.00    -0.000 C 
HETATM   10  C10 UNL     1      -3.614   3.429  20.062  1.00  0.00     0.005 C 
HETATM   11  C11 UNL     1      -4.810   2.543  20.455  1.00  0.00     0.016 C 
HETATM   12  C12 UNL     1      -5.599   3.820  20.767  1.00  0.00    -0.035 C 
HETATM   13  C13 UNL     1      -6.918   3.737  19.990  1.00  0.00     0.016 C 
HETATM   14  C14 UNL     1      -2.429   3.267  20.929  1.00  0.00     0.000 C 
HETATM   15  C15 UNL     1      -2.481   1.776  21.351  1.00  0.00     0.022 C 
HETATM   16  C22 UNL     1      -2.399   3.962  22.233  1.00  0.00     0.049 C 
HETATM   17  C23 UNL     1      -2.536   5.401  22.345  1.00  0.00     0.195 C 
ENDROOT
BRANCH  14  18
HETATM   18  C16 UNL     1      -1.151   3.305  20.122  1.00  0.00    -0.006 C 
HETATM   19  C17 UNL     1      -0.816   4.595  19.450  1.00  0.00     0.064 C 
BRANCH  18  20
HETATM   20  N1  UNL     1      -0.016   2.699  20.718  1.00  0.00    -0.334 N 
HETATM   21  C18 UNL     1       0.728   1.710  20.010  1.00  0.00     0.221 C 
HETATM   22  O1  UNL     1       0.343   1.420  18.856  1.00  0.00    -0.273 OA
ATOM     23  H1  UNL     1       0.269   2.972  21.658  1.00  0.00     0.168 HD
BRANCH  21  24
HETATM   24  C19 UNL     1       1.909   1.045  20.598  1.00  0.00     0.103 C 
BRANCH  24  25
HETATM   25  C20 UNL     1       1.575  -0.287  21.217  1.00  0.00     0.005 C 
HETATM   26  C21 UNL     1       0.636  -0.153  22.380  1.00  0.00     0.005 C 
ENDBRANCH  24  25
ENDBRANCH  21  24
ENDBRANCH  18  20
ENDBRANCH  14  18
BRANCH  17  27
HETATM   27  N2  UNL     1      -1.893   5.995  23.494  1.00  0.00    -0.068 N 
HETATM   28  C24 UNL     1      -0.542   6.352  23.128  1.00  0.00     0.272 C 
HETATM   29  C25 UNL     1      -1.810   5.153  24.634  1.00  0.00     0.272 C 
BRANCH  27  30
HETATM   30  C26 UNL     1      -2.585   7.207  23.889  1.00  0.00     0.262 C 
BRANCH  30  31
HETATM   31  C27 UNL     1      -2.948   7.233  25.356  1.00  0.00     0.192 C 
BRANCH  31  32
HETATM   32  O2  UNL     1      -3.304   8.569  25.701  1.00  0.00    -0.399 OA
ATOM     33  H2  UNL     1      -4.110   8.539  26.205  1.00  0.00     0.209 HD
ENDBRANCH  31  32
ENDBRANCH  30  31
ENDBRANCH  27  30
ENDBRANCH  17  27
TORSDOF 8
ENDMDL
MODEL 3
REMARK VINA RESULT: -6.267607182      3.430      8.166
REMARK  8 active torsions:
REMARK  status: ('A' for Active; 'I' for Inactive)
REMARK    1  A    between atoms: C14_14  and  C16_16 
REMARK    2  A    between atoms: C16_16  and  N1_18 
REMARK       I    between atoms: N1_18  and  C18_20 
REMARK    3  A    between atoms: C18_20  and  C19_22 
REMARK    4  A    between atoms: C19_22  and  C20_23 
REMARK    5  A    between atoms: C23_26  and  N2_27 
REMARK    6  A    between atoms: N2_27  and  C26_30 
REMARK    7  A    between atoms: C26_30  and  C27_31 
REMARK    8  A    between atoms: C27_31  and  O2_32 
ROOT
HETATM    1  C1  UNL     1       2.166  -0.503  20.507  1.00  0.00     0.014 C 
HETATM    2  C2  UNL     1       2.746   0.612  20.192  1.00  0.00    -0.084 C 
HETATM    3  C3  UNL     1       4.236   0.847  20.297  1.00  0.00     0.034 C 
HETATM    4  C4  UNL     1       4.450   1.360  18.863  1.00  0.00     0.010 C 
HETATM    5  C5  UNL     1       3.233   2.256  18.616  1.00  0.00     0.003 C 
HETATM    6  C6  UNL     1       2.248   1.918  19.677  1.00  0.00     0.025 C 
HETATM    7  C7  UNL     1       0.845   1.841  19.348  1.00  0.00     0.025 C 
HETATM    8  C8  UNL     1       0.676   1.338  17.939  1.00  0.00     0.013 C 
HETATM    9  C9  UNL     1       1.378   2.056  16.890  1.00  0.00    -0.000 C 
HETATM   10  C10 UNL     1       1.208   3.437  16.595  1.00  0.00     0.005 C 
HETATM   11  C11 UNL     1       2.742   3.570  16.544  1.00  0.00     0.016 C 
HETATM   12  C12 UNL     1       2.839   2.193  17.212  1.00  0.00    -0.035 C 
HETATM   13  C13 UNL     1       3.763   1.334  16.341  1.00  0.00     0.016 C 
HETATM   14  C14 UNL     1       0.542   4.439  17.453  1.00  0.00     0.000 C 
HETATM   15  C15 UNL     1       1.439   5.696  17.319  1.00  0.00     0.022 C 
HETATM   16  C22 UNL     1       0.518   4.223  18.914  1.00  0.00     0.049 C 
HETATM   17  C23 UNL     1      -0.055   3.032  19.511  1.00  0.00     0.195 C 
ENDROOT
BRANCH  14  18
HETATM   18  C16 UNL     1      -0.747   4.923  16.828  1.00  0.00    -0.006 C 
HETATM   19  C17 UNL     1      -0.947   4.625  15.379  1.00  0.00     0.064 C 
BRANCH  18  20
HETATM   20  N1  UNL     1      -1.927   4.718  17.587  1.00  0.00    -0.334 N 
HETATM   21  C18 UNL     1      -2.580   5.816  18.217  1.00  0.00     0.221 C 
HETATM   22  O1  UNL     1      -2.076   6.950  18.058  1.00  0.00    -0.273 OA
ATOM     23  H1  UNL     1      -2.311   3.777  17.682  1.00  0.00     0.168 HD
BRANCH  21  24
HETATM   24  C19 UNL     1      -3.804   5.645  19.025  1.00  0.00     0.103 C 
BRANCH  24  25
HETATM   25  C20 UNL     1      -4.762   4.651  18.422  1.00  0.00     0.005 C 
HETATM   26  C21 UNL     1      -5.219   3.626  19.419  1.00  0.00     0.005 C 
ENDBRANCH  24  25
ENDBRANCH  21  24
ENDBRANCH  18  20
ENDBRANCH  14  18
BRANCH  17  27
HETATM   27  N2  UNL     1      -0.575   3.200  20.848  1.00  0.00    -0.068 N 
HETATM   28  C24 UNL     1      -0.391   4.578  21.241  1.00  0.00     0.272 C 
HETATM   29  C25 UNL     1       0.048   2.395  21.837  1.00  0.00     0.272 C 
BRANCH  27  30
HETATM   30  C26 UNL     1      -1.997   2.913  20.876  1.00  0.00     0.262 C 
BRANCH  30  31
HETATM   31  C27 UNL     1      -2.311   1.504  21.325  1.00  0.00     0.192 C 
BRANCH  31  32
HETATM   32  O2  UNL     1      -2.584   0.720  20.167  1.00  0.00    -0.399 OA
ATOM     33  H2  UNL     1      -2.876  -0.138  20.453  1.00  0.00     0.209 HD
ENDBRANCH  31  32
ENDBRANCH  30  31
ENDBRANCH  27  30
ENDBRANCH  17  27
TORSDOF 8
ENDMDL
MODEL 4
REMARK VINA RESULT: -6.221281743      2.328      2.909
REMARK  8 active torsions:
REMARK  status: ('A' for Active; 'I' for Inactive)
REMARK    1  A    between atoms: C14_14  and  C16_16 
REMARK    2  A    between atoms: C16_16  and  N1_18 
REMARK       I    between atoms: N1_18  and  C18_20 
REMARK    3  A    between atoms: C18_20  and  C19_22 
REMARK    4  A    between atoms: C19_22  and  C20_23 
REMARK    5  A    between atoms: C23_26  and  N2_27 
REMARK    6  A    between atoms: N2_27  and  C26_30 
REMARK    7  A    between atoms: C26_30  and  C27_31 
REMARK    8  A    between atoms: C27_31  and  O2_32 
ROOT
HETATM    1  C1  UNL     1      -3.692   9.274  21.113  1.00  0.00     0.014 C 
HETATM    2  C2  UNL     1      -2.685   8.731  21.720  1.00  0.00    -0.084 C 
HETATM    3  C3  UNL     1      -1.846   9.438  22.761  1.00  0.00     0.034 C 
HETATM    4  C4  UNL     1      -1.947   8.360  23.853  1.00  0.00     0.010 C 
HETATM    5  C5  UNL     1      -1.818   7.047  23.076  1.00  0.00     0.003 C 
HETATM    6  C6  UNL     1      -2.044   7.388  21.647  1.00  0.00     0.025 C 
HETATM    7  C7  UNL     1      -2.813   6.494  20.815  1.00  0.00     0.025 C 
HETATM    8  C8  UNL     1      -3.883   5.825  21.636  1.00  0.00     0.013 C 
HETATM    9  C9  UNL     1      -3.458   5.122  22.833  1.00  0.00    -0.000 C 
HETATM   10  C10 UNL     1      -2.530   4.044  22.857  1.00  0.00     0.005 C 
HETATM   11  C11 UNL     1      -1.822   4.737  24.036  1.00  0.00     0.016 C 
HETATM   12  C12 UNL     1      -2.619   6.006  23.711  1.00  0.00    -0.035 C 
HETATM   13  C13 UNL     1      -3.309   6.450  25.006  1.00  0.00     0.016 C 
HETATM   14  C14 UNL     1      -1.626   3.643  21.759  1.00  0.00     0.000 C 
HETATM   15  C15 UNL     1      -0.299   3.296  22.481  1.00  0.00     0.022 C 
HETATM   16  C22 UNL     1      -1.196   4.664  20.782  1.00  0.00     0.049 C 
HETATM   17  C23 UNL     1      -2.143   5.429  19.995  1.00  0.00     0.195 C 
ENDROOT
BRANCH  14  18
HETATM   18  C16 UNL     1      -2.019   2.298  21.191  1.00  0.00    -0.006 C 
HETATM   19  C17 UNL     1      -3.474   2.066  20.951  1.00  0.00     0.064 C 
BRANCH  18  20
HETATM   20  N1  UNL     1      -1.215   1.807  20.132  1.00  0.00    -0.334 N 
HETATM   21  C18 UNL     1      -0.531   0.564  20.262  1.00  0.00     0.221 C 
HETATM   22  O1  UNL     1      -0.684  -0.065  21.332  1.00  0.00    -0.273 OA
ATOM     23  H1  UNL     1      -1.125   2.347  19.271  1.00  0.00     0.168 HD
BRANCH  21  24
HETATM   24  C19 UNL     1       0.326   0.021  19.188  1.00  0.00     0.103 C 
BRANCH  24  25
HETATM   25  C20 UNL     1       1.762  -0.138  19.618  1.00  0.00     0.005 C 
HETATM   26  C21 UNL     1       2.351   1.148  20.118  1.00  0.00     0.005 C 
ENDBRANCH  24  25
ENDBRANCH  21  24
ENDBRANCH  18  20
ENDBRANCH  14  18
BRANCH  17  27
HETATM   27  N2  UNL     1      -1.655   5.889  18.716  1.00  0.00    -0.068 N 
HETATM   28  C24 UNL     1      -0.309   6.384  18.891  1.00  0.00     0.272 C 
HETATM   29  C25 UNL     1      -2.413   6.937  18.129  1.00  0.00     0.272 C 
BRANCH  27  30
HETATM   30  C26 UNL     1      -1.609   4.792  17.768  1.00  0.00     0.262 C 
BRANCH  30  31
HETATM   31  C27 UNL     1      -0.209   4.473  17.295  1.00  0.00     0.192 C 
BRANCH  31  32
HETATM   32  O2  UNL     1       0.066   3.111  17.610  1.00  0.00    -0.399 OA
ATOM     33  H2  UNL     1       0.470   2.708  16.850  1.00  0.00     0.209 HD
ENDBRANCH  31  32
ENDBRANCH  30  31
ENDBRANCH  27  30
ENDBRANCH  17  27
TORSDOF 8
ENDMDL
MODEL 5
REMARK VINA RESULT: -6.219122467      2.797      6.824
REMARK  8 active torsions:
REMARK  status: ('A' for Active; 'I' for Inactive)
REMARK    1  A    between atoms: C14_14  and  C16_16 
REMARK    2  A    between atoms: C16_16  and  N1_18 
REMARK       I    between atoms: N1_18  and  C18_20 
REMARK    3  A    between atoms: C18_20  and  C19_22 
REMARK    4  A    between atoms: C19_22  and  C20_23 
REMARK    5  A    between atoms: C23_26  and  N2_27 
REMARK    6  A    between atoms: N2_27  and  C26_30 
REMARK    7  A    between atoms: C26_30  and  C27_31 
REMARK    8  A    between atoms: C27_31  and  O2_32 
ROOT
HETATM    1  C1  UNL     1       2.747   2.639  19.381  1.00  0.00     0.014 C 
HETATM    2  C2  UNL     1       1.662   1.968  19.153  1.00  0.00    -0.084 C 
HETATM    3  C3  UNL     1       1.636   0.585  18.542  1.00  0.00     0.034 C 
HETATM    4  C4  UNL     1       0.766  -0.084  19.620  1.00  0.00     0.010 C 
HETATM    5  C5  UNL     1      -0.295   0.975  19.934  1.00  0.00     0.003 C 
HETATM    6  C6  UNL     1       0.215   2.252  19.370  1.00  0.00     0.025 C 
HETATM    7  C7  UNL     1       0.036   3.479  20.109  1.00  0.00     0.025 C 
HETATM    8  C8  UNL     1       0.098   3.199  21.587  1.00  0.00     0.013 C 
HETATM    9  C9  UNL     1      -0.803   2.187  22.108  1.00  0.00    -0.000 C 
HETATM   10  C10 UNL     1      -2.221   2.229  22.005  1.00  0.00     0.005 C 
HETATM   11  C11 UNL     1      -2.189   0.757  21.554  1.00  0.00     0.016 C 
HETATM   12  C12 UNL     1      -0.677   0.902  21.340  1.00  0.00    -0.035 C 
HETATM   13  C13 UNL     1      -0.000  -0.235  22.114  1.00  0.00     0.016 C 
HETATM   14  C14 UNL     1      -3.008   3.116  21.122  1.00  0.00     0.000 C 
HETATM   15  C15 UNL     1      -4.142   2.199  20.593  1.00  0.00     0.022 C 
HETATM   16  C22 UNL     1      -2.391   3.607  19.873  1.00  0.00     0.049 C 
HETATM   17  C23 UNL     1      -1.154   4.362  19.867  1.00  0.00     0.195 C 
ENDROOT
BRANCH  14  18
HETATM   18  C16 UNL     1      -3.793   4.129  21.925  1.00  0.00    -0.006 C 
HETATM   19  C17 UNL     1      -5.281   4.050  21.840  1.00  0.00     0.064 C 
BRANCH  18  20
HETATM   20  N1  UNL     1      -3.342   4.363  23.248  1.00  0.00    -0.334 N 
HETATM   21  C18 UNL     1      -2.679   5.581  23.579  1.00  0.00     0.221 C 
HETATM   22  O1  UNL     1      -2.529   6.419  22.663  1.00  0.00    -0.273 OA
ATOM     23  H1  UNL     1      -3.494   3.657  23.968  1.00  0.00     0.168 HD
BRANCH  21  24
HETATM   24  C19 UNL     1      -2.183   5.861  24.942  1.00  0.00     0.103 C 
BRANCH  24  25
HETATM   25  C20 UNL     1      -2.932   6.983  25.612  1.00  0.00     0.005 C 
HETATM   26  C21 UNL     1      -2.257   7.447  26.869  1.00  0.00     0.005 C 
ENDBRANCH  24  25
ENDBRANCH  21  24
ENDBRANCH  18  20
ENDBRANCH  14  18
BRANCH  17  27
HETATM   27  N2  UNL     1      -0.994   5.277  18.762  1.00  0.00    -0.068 N 
HETATM   28  C24 UNL     1      -0.679   6.584  19.292  1.00  0.00     0.272 C 
HETATM   29  C25 UNL     1      -2.141   5.425  17.938  1.00  0.00     0.272 C 
BRANCH  27  30
HETATM   30  C26 UNL     1       0.108   4.860  17.915  1.00  0.00     0.262 C 
BRANCH  30  31
HETATM   31  C27 UNL     1      -0.312   4.576  16.490  1.00  0.00     0.192 C 
BRANCH  31  32
HETATM   32  O2  UNL     1       0.066   3.239  16.175  1.00  0.00    -0.399 OA
ATOM     33  H2  UNL     1      -0.572   2.888  15.565  1.00  0.00     0.209 HD
ENDBRANCH  31  32
ENDBRANCH  30  31
ENDBRANCH  27  30
ENDBRANCH  17  27
TORSDOF 8
ENDMDL
