MODEL 1
REMARK VINA RESULT: -6.717542923      0.000      0.000
REMARK  4 active torsions:
REMARK  status: ('A' for Active; 'I' for Inactive)
REMARK    1  A    between atoms: C1_2  and  C2_4 
REMARK    2  A    between atoms: C2_4  and  C3_6 
REMARK    3  A    between atoms: C3_6  and  C4_8 
REMARK    4  A    between atoms: C4_8  and  C5_9 
ROOT
HETATM    1  C5  UNL     1      66.209  34.628  25.545  1.00  0.00    -0.007 C 
HETATM    2  C6  UNL     1      67.188  33.544  25.957  1.00  0.00     0.005 C 
HETATM    3  C7  UNL     1      67.081  33.115  27.386  1.00  0.00     0.000 C 
HETATM    4  C8  UNL     1      66.023  32.088  27.662  1.00  0.00     0.000 C 
HETATM    5  C9  UNL     1      64.797  32.641  28.301  1.00  0.00     0.000 C 
HETATM    6  C10 UNL     1      63.678  32.975  27.357  1.00  0.00     0.000 C 
HETATM    7  C11 UNL     1      63.944  34.309  26.639  1.00  0.00     0.000 C 
HETATM    8  C12 UNL     1      64.815  34.123  25.444  1.00  0.00     0.005 C 
ENDROOT
BRANCH   1   9
HETATM    9  C4  UNL     1      66.403  35.856  26.363  1.00  0.00     0.092 C 
BRANCH   9  10
HETATM   10  C3  UNL     1      66.631  37.096  25.586  1.00  0.00     0.206 C 
HETATM   11  O4  UNL     1      67.801  37.472  25.378  1.00  0.00    -0.289 OA
BRANCH  10  12
HETATM   12  C2  UNL     1      65.513  37.883  25.062  1.00  0.00     0.293 C 
HETATM   13  O3  UNL     1      64.798  38.564  25.826  1.00  0.00    -0.277 OA
BRANCH  12  14
HETATM   14  C1  UNL     1      65.231  37.871  23.640  1.00  0.00     0.255 C 
HETATM   15  O1  UNL     1      65.337  38.943  22.956  1.00  0.00    -0.641 OA
HETATM   16  O2  UNL     1      64.848  36.727  22.989  1.00  0.00    -0.641 OA
ENDBRANCH  12  14
ENDBRANCH  10  12
ENDBRANCH   9  10
ENDBRANCH   1   9
TORSDOF 4
ENDMDL
MODEL 2
REMARK VINA RESULT: -6.692155261      1.218      2.820
REMARK  4 active torsions:
REMARK  status: ('A' for Active; 'I' for Inactive)
REMARK    1  A    between atoms: C1_2  and  C2_4 
REMARK    2  A    between atoms: C2_4  and  C3_6 
REMARK    3  A    between atoms: C3_6  and  C4_8 
REMARK    4  A    between atoms: C4_8  and  C5_9 
ROOT
HETATM    1  C5  UNL     1      64.958  35.340  25.854  1.00  0.00    -0.007 C 
HETATM    2  C6  UNL     1      63.913  34.628  26.692  1.00  0.00     0.005 C 
HETATM    3  C7  UNL     1      64.032  33.137  26.705  1.00  0.00     0.000 C 
HETATM    4  C8  UNL     1      65.016  32.589  27.696  1.00  0.00     0.000 C 
HETATM    5  C9  UNL     1      66.301  32.145  27.088  1.00  0.00     0.000 C 
HETATM    6  C10 UNL     1      67.411  33.155  27.128  1.00  0.00     0.000 C 
HETATM    7  C11 UNL     1      67.225  34.222  26.035  1.00  0.00     0.000 C 
HETATM    8  C12 UNL     1      66.305  35.306  26.480  1.00  0.00     0.005 C 
ENDROOT
BRANCH   1   9
HETATM    9  C4  UNL     1      64.885  34.905  24.433  1.00  0.00     0.092 C 
BRANCH   9  10
HETATM   10  C3  UNL     1      64.806  36.005  23.444  1.00  0.00     0.206 C 
HETATM   11  O4  UNL     1      63.838  36.043  22.659  1.00  0.00    -0.289 OA
BRANCH  10  12
HETATM   12  C2  UNL     1      65.839  37.041  23.373  1.00  0.00     0.293 C 
HETATM   13  O3  UNL     1      67.049  36.739  23.427  1.00  0.00    -0.277 OA
BRANCH  12  14
HETATM   14  C1  UNL     1      65.453  38.431  23.238  1.00  0.00     0.255 C 
HETATM   15  O1  UNL     1      65.620  39.039  22.129  1.00  0.00    -0.641 OA
HETATM   16  O2  UNL     1      64.903  39.132  24.280  1.00  0.00    -0.641 OA
ENDBRANCH  12  14
ENDBRANCH  10  12
ENDBRANCH   9  10
ENDBRANCH   1   9
TORSDOF 4
ENDMDL
MODEL 3
REMARK VINA RESULT: -6.578203168      0.669      1.534
REMARK  4 active torsions:
REMARK  status: ('A' for Active; 'I' for Inactive)
REMARK    1  A    between atoms: C1_2  and  C2_4 
REMARK    2  A    between atoms: C2_4  and  C3_6 
REMARK    3  A    between atoms: C3_6  and  C4_8 
REMARK    4  A    between atoms: C4_8  and  C5_9 
ROOT
HETATM    1  C5  UNL     1      65.614  34.994  25.431  1.00  0.00    -0.007 C 
HETATM    2  C6  UNL     1      66.825  34.123  25.708  1.00  0.00     0.005 C 
HETATM    3  C7  UNL     1      66.957  33.666  27.126  1.00  0.00     0.000 C 
HETATM    4  C8  UNL     1      66.157  32.445  27.475  1.00  0.00     0.000 C 
HETATM    5  C9  UNL     1      64.920  32.735  28.251  1.00  0.00     0.000 C 
HETATM    6  C10 UNL     1      63.665  32.850  27.437  1.00  0.00     0.000 C 
HETATM    7  C11 UNL     1      63.585  34.217  26.737  1.00  0.00     0.000 C 
HETATM    8  C12 UNL     1      64.344  34.222  25.456  1.00  0.00     0.005 C 
ENDROOT
BRANCH   1   9
HETATM    9  C4  UNL     1      65.647  36.227  26.264  1.00  0.00     0.092 C 
BRANCH   9  10
HETATM   10  C3  UNL     1      65.553  37.497  25.506  1.00  0.00     0.206 C 
HETATM   11  O4  UNL     1      64.812  38.402  25.937  1.00  0.00    -0.289 OA
BRANCH  10  12
HETATM   12  C2  UNL     1      66.308  37.703  24.269  1.00  0.00     0.293 C 
HETATM   13  O3  UNL     1      67.557  37.713  24.278  1.00  0.00    -0.277 OA
BRANCH  12  14
HETATM   14  C1  UNL     1      65.600  37.899  23.020  1.00  0.00     0.255 C 
HETATM   15  O1  UNL     1      64.830  36.987  22.570  1.00  0.00    -0.641 OA
HETATM   16  O2  UNL     1      65.730  39.052  22.290  1.00  0.00    -0.641 OA
ENDBRANCH  12  14
ENDBRANCH  10  12
ENDBRANCH   9  10
ENDBRANCH   1   9
TORSDOF 4
ENDMDL
MODEL 4
REMARK VINA RESULT: -6.571623773      0.725      1.334
REMARK  4 active torsions:
REMARK  status: ('A' for Active; 'I' for Inactive)
REMARK    1  A    between atoms: C1_2  and  C2_4 
REMARK    2  A    between atoms: C2_4  and  C3_6 
REMARK    3  A    between atoms: C3_6  and  C4_8 
REMARK    4  A    between atoms: C4_8  and  C5_9 
ROOT
HETATM    1  C5  UNL     1      66.261  34.603  25.575  1.00  0.00    -0.007 C 
HETATM    2  C6  UNL     1      67.214  33.483  25.950  1.00  0.00     0.005 C 
HETATM    3  C7  UNL     1      67.108  33.020  27.369  1.00  0.00     0.000 C 
HETATM    4  C8  UNL     1      66.025  32.015  27.628  1.00  0.00     0.000 C 
HETATM    5  C9  UNL     1      64.819  32.584  28.292  1.00  0.00     0.000 C 
HETATM    6  C10 UNL     1      63.702  32.973  27.368  1.00  0.00     0.000 C 
HETATM    7  C11 UNL     1      63.998  34.317  26.681  1.00  0.00     0.000 C 
HETATM    8  C12 UNL     1      64.853  34.138  25.474  1.00  0.00     0.005 C 
ENDROOT
BRANCH   1   9
HETATM    9  C4  UNL     1      66.496  35.803  26.422  1.00  0.00     0.092 C 
BRANCH   9  10
HETATM   10  C3  UNL     1      67.131  36.946  25.726  1.00  0.00     0.206 C 
HETATM   11  O4  UNL     1      68.157  37.457  26.217  1.00  0.00    -0.289 OA
BRANCH  10  12
HETATM   12  C2  UNL     1      66.578  37.482  24.481  1.00  0.00     0.293 C 
HETATM   13  O3  UNL     1      67.048  37.141  23.375  1.00  0.00    -0.277 OA
BRANCH  12  14
HETATM   14  C1  UNL     1      65.474  38.419  24.531  1.00  0.00     0.255 C 
HETATM   15  O1  UNL     1      65.108  39.038  23.477  1.00  0.00    -0.641 OA
HETATM   16  O2  UNL     1      64.793  38.671  25.694  1.00  0.00    -0.641 OA
ENDBRANCH  12  14
ENDBRANCH  10  12
ENDBRANCH   9  10
ENDBRANCH   1   9
TORSDOF 4
ENDMDL
MODEL 5
REMARK VINA RESULT: -6.550597209      1.096      1.831
REMARK  4 active torsions:
REMARK  status: ('A' for Active; 'I' for Inactive)
REMARK    1  A    between atoms: C1_2  and  C2_4 
REMARK    2  A    between atoms: C2_4  and  C3_6 
REMARK    3  A    between atoms: C3_6  and  C4_8 
REMARK    4  A    between atoms: C4_8  and  C5_9 
ROOT
HETATM    1  C5  UNL     1      65.558  35.133  25.327  1.00  0.00    -0.007 C 
HETATM    2  C6  UNL     1      66.787  34.280  25.582  1.00  0.00     0.005 C 
HETATM    3  C7  UNL     1      66.945  33.819  26.996  1.00  0.00     0.000 C 
HETATM    4  C8  UNL     1      66.170  32.584  27.350  1.00  0.00     0.000 C 
HETATM    5  C9  UNL     1      64.940  32.851  28.145  1.00  0.00     0.000 C 
HETATM    6  C10 UNL     1      63.671  32.949  27.348  1.00  0.00     0.000 C 
HETATM    7  C11 UNL     1      63.560  34.318  26.657  1.00  0.00     0.000 C 
HETATM    8  C12 UNL     1      64.301  34.341  25.365  1.00  0.00     0.005 C 
ENDROOT
BRANCH   1   9
HETATM    9  C4  UNL     1      65.583  36.362  26.164  1.00  0.00     0.092 C 
BRANCH   9  10
HETATM   10  C3  UNL     1      65.297  37.621  25.437  1.00  0.00     0.206 C 
HETATM   11  O4  UNL     1      64.732  38.553  26.044  1.00  0.00    -0.289 OA
BRANCH  10  12
HETATM   12  C2  UNL     1      65.662  37.787  24.029  1.00  0.00     0.293 C 
HETATM   13  O3  UNL     1      64.791  37.751  23.136  1.00  0.00    -0.277 OA
BRANCH  12  14
HETATM   14  C1  UNL     1      67.049  37.997  23.668  1.00  0.00     0.255 C 
HETATM   15  O1  UNL     1      67.704  37.077  23.072  1.00  0.00    -0.641 OA
HETATM   16  O2  UNL     1      67.698  39.172  23.947  1.00  0.00    -0.641 OA
ENDBRANCH  12  14
ENDBRANCH  10  12
ENDBRANCH   9  10
ENDBRANCH   1   9
TORSDOF 4
ENDMDL
