MODEL 1
REMARK VINA RESULT: -8.633918151      0.000      0.000
REMARK  16 active torsions:
REMARK  status: ('A' for Active; 'I' for Inactive)
REMARK    1  A    between atoms: C2_2  and  C4_4 
REMARK    2  A    between atoms: C4_4  and  N1_5 
REMARK    3  A    between atoms: N1_5  and  C5_7 
REMARK    4  A    between atoms: C6_10  and  N3_11 
REMARK    5  A    between atoms: N3_11  and  C7_13 
REMARK    6  A    between atoms: C7_13  and  C8_14 
REMARK    7  A    between atoms: C13_24  and  N6_25 
REMARK    8  A    between atoms: N6_25  and  C14_27 
REMARK    9  A    between atoms: C14_27  and  C15_28 
REMARK   10  A    between atoms: C15_28  and  C16_29 
REMARK   11  A    between atoms: C16_29  and  N7_30 
REMARK   12  A    between atoms: C21_38  and  C22_39 
REMARK   13  A    between atoms: C22_39  and  C23_40 
REMARK   14  A    between atoms: C23_40  and  C24_41 
REMARK   15  A    between atoms: C26_43  and  N9_44 
REMARK   16  A    between atoms: C28_50  and  O1_51 
ROOT
HETATM    1  C5  UNL     1      -5.284  22.995 -12.357  1.00  0.00     0.127 A 
HETATM    2  N2  UNL     1      -5.552  22.810 -13.669  1.00  0.00    -0.176 N 
ATOM      3  H2  UNL     1      -4.808  22.508 -14.298  1.00  0.00     0.186 HD
HETATM    4  C6  UNL     1      -6.764  23.016 -14.144  1.00  0.00     0.681 A 
HETATM    5  N5  UNL     1      -7.723  23.412 -13.291  1.00  0.00    -0.176 N 
ATOM      6  H5  UNL     1      -8.662  23.571 -13.658  1.00  0.00     0.186 HD
HETATM    7  C13 UNL     1      -7.509  23.613 -11.968  1.00  0.00     0.127 A 
HETATM    8  C21 UNL     1      -6.234  23.399 -11.457  1.00  0.00     0.031 A 
ENDROOT
BRANCH   8   9
HETATM    9  C22 UNL     1      -6.041  23.618 -10.045  1.00  0.00     0.051 C 
BRANCH   9  10
HETATM   10  C23 UNL     1      -5.708  24.967  -9.545  1.00  0.00     0.046 C 
BRANCH  10  11
HETATM   11  C24 UNL     1      -6.227  25.120  -8.145  1.00  0.00    -0.020 A 
HETATM   12  C25 UNL     1      -7.409  24.561  -7.714  1.00  0.00     0.058 A 
HETATM   13  C26 UNL     1      -7.839  24.729  -6.412  1.00  0.00     0.099 A 
HETATM   14  N10 UNL     1      -7.125  25.440  -5.519  1.00  0.00    -0.350 N 
HETATM   15  C27 UNL     1      -5.972  25.994  -5.914  1.00  0.00     0.126 A 
ATOM     16  H10 UNL     1      -7.456  25.554  -4.561  1.00  0.00     0.166 HD
HETATM   17  C28 UNL     1      -5.526  25.838  -7.207  1.00  0.00     0.087 A 
BRANCH  13  18
HETATM   18  N9  UNL     1      -8.935  24.214  -6.005  1.00  0.00    -0.385 N 
ATOM     19  H92 UNL     1      -9.504  23.724  -6.695  1.00  0.00     0.157 HD
ATOM     20  H91 UNL     1      -9.226  24.292  -5.030  1.00  0.00     0.157 HD
ENDBRANCH  13  18
BRANCH  17  21
HETATM   21  O1  UNL     1      -4.304  26.447  -7.554  1.00  0.00    -0.359 OA
ATOM     22  H1  UNL     1      -3.519  26.256  -7.055  1.00  0.00     0.217 HD
ENDBRANCH  17  21
ENDBRANCH  10  11
ENDBRANCH   9  10
ENDBRANCH   8   9
BRANCH   1  23
HETATM   23  N1  UNL     1      -4.096  22.773 -11.978  1.00  0.00    -0.375 N 
ATOM     24  H1  UNL     1      -3.944  22.061 -11.263  1.00  0.00     0.161 HD
BRANCH  23  25
HETATM   25  C4  UNL     1      -2.951  23.465 -12.498  1.00  0.00     0.125 C 
BRANCH  25  26
HETATM   26  C2  UNL     1      -2.762  24.834 -11.913  1.00  0.00    -0.005 C 
HETATM   27  C1  UNL     1      -1.826  25.589 -12.860  1.00  0.00     0.011 C 
HETATM   28  C3  UNL     1      -2.194  24.776 -10.512  1.00  0.00     0.011 C 
ENDBRANCH  25  26
ENDBRANCH  23  25
ENDBRANCH   1  23
BRANCH   7  29
HETATM   29  N6  UNL     1      -8.581  24.040 -11.147  1.00  0.00    -0.375 N 
ATOM     30  H6  UNL     1      -8.976  23.393 -10.463  1.00  0.00     0.161 HD
BRANCH  29  31
HETATM   31  C14 UNL     1      -9.123  25.362 -11.257  1.00  0.00     0.123 C 
BRANCH  31  32
HETATM   32  C15 UNL     1     -10.509  25.368 -11.869  1.00  0.00     0.050 C 
BRANCH  32  33
HETATM   33  C16 UNL     1     -11.580  25.294 -10.822  1.00  0.00     0.274 C 
BRANCH  33  34
HETATM   34  N7  UNL     1     -12.641  24.422 -11.212  1.00  0.00     0.091 N 
HETATM   35  C17 UNL     1     -13.483  23.970 -10.151  1.00  0.00     0.300 C 
HETATM   36  C18 UNL     1     -14.322  22.782 -10.607  1.00  0.00     0.262 C 
HETATM   37  N8  UNL     1     -13.429  21.677 -10.780  1.00  0.00    -0.072 N 
HETATM   38  C19 UNL     1     -12.227  22.002 -11.494  1.00  0.00     0.262 C 
ATOM     39  H82 UNL     1     -13.205  21.254  -9.879  1.00  0.00     0.277 HD
ATOM     40  H81 UNL     1     -13.909  20.896 -11.225  1.00  0.00     0.277 HD
HETATM   41  C20 UNL     1     -12.223  23.369 -12.106  1.00  0.00     0.300 C 
ENDBRANCH  33  34
ENDBRANCH  32  33
ENDBRANCH  31  32
ENDBRANCH  29  31
ENDBRANCH   7  29
BRANCH   4  42
HETATM   42  N3  UNL     1      -7.087  22.864 -15.365  1.00  0.00    -0.226 N 
ATOM     43  H3  UNL     1      -6.909  21.973 -15.829  1.00  0.00     0.177 HD
BRANCH  42  44
HETATM   44  C7  UNL     1      -7.704  23.938 -16.096  1.00  0.00     0.142 C 
BRANCH  44  45
HETATM   45  C8  UNL     1      -8.810  23.432 -17.008  1.00  0.00     0.007 C 
HETATM   46  C9  UNL     1      -9.343  24.530 -17.901  1.00  0.00     0.034 C 
HETATM   47  C10 UNL     1     -10.432  25.327 -17.212  1.00  0.00     0.232 C 
HETATM   48  N4  UNL     1     -11.455  24.476 -16.638  1.00  0.00    -0.075 N 
HETATM   49  C11 UNL     1     -10.823  23.728 -15.551  1.00  0.00     0.232 C 
ATOM     50  H42 UNL     1     -12.285  24.990 -16.343  1.00  0.00     0.277 HD
ATOM     51  H41 UNL     1     -11.912  23.878 -17.326  1.00  0.00     0.277 HD
HETATM   52  C12 UNL     1      -9.858  22.754 -16.190  1.00  0.00     0.034 C 
ENDBRANCH  44  45
ENDBRANCH  42  44
ENDBRANCH   4  42
TORSDOF 16
ENDMDL
MODEL 2
REMARK VINA RESULT: -8.351191754      0.736      1.016
REMARK  16 active torsions:
REMARK  status: ('A' for Active; 'I' for Inactive)
REMARK    1  A    between atoms: C2_2  and  C4_4 
REMARK    2  A    between atoms: C4_4  and  N1_5 
REMARK    3  A    between atoms: N1_5  and  C5_7 
REMARK    4  A    between atoms: C6_10  and  N3_11 
REMARK    5  A    between atoms: N3_11  and  C7_13 
REMARK    6  A    between atoms: C7_13  and  C8_14 
REMARK    7  A    between atoms: C13_24  and  N6_25 
REMARK    8  A    between atoms: N6_25  and  C14_27 
REMARK    9  A    between atoms: C14_27  and  C15_28 
REMARK   10  A    between atoms: C15_28  and  C16_29 
REMARK   11  A    between atoms: C16_29  and  N7_30 
REMARK   12  A    between atoms: C21_38  and  C22_39 
REMARK   13  A    between atoms: C22_39  and  C23_40 
REMARK   14  A    between atoms: C23_40  and  C24_41 
REMARK   15  A    between atoms: C26_43  and  N9_44 
REMARK   16  A    between atoms: C28_50  and  O1_51 
ROOT
HETATM    1  C5  UNL     1      -4.959  23.245 -12.205  1.00  0.00     0.127 A 
HETATM    2  N2  UNL     1      -5.286  22.957 -13.485  1.00  0.00    -0.176 N 
ATOM      3  H2  UNL     1      -4.557  22.682 -14.142  1.00  0.00     0.186 HD
HETATM    4  C6  UNL     1      -6.539  23.027 -13.890  1.00  0.00     0.681 A 
HETATM    5  N5  UNL     1      -7.477  23.391 -13.001  1.00  0.00    -0.176 N 
ATOM      6  H5  UNL     1      -8.446  23.444 -13.315  1.00  0.00     0.186 HD
HETATM    7  C13 UNL     1      -7.203  23.691 -11.708  1.00  0.00     0.127 A 
HETATM    8  C21 UNL     1      -5.886  23.620 -11.270  1.00  0.00     0.031 A 
ENDROOT
BRANCH   8   9
HETATM    9  C22 UNL     1      -5.630  23.942  -9.888  1.00  0.00     0.051 C 
BRANCH   9  10
HETATM   10  C23 UNL     1      -5.342  25.336  -9.494  1.00  0.00     0.046 C 
BRANCH  10  11
HETATM   11  C24 UNL     1      -5.747  25.543  -8.065  1.00  0.00    -0.020 A 
HETATM   12  C25 UNL     1      -6.909  25.035  -7.529  1.00  0.00     0.058 A 
HETATM   13  C26 UNL     1      -7.232  25.251  -6.203  1.00  0.00     0.099 A 
HETATM   14  N10 UNL     1      -6.431  25.962  -5.388  1.00  0.00    -0.350 N 
HETATM   15  C27 UNL     1      -5.295  26.468  -5.885  1.00  0.00     0.126 A 
ATOM     16  H10 UNL     1      -6.683  26.112  -4.411  1.00  0.00     0.166 HD
HETATM   17  C28 UNL     1      -4.955  26.263  -7.203  1.00  0.00     0.087 A 
BRANCH  13  18
HETATM   18  N9  UNL     1      -8.309  24.783  -5.699  1.00  0.00    -0.385 N 
ATOM     19  H92 UNL     1      -8.744  23.996  -6.181  1.00  0.00     0.157 HD
ATOM     20  H91 UNL     1      -8.712  25.181  -4.851  1.00  0.00     0.157 HD
ENDBRANCH  13  18
BRANCH  17  21
HETATM   21  O1  UNL     1      -3.744  26.823  -7.660  1.00  0.00    -0.359 OA
ATOM     22  H1  UNL     1      -3.234  27.382  -7.087  1.00  0.00     0.217 HD
ENDBRANCH  17  21
ENDBRANCH  10  11
ENDBRANCH   9  10
ENDBRANCH   8   9
BRANCH   1  23
HETATM   23  N1  UNL     1      -3.735  23.151 -11.892  1.00  0.00    -0.375 N 
ATOM     24  H1  UNL     1      -3.476  22.496 -11.153  1.00  0.00     0.161 HD
BRANCH  23  25
HETATM   25  C4  UNL     1      -2.692  23.914 -12.518  1.00  0.00     0.125 C 
BRANCH  25  26
HETATM   26  C2  UNL     1      -2.402  25.213 -11.826  1.00  0.00    -0.005 C 
HETATM   27  C1  UNL     1      -1.409  25.969 -12.712  1.00  0.00     0.011 C 
HETATM   28  C3  UNL     1      -1.844  25.000 -10.435  1.00  0.00     0.011 C 
ENDBRANCH  25  26
ENDBRANCH  23  25
ENDBRANCH   1  23
BRANCH   7  29
HETATM   29  N6  UNL     1      -8.259  24.073 -10.844  1.00  0.00    -0.375 N 
ATOM     30  H6  UNL     1      -8.674  23.378 -10.223  1.00  0.00     0.161 HD
BRANCH  29  31
HETATM   31  C14 UNL     1      -8.755  25.417 -10.824  1.00  0.00     0.123 C 
BRANCH  31  32
HETATM   32  C15 UNL     1     -10.269  25.474 -10.854  1.00  0.00     0.050 C 
BRANCH  32  33
HETATM   33  C16 UNL     1     -10.845  24.471 -11.809  1.00  0.00     0.274 C 
BRANCH  33  34
HETATM   34  N7  UNL     1     -11.713  23.551 -11.149  1.00  0.00     0.091 N 
HETATM   35  C17 UNL     1     -12.714  22.953 -11.974  1.00  0.00     0.300 C 
HETATM   36  C18 UNL     1     -13.791  22.299 -11.117  1.00  0.00     0.262 C 
HETATM   37  N8  UNL     1     -14.515  23.354 -10.475  1.00  0.00    -0.072 N 
HETATM   38  C19 UNL     1     -13.682  24.371  -9.899  1.00  0.00     0.262 C 
ATOM     39  H82 UNL     1     -15.190  23.767 -11.118  1.00  0.00     0.277 HD
ATOM     40  H81 UNL     1     -15.152  22.975  -9.775  1.00  0.00     0.277 HD
HETATM   41  C20 UNL     1     -12.221  24.040  -9.889  1.00  0.00     0.300 C 
ENDBRANCH  33  34
ENDBRANCH  32  33
ENDBRANCH  31  32
ENDBRANCH  29  31
ENDBRANCH   7  29
BRANCH   4  42
HETATM   42  N3  UNL     1      -6.919  22.772 -15.078  1.00  0.00    -0.226 N 
ATOM     43  H3  UNL     1      -6.781  21.838 -15.464  1.00  0.00     0.177 HD
BRANCH  42  44
HETATM   44  C7  UNL     1      -7.543  23.791 -15.878  1.00  0.00     0.142 C 
BRANCH  44  45
HETATM   45  C8  UNL     1      -8.616  23.210 -16.786  1.00  0.00     0.007 C 
HETATM   46  C9  UNL     1      -9.269  24.280 -17.633  1.00  0.00     0.034 C 
HETATM   47  C10 UNL     1     -10.413  24.949 -16.899  1.00  0.00     0.232 C 
HETATM   48  N4  UNL     1     -11.339  23.988 -16.334  1.00  0.00    -0.075 N 
HETATM   49  C11 UNL     1     -10.616  23.269 -15.283  1.00  0.00     0.232 C 
ATOM     50  H42 UNL     1     -12.207  24.411 -16.007  1.00  0.00     0.277 HD
ATOM     51  H41 UNL     1     -11.752  23.370 -17.032  1.00  0.00     0.277 HD
HETATM   52  C12 UNL     1      -9.577  22.411 -15.971  1.00  0.00     0.034 C 
ENDBRANCH  44  45
ENDBRANCH  42  44
ENDBRANCH   4  42
TORSDOF 16
ENDMDL
MODEL 3
REMARK VINA RESULT: -8.303990041      0.933      1.270
REMARK  16 active torsions:
REMARK  status: ('A' for Active; 'I' for Inactive)
REMARK    1  A    between atoms: C2_2  and  C4_4 
REMARK    2  A    between atoms: C4_4  and  N1_5 
REMARK    3  A    between atoms: N1_5  and  C5_7 
REMARK    4  A    between atoms: C6_10  and  N3_11 
REMARK    5  A    between atoms: N3_11  and  C7_13 
REMARK    6  A    between atoms: C7_13  and  C8_14 
REMARK    7  A    between atoms: C13_24  and  N6_25 
REMARK    8  A    between atoms: N6_25  and  C14_27 
REMARK    9  A    between atoms: C14_27  and  C15_28 
REMARK   10  A    between atoms: C15_28  and  C16_29 
REMARK   11  A    between atoms: C16_29  and  N7_30 
REMARK   12  A    between atoms: C21_38  and  C22_39 
REMARK   13  A    between atoms: C22_39  and  C23_40 
REMARK   14  A    between atoms: C23_40  and  C24_41 
REMARK   15  A    between atoms: C26_43  and  N9_44 
REMARK   16  A    between atoms: C28_50  and  O1_51 
ROOT
HETATM    1  C5  UNL     1      -5.539  22.823 -12.351  1.00  0.00     0.127 A 
HETATM    2  N2  UNL     1      -5.855  22.657 -13.655  1.00  0.00    -0.176 N 
ATOM      3  H2  UNL     1      -5.154  22.298 -14.302  1.00  0.00     0.186 HD
HETATM    4  C6  UNL     1      -7.061  22.956 -14.098  1.00  0.00     0.681 A 
HETATM    5  N5  UNL     1      -7.964  23.426 -13.221  1.00  0.00    -0.176 N 
ATOM      6  H5  UNL     1      -8.897  23.655 -13.564  1.00  0.00     0.186 HD
HETATM    7  C13 UNL     1      -7.699  23.611 -11.905  1.00  0.00     0.127 A 
HETATM    8  C21 UNL     1      -6.432  23.301 -11.427  1.00  0.00     0.031 A 
ENDROOT
BRANCH   8   9
HETATM    9  C22 UNL     1      -6.184  23.506 -10.021  1.00  0.00     0.051 C 
BRANCH   9  10
HETATM   10  C23 UNL     1      -5.756  24.832  -9.532  1.00  0.00     0.046 C 
BRANCH  10  11
HETATM   11  C24 UNL     1      -6.343  25.074  -8.173  1.00  0.00    -0.020 A 
HETATM   12  C25 UNL     1      -7.494  24.463  -7.729  1.00  0.00     0.058 A 
HETATM   13  C26 UNL     1      -7.989  24.717  -6.465  1.00  0.00     0.099 A 
HETATM   14  N10 UNL     1      -7.372  25.566  -5.622  1.00  0.00    -0.350 N 
HETATM   15  C27 UNL     1      -6.250  26.173  -6.030  1.00  0.00     0.126 A 
ATOM     16  H10 UNL     1      -7.751  25.743  -4.691  1.00  0.00     0.166 HD
HETATM   17  C28 UNL     1      -5.740  25.933  -7.286  1.00  0.00     0.087 A 
BRANCH  13  18
HETATM   18  N9  UNL     1      -9.058  24.155  -6.046  1.00  0.00    -0.385 N 
ATOM     19  H92 UNL     1      -9.944  24.583  -6.313  1.00  0.00     0.157 HD
ATOM     20  H91 UNL     1      -9.022  23.314  -5.470  1.00  0.00     0.157 HD
ENDBRANCH  13  18
BRANCH  17  21
HETATM   21  O1  UNL     1      -4.556  26.605  -7.650  1.00  0.00    -0.359 OA
ATOM     22  H1  UNL     1      -3.775  26.512  -7.118  1.00  0.00     0.217 HD
ENDBRANCH  17  21
ENDBRANCH  10  11
ENDBRANCH   9  10
ENDBRANCH   8   9
BRANCH   1  23
HETATM   23  N1  UNL     1      -4.362  22.511 -12.002  1.00  0.00    -0.375 N 
ATOM     24  H1  UNL     1      -4.246  21.792 -11.288  1.00  0.00     0.161 HD
BRANCH  23  25
HETATM   25  C4  UNL     1      -3.182  23.112 -12.556  1.00  0.00     0.125 C 
BRANCH  25  26
HETATM   26  C2  UNL     1      -2.994  24.545 -12.152  1.00  0.00    -0.005 C 
HETATM   27  C1  UNL     1      -2.161  25.204 -13.254  1.00  0.00     0.011 C 
HETATM   28  C3  UNL     1      -2.316  24.668 -10.805  1.00  0.00     0.011 C 
ENDBRANCH  25  26
ENDBRANCH  23  25
ENDBRANCH   1  23
BRANCH   7  29
HETATM   29  N6  UNL     1      -8.713  24.120 -11.057  1.00  0.00    -0.375 N 
ATOM     30  H6  UNL     1      -9.113  23.518 -10.337  1.00  0.00     0.161 HD
BRANCH  29  31
HETATM   31  C14 UNL     1      -9.189  25.466 -11.190  1.00  0.00     0.123 C 
BRANCH  31  32
HETATM   32  C15 UNL     1     -10.577  25.530 -11.794  1.00  0.00     0.050 C 
BRANCH  32  33
HETATM   33  C16 UNL     1     -11.644  25.335 -10.758  1.00  0.00     0.274 C 
BRANCH  33  34
HETATM   34  N7  UNL     1     -12.650  24.425 -11.200  1.00  0.00     0.091 N 
HETATM   35  C17 UNL     1     -13.514  23.924 -10.180  1.00  0.00     0.300 C 
HETATM   36  C18 UNL     1     -14.283  22.708 -10.682  1.00  0.00     0.262 C 
HETATM   37  N8  UNL     1     -13.337  21.644 -10.831  1.00  0.00    -0.072 N 
HETATM   38  C19 UNL     1     -12.122  22.028 -11.492  1.00  0.00     0.262 C 
ATOM     39  H82 UNL     1     -13.132  21.218  -9.927  1.00  0.00     0.277 HD
ATOM     40  H81 UNL     1     -13.765  20.848 -11.304  1.00  0.00     0.277 HD
HETATM   41  C20 UNL     1     -12.152  23.402 -12.088  1.00  0.00     0.300 C 
ENDBRANCH  33  34
ENDBRANCH  32  33
ENDBRANCH  31  32
ENDBRANCH  29  31
ENDBRANCH   7  29
BRANCH   4  42
HETATM   42  N3  UNL     1      -7.427  22.827 -15.310  1.00  0.00    -0.226 N 
ATOM     43  H3  UNL     1      -6.847  22.297 -15.960  1.00  0.00     0.177 HD
BRANCH  42  44
HETATM   44  C7  UNL     1      -8.653  23.423 -15.768  1.00  0.00     0.142 C 
BRANCH  44  45
HETATM   45  C8  UNL     1      -8.695  23.519 -17.284  1.00  0.00     0.007 C 
HETATM   46  C9  UNL     1      -7.305  23.529 -17.882  1.00  0.00     0.034 C 
HETATM   47  C10 UNL     1      -6.729  24.929 -17.923  1.00  0.00     0.232 C 
HETATM   48  N4  UNL     1      -7.642  25.881 -18.522  1.00  0.00    -0.075 N 
HETATM   49  C11 UNL     1      -8.787  25.997 -17.619  1.00  0.00     0.232 C 
ATOM     50  H42 UNL     1      -7.205  26.778 -18.734  1.00  0.00     0.277 HD
ATOM     51  H41 UNL     1      -7.906  25.638 -19.477  1.00  0.00     0.277 HD
HETATM   52  C12 UNL     1      -9.536  24.684 -17.686  1.00  0.00     0.034 C 
ENDBRANCH  44  45
ENDBRANCH  42  44
ENDBRANCH   4  42
TORSDOF 16
ENDMDL
MODEL 4
REMARK VINA RESULT: -8.270328373      1.957      7.036
REMARK  16 active torsions:
REMARK  status: ('A' for Active; 'I' for Inactive)
REMARK    1  A    between atoms: C2_2  and  C4_4 
REMARK    2  A    between atoms: C4_4  and  N1_5 
REMARK    3  A    between atoms: N1_5  and  C5_7 
REMARK    4  A    between atoms: C6_10  and  N3_11 
REMARK    5  A    between atoms: N3_11  and  C7_13 
REMARK    6  A    between atoms: C7_13  and  C8_14 
REMARK    7  A    between atoms: C13_24  and  N6_25 
REMARK    8  A    between atoms: N6_25  and  C14_27 
REMARK    9  A    between atoms: C14_27  and  C15_28 
REMARK   10  A    between atoms: C15_28  and  C16_29 
REMARK   11  A    between atoms: C16_29  and  N7_30 
REMARK   12  A    between atoms: C21_38  and  C22_39 
REMARK   13  A    between atoms: C22_39  and  C23_40 
REMARK   14  A    between atoms: C23_40  and  C24_41 
REMARK   15  A    between atoms: C26_43  and  N9_44 
REMARK   16  A    between atoms: C28_50  and  O1_51 
ROOT
HETATM    1  C5  UNL     1      -9.037  23.448 -15.684  1.00  0.00     0.127 A 
HETATM    2  N2  UNL     1      -7.711  23.356 -15.933  1.00  0.00    -0.176 N 
ATOM      3  H2  UNL     1      -7.362  23.516 -16.878  1.00  0.00     0.186 HD
HETATM    4  C6  UNL     1      -6.864  23.063 -14.965  1.00  0.00     0.681 A 
HETATM    5  N5  UNL     1      -7.353  22.860 -13.731  1.00  0.00    -0.176 N 
ATOM      6  H5  UNL     1      -6.698  22.635 -12.982  1.00  0.00     0.186 HD
HETATM    7  C13 UNL     1      -8.672  22.939 -13.428  1.00  0.00     0.127 A 
HETATM    8  C21 UNL     1      -9.573  23.247 -14.440  1.00  0.00     0.031 A 
ENDROOT
BRANCH   8   9
HETATM    9  C22 UNL     1     -10.968  23.327 -14.084  1.00  0.00     0.051 C 
BRANCH   9  10
HETATM   10  C23 UNL     1     -11.495  24.541 -13.428  1.00  0.00     0.046 C 
BRANCH  10  11
HETATM   11  C24 UNL     1     -12.222  24.153 -12.175  1.00  0.00    -0.020 A 
HETATM   12  C25 UNL     1     -12.967  23.001 -12.060  1.00  0.00     0.058 A 
HETATM   13  C26 UNL     1     -13.614  22.689 -10.881  1.00  0.00     0.099 A 
HETATM   14  N10 UNL     1     -13.543  23.492  -9.802  1.00  0.00    -0.350 N 
HETATM   15  C27 UNL     1     -12.825  24.619  -9.888  1.00  0.00     0.126 A 
ATOM     16  H10 UNL     1     -14.026  23.247  -8.938  1.00  0.00     0.166 HD
HETATM   17  C28 UNL     1     -12.173  24.948 -11.055  1.00  0.00     0.087 A 
BRANCH  13  18
HETATM   18  N9  UNL     1     -14.307  21.621 -10.767  1.00  0.00    -0.385 N 
ATOM     19  H92 UNL     1     -14.659  21.202 -11.628  1.00  0.00     0.157 HD
ATOM     20  H91 UNL     1     -14.499  21.210  -9.854  1.00  0.00     0.157 HD
ENDBRANCH  13  18
BRANCH  17  21
HETATM   21  O1  UNL     1     -11.435  26.148 -11.075  1.00  0.00    -0.359 OA
ATOM     22  H1  UNL     1     -11.158  26.549 -10.260  1.00  0.00     0.217 HD
ENDBRANCH  17  21
ENDBRANCH  10  11
ENDBRANCH   9  10
ENDBRANCH   8   9
BRANCH   1  23
HETATM   23  N1  UNL     1      -9.785  23.737 -16.665  1.00  0.00    -0.375 N 
ATOM     24  H1  UNL     1     -10.761  23.441 -16.630  1.00  0.00     0.161 HD
BRANCH  23  25
HETATM   25  C4  UNL     1      -9.337  24.457 -17.824  1.00  0.00     0.125 C 
BRANCH  25  26
HETATM   26  C2  UNL     1     -10.163  25.671 -18.132  1.00  0.00    -0.005 C 
HETATM   27  C1  UNL     1     -11.557  25.408 -17.558  1.00  0.00     0.011 C 
HETATM   28  C3  UNL     1     -10.224  25.950 -19.617  1.00  0.00     0.011 C 
ENDBRANCH  25  26
ENDBRANCH  23  25
ENDBRANCH   1  23
BRANCH   7  29
HETATM   29  N6  UNL     1      -9.095  22.700 -12.097  1.00  0.00    -0.375 N 
ATOM     30  H6  UNL     1      -9.713  21.912 -11.902  1.00  0.00     0.161 HD
BRANCH  29  31
HETATM   31  C14 UNL     1      -8.672  23.544 -11.019  1.00  0.00     0.123 C 
BRANCH  31  32
HETATM   32  C15 UNL     1      -7.525  22.943 -10.232  1.00  0.00     0.050 C 
BRANCH  32  33
HETATM   33  C16 UNL     1      -6.796  23.980  -9.430  1.00  0.00     0.274 C 
BRANCH  33  34
HETATM   34  N7  UNL     1      -7.696  24.813  -8.700  1.00  0.00     0.091 N 
HETATM   35  C17 UNL     1      -7.386  26.206  -8.710  1.00  0.00     0.300 C 
HETATM   36  C18 UNL     1      -8.167  26.934  -7.622  1.00  0.00     0.262 C 
HETATM   37  N8  UNL     1      -7.629  26.511  -6.364  1.00  0.00    -0.072 N 
HETATM   38  C19 UNL     1      -7.434  25.092  -6.258  1.00  0.00     0.262 C 
ATOM     39  H82 UNL     1      -6.762  27.007  -6.161  1.00  0.00     0.277 HD
ATOM     40  H81 UNL     1      -8.208  26.850  -5.596  1.00  0.00     0.277 HD
HETATM   41  C20 UNL     1      -8.019  24.303  -7.388  1.00  0.00     0.300 C 
ENDBRANCH  33  34
ENDBRANCH  32  33
ENDBRANCH  31  32
ENDBRANCH  29  31
ENDBRANCH   7  29
BRANCH   4  42
HETATM   42  N3  UNL     1      -5.606  22.959 -15.126  1.00  0.00    -0.226 N 
ATOM     43  H3  UNL     1      -5.233  22.241 -15.747  1.00  0.00     0.177 HD
BRANCH  42  44
HETATM   44  C7  UNL     1      -4.707  23.846 -14.438  1.00  0.00     0.142 C 
BRANCH  44  45
HETATM   45  C8  UNL     1      -3.606  23.081 -13.722  1.00  0.00     0.007 C 
HETATM   46  C9  UNL     1      -3.962  22.811 -12.277  1.00  0.00     0.034 C 
HETATM   47  C10 UNL     1      -3.577  23.973 -11.384  1.00  0.00     0.232 C 
HETATM   48  N4  UNL     1      -2.207  24.394 -11.591  1.00  0.00    -0.075 N 
HETATM   49  C11 UNL     1      -2.133  24.948 -12.944  1.00  0.00     0.232 C 
ATOM     50  H42 UNL     1      -1.871  25.038 -10.875  1.00  0.00     0.277 HD
ATOM     51  H41 UNL     1      -1.529  23.651 -11.424  1.00  0.00     0.277 HD
HETATM   52  C12 UNL     1      -2.307  23.791 -13.904  1.00  0.00     0.034 C 
ENDBRANCH  44  45
ENDBRANCH  42  44
ENDBRANCH   4  42
TORSDOF 16
ENDMDL
MODEL 5
REMARK VINA RESULT: -8.254743787      1.935      6.937
REMARK  16 active torsions:
REMARK  status: ('A' for Active; 'I' for Inactive)
REMARK    1  A    between atoms: C2_2  and  C4_4 
REMARK    2  A    between atoms: C4_4  and  N1_5 
REMARK    3  A    between atoms: N1_5  and  C5_7 
REMARK    4  A    between atoms: C6_10  and  N3_11 
REMARK    5  A    between atoms: N3_11  and  C7_13 
REMARK    6  A    between atoms: C7_13  and  C8_14 
REMARK    7  A    between atoms: C13_24  and  N6_25 
REMARK    8  A    between atoms: N6_25  and  C14_27 
REMARK    9  A    between atoms: C14_27  and  C15_28 
REMARK   10  A    between atoms: C15_28  and  C16_29 
REMARK   11  A    between atoms: C16_29  and  N7_30 
REMARK   12  A    between atoms: C21_38  and  C22_39 
REMARK   13  A    between atoms: C22_39  and  C23_40 
REMARK   14  A    between atoms: C23_40  and  C24_41 
REMARK   15  A    between atoms: C26_43  and  N9_44 
REMARK   16  A    between atoms: C28_50  and  O1_51 
ROOT
HETATM    1  C5  UNL     1      -7.269  24.900  -8.362  1.00  0.00     0.127 A 
HETATM    2  N2  UNL     1      -8.570  25.144  -8.087  1.00  0.00    -0.176 N 
ATOM      3  H2  UNL     1      -8.823  25.610  -7.216  1.00  0.00     0.186 HD
HETATM    4  C6  UNL     1      -9.515  24.785  -8.933  1.00  0.00     0.681 A 
HETATM    5  N5  UNL     1      -9.152  24.174 -10.072  1.00  0.00    -0.176 N 
ATOM      6  H5  UNL     1      -9.883  23.897 -10.727  1.00  0.00     0.186 HD
HETATM    7  C13 UNL     1      -7.864  23.906 -10.396  1.00  0.00     0.127 A 
HETATM    8  C21 UNL     1      -6.859  24.279  -9.512  1.00  0.00     0.031 A 
ENDROOT
BRANCH   8   9
HETATM    9  C22 UNL     1      -5.499  23.983  -9.890  1.00  0.00     0.051 C 
BRANCH   9  10
HETATM   10  C23 UNL     1      -4.507  25.072  -9.996  1.00  0.00     0.046 C 
BRANCH  10  11
HETATM   11  C24 UNL     1      -3.602  24.807 -11.163  1.00  0.00    -0.020 A 
HETATM   12  C25 UNL     1      -3.719  23.699 -11.972  1.00  0.00     0.058 A 
HETATM   13  C26 UNL     1      -2.861  23.506 -13.037  1.00  0.00     0.099 A 
HETATM   14  N10 UNL     1      -1.883  24.386 -13.325  1.00  0.00    -0.350 N 
HETATM   15  C27 UNL     1      -1.749  25.471 -12.553  1.00  0.00     0.126 A 
ATOM     16  H10 UNL     1      -1.258  24.229 -14.116  1.00  0.00     0.166 HD
HETATM   17  C28 UNL     1      -2.593  25.682 -11.487  1.00  0.00     0.087 A 
BRANCH  13  18
HETATM   18  N9  UNL     1      -2.962  22.480 -13.792  1.00  0.00    -0.385 N 
ATOM     19  H92 UNL     1      -3.301  21.619 -13.363  1.00  0.00     0.157 HD
ATOM     20  H91 UNL     1      -2.714  22.524 -14.781  1.00  0.00     0.157 HD
ENDBRANCH  13  18
BRANCH  17  21
HETATM   21  O1  UNL     1      -2.396  26.846 -10.717  1.00  0.00    -0.359 OA
ATOM     22  H1  UNL     1      -2.199  27.671 -11.145  1.00  0.00     0.217 HD
ENDBRANCH  17  21
ENDBRANCH  10  11
ENDBRANCH   9  10
ENDBRANCH   8   9
BRANCH   1  23
HETATM   23  N1  UNL     1      -6.420  25.279  -7.501  1.00  0.00    -0.375 N 
ATOM     24  H1  UNL     1      -5.435  25.280  -7.765  1.00  0.00     0.161 HD
BRANCH  23  25
HETATM   25  C4  UNL     1      -6.767  25.706  -6.175  1.00  0.00     0.125 C 
BRANCH  25  26
HETATM   26  C2  UNL     1      -6.079  24.925  -5.094  1.00  0.00    -0.005 C 
HETATM   27  C1  UNL     1      -7.146  24.036  -4.450  1.00  0.00     0.011 C 
HETATM   28  C3  UNL     1      -5.428  25.830  -4.071  1.00  0.00     0.011 C 
ENDBRANCH  25  26
ENDBRANCH  23  25
ENDBRANCH   1  23
BRANCH   7  29
HETATM   29  N6  UNL     1      -7.576  23.249 -11.619  1.00  0.00    -0.375 N 
ATOM     30  H6  UNL     1      -7.301  22.266 -11.607  1.00  0.00     0.161 HD
BRANCH  29  31
HETATM   31  C14 UNL     1      -7.666  23.937 -12.873  1.00  0.00     0.123 C 
BRANCH  31  32
HETATM   32  C15 UNL     1      -6.876  23.249 -13.967  1.00  0.00     0.050 C 
BRANCH  32  33
HETATM   33  C16 UNL     1      -7.637  23.203 -15.259  1.00  0.00     0.274 C 
BRANCH  33  34
HETATM   34  N7  UNL     1      -6.875  23.734 -16.342  1.00  0.00     0.091 N 
HETATM   35  C17 UNL     1      -7.362  23.419 -17.646  1.00  0.00     0.300 C 
HETATM   36  C18 UNL     1      -6.296  23.705 -18.697  1.00  0.00     0.262 C 
HETATM   37  N8  UNL     1      -5.259  22.736 -18.517  1.00  0.00    -0.072 N 
HETATM   38  C19 UNL     1      -4.863  22.547 -17.150  1.00  0.00     0.262 C 
ATOM     39  H82 UNL     1      -5.524  21.846 -18.939  1.00  0.00     0.277 HD
ATOM     40  H81 UNL     1      -4.450  22.967 -19.094  1.00  0.00     0.277 HD
HETATM   41  C20 UNL     1      -5.452  23.539 -16.195  1.00  0.00     0.300 C 
ENDBRANCH  33  34
ENDBRANCH  32  33
ENDBRANCH  31  32
ENDBRANCH  29  31
ENDBRANCH   7  29
BRANCH   4  42
HETATM   42  N3  UNL     1     -10.758  24.980  -8.739  1.00  0.00    -0.226 N 
ATOM     43  H3  UNL     1     -11.073  25.853  -8.315  1.00  0.00     0.177 HD
BRANCH  42  44
HETATM   44  C7  UNL     1     -11.720  23.979  -9.114  1.00  0.00     0.142 C 
BRANCH  44  45
HETATM   45  C8  UNL     1     -12.947  24.600  -9.764  1.00  0.00     0.007 C 
HETATM   46  C9  UNL     1     -13.886  23.544 -10.304  1.00  0.00     0.034 C 
HETATM   47  C10 UNL     1     -13.499  23.121 -11.706  1.00  0.00     0.232 C 
HETATM   48  N4  UNL     1     -13.306  24.255 -12.588  1.00  0.00    -0.075 N 
HETATM   49  C11 UNL     1     -12.130  24.977 -12.099  1.00  0.00     0.232 C 
ATOM     50  H42 UNL     1     -13.236  23.992 -13.571  1.00  0.00     0.277 HD
ATOM     51  H41 UNL     1     -14.134  24.844 -12.671  1.00  0.00     0.277 HD
HETATM   52  C12 UNL     1     -12.518  25.606 -10.778  1.00  0.00     0.034 C 
ENDBRANCH  44  45
ENDBRANCH  42  44
ENDBRANCH   4  42
TORSDOF 16
ENDMDL
