MODEL 1
REMARK VINA RESULT: -7.755089945      0.000      0.000
REMARK  6 active torsions:
REMARK  status: ('A' for Active; 'I' for Inactive)
REMARK    1  A    between atoms: C4_5  and  N2_6 
REMARK    2  A    between atoms: N2_6  and  C5_8 
REMARK    3  A    between atoms: C6_11  and  N4_12 
REMARK    4  A    between atoms: N4_12  and  C7_14 
REMARK    5  A    between atoms: C10_19  and  N6_20 
REMARK    6  A    between atoms: N6_20  and  C11_22 
ROOT
HETATM    1  C5  UNL     1     -28.561   2.430  26.859  1.00  0.00     0.707 A 
HETATM    2  N3  UNL     1     -27.635   3.278  27.283  1.00  0.00    -0.021 N 
ATOM      3  H3  UNL     1     -27.885   4.248  27.477  1.00  0.00     0.203 HD
HETATM    4  C6  UNL     1     -26.353   2.861  27.462  1.00  0.00     0.707 A 
HETATM    5  N5  UNL     1     -26.038   1.570  27.200  1.00  0.00    -0.021 N 
ATOM      6  H5  UNL     1     -25.076   1.262  27.335  1.00  0.00     0.203 HD
HETATM    7  C10 UNL     1     -26.947   0.683  26.768  1.00  0.00     0.709 A 
HETATM    8  N9  UNL     1     -28.199   1.123  26.603  1.00  0.00    -0.021 N 
ATOM      9  H9  UNL     1     -28.911   0.470  26.277  1.00  0.00     0.203 HD
ENDROOT
BRANCH   7  10
HETATM   10  N6  UNL     1     -26.616  -0.513  26.534  1.00  0.00    -0.187 N 
ATOM     11  H6  UNL     1     -25.728  -0.642  26.049  1.00  0.00     0.180 HD
BRANCH  10  12
HETATM   12  C11 UNL     1     -27.322  -1.701  26.859  1.00  0.00     0.391 C 
HETATM   13  N7  UNL     1     -28.237  -2.113  25.807  1.00  0.00    -0.043 N 
HETATM   14  C12 UNL     1     -28.988  -3.248  26.231  1.00  0.00     0.265 C 
ATOM     15  H72 UNL     1     -28.839  -1.348  25.503  1.00  0.00     0.280 HD
ATOM     16  H71 UNL     1     -27.753  -2.282  24.925  1.00  0.00     0.280 HD
HETATM   17  C13 UNL     1     -28.213  -4.370  26.824  1.00  0.00     0.049 C 
HETATM   18  C14 UNL     1     -28.483  -4.470  28.320  1.00  0.00     0.039 C 
HETATM   19  C15 UNL     1     -28.497  -5.704  26.163  1.00  0.00     0.039 C 
HETATM   20  N8  UNL     1     -26.794  -4.114  26.673  1.00  0.00    -0.348 N 
HETATM   21  C16 UNL     1     -26.341  -2.808  26.993  1.00  0.00     0.269 C 
ATOM     22  H8  UNL     1     -26.151  -4.838  26.351  1.00  0.00     0.163 HD
HETATM   23  O1  UNL     1     -25.151  -2.669  27.367  1.00  0.00    -0.269 OA
ENDBRANCH  10  12
ENDBRANCH   7  10
BRANCH   4  24
HETATM   24  N4  UNL     1     -25.486   3.723  27.876  1.00  0.00    -0.220 N 
ATOM     25  H4  UNL     1     -25.560   4.049  28.839  1.00  0.00     0.178 HD
BRANCH  24  26
HETATM   26  C7  UNL     1     -24.430   4.250  27.069  1.00  0.00     0.099 A 
HETATM   27  C8  UNL     1     -24.027   5.720  27.287  1.00  0.00     0.028 A 
HETATM   28  C9  UNL     1     -24.825   5.340  26.088  1.00  0.00     0.028 A 
ENDBRANCH  24  26
ENDBRANCH   4  24
BRANCH   1  29
HETATM   29  N2  UNL     1     -29.766   2.799  26.685  1.00  0.00    -0.220 N 
ATOM     30  H2  UNL     1     -30.146   3.482  27.339  1.00  0.00     0.178 HD
BRANCH  29  31
HETATM   31  C4  UNL     1     -30.628   2.334  25.647  1.00  0.00     0.102 C 
HETATM   32  C3  UNL     1     -30.134   2.955  24.351  1.00  0.00     0.045 C 
HETATM   33  C2  UNL     1     -31.223   3.172  23.355  1.00  0.00     0.118 C 
HETATM   34  N1  UNL     1     -32.409   2.431  23.548  1.00  0.00    -0.416 N 
HETATM   35  C1  UNL     1     -32.492   1.175  22.886  1.00  0.00     0.143 C 
HETATM   36  C18 UNL     1     -32.998   2.494  24.841  1.00  0.00     0.118 C 
HETATM   37  C17 UNL     1     -32.040   2.756  25.957  1.00  0.00     0.045 C 
ENDBRANCH  29  31
ENDBRANCH   1  29
TORSDOF 6
ENDMDL
MODEL 2
REMARK VINA RESULT: -7.750115280      2.351      7.079
REMARK  6 active torsions:
REMARK  status: ('A' for Active; 'I' for Inactive)
REMARK    1  A    between atoms: C4_5  and  N2_6 
REMARK    2  A    between atoms: N2_6  and  C5_8 
REMARK    3  A    between atoms: C6_11  and  N4_12 
REMARK    4  A    between atoms: N4_12  and  C7_14 
REMARK    5  A    between atoms: C10_19  and  N6_20 
REMARK    6  A    between atoms: N6_20  and  C11_22 
ROOT
HETATM    1  C5  UNL     1     -28.764   0.137  27.349  1.00  0.00     0.707 A 
HETATM    2  N3  UNL     1     -27.767   0.917  27.743  1.00  0.00    -0.021 N 
ATOM      3  H3  UNL     1     -27.052   0.548  28.371  1.00  0.00     0.203 HD
HETATM    4  C6  UNL     1     -27.692   2.205  27.315  1.00  0.00     0.707 A 
HETATM    5  N5  UNL     1     -28.649   2.679  26.483  1.00  0.00    -0.021 N 
ATOM      6  H5  UNL     1     -28.589   3.645  26.164  1.00  0.00     0.203 HD
HETATM    7  C10 UNL     1     -29.674   1.922  26.063  1.00  0.00     0.709 A 
HETATM    8  N9  UNL     1     -29.719   0.659  26.500  1.00  0.00    -0.021 N 
ATOM      9  H9  UNL     1     -30.487   0.060  26.195  1.00  0.00     0.203 HD
ENDROOT
BRANCH   7  10
HETATM   10  N6  UNL     1     -30.548   2.398  25.286  1.00  0.00    -0.187 N 
ATOM     11  H6  UNL     1     -30.461   2.135  24.304  1.00  0.00     0.180 HD
BRANCH  10  12
HETATM   12  C11 UNL     1     -31.637   3.252  25.604  1.00  0.00     0.391 C 
HETATM   13  N7  UNL     1     -31.962   4.168  24.524  1.00  0.00    -0.043 N 
HETATM   14  C12 UNL     1     -32.990   5.065  24.937  1.00  0.00     0.265 C 
ATOM     15  H72 UNL     1     -31.139   4.663  24.181  1.00  0.00     0.280 HD
ATOM     16  H71 UNL     1     -32.208   3.675  23.666  1.00  0.00     0.280 HD
HETATM   17  C13 UNL     1     -34.182   4.453  25.583  1.00  0.00     0.049 C 
HETATM   18  C14 UNL     1     -34.214   4.790  27.068  1.00  0.00     0.039 C 
HETATM   19  C15 UNL     1     -35.488   4.868  24.936  1.00  0.00     0.039 C 
HETATM   20  N8  UNL     1     -34.099   3.008  25.485  1.00  0.00    -0.348 N 
HETATM   21  C16 UNL     1     -32.848   2.416  25.800  1.00  0.00     0.269 C 
ATOM     22  H8  UNL     1     -34.902   2.445  25.203  1.00  0.00     0.163 HD
HETATM   23  O1  UNL     1     -32.842   1.233  26.220  1.00  0.00    -0.269 OA
ENDBRANCH  10  12
ENDBRANCH   7  10
BRANCH   4  24
HETATM   24  N4  UNL     1     -26.703   2.925  27.727  1.00  0.00    -0.220 N 
ATOM     25  H4  UNL     1     -26.902   3.674  28.390  1.00  0.00     0.178 HD
BRANCH  24  26
HETATM   26  C7  UNL     1     -25.348   2.739  27.312  1.00  0.00     0.099 A 
HETATM   27  C8  UNL     1     -24.240   2.971  28.356  1.00  0.00     0.028 A 
HETATM   28  C9  UNL     1     -24.482   3.988  27.295  1.00  0.00     0.028 A 
ENDBRANCH  24  26
ENDBRANCH   4  24
BRANCH   1  29
HETATM   29  N2  UNL     1     -28.853  -1.070  27.737  1.00  0.00    -0.220 N 
ATOM     30  H2  UNL     1     -29.364  -1.248  28.602  1.00  0.00     0.178 HD
BRANCH  29  31
HETATM   31  C4  UNL     1     -28.297  -2.197  27.061  1.00  0.00     0.102 C 
HETATM   32  C3  UNL     1     -28.801  -3.437  27.781  1.00  0.00     0.045 C 
HETATM   33  C2  UNL     1     -27.848  -4.583  27.705  1.00  0.00     0.118 C 
HETATM   34  N1  UNL     1     -26.874  -4.526  26.685  1.00  0.00    -0.416 N 
HETATM   35  C1  UNL     1     -27.209  -5.139  25.446  1.00  0.00     0.143 C 
HETATM   36  C18 UNL     1     -26.108  -3.331  26.602  1.00  0.00     0.118 C 
HETATM   37  C17 UNL     1     -26.795  -2.105  27.107  1.00  0.00     0.045 C 
ENDBRANCH  29  31
ENDBRANCH   1  29
TORSDOF 6
ENDMDL
MODEL 3
REMARK VINA RESULT: -7.682808711      2.083      6.603
REMARK  6 active torsions:
REMARK  status: ('A' for Active; 'I' for Inactive)
REMARK    1  A    between atoms: C4_5  and  N2_6 
REMARK    2  A    between atoms: N2_6  and  C5_8 
REMARK    3  A    between atoms: C6_11  and  N4_12 
REMARK    4  A    between atoms: N4_12  and  C7_14 
REMARK    5  A    between atoms: C10_19  and  N6_20 
REMARK    6  A    between atoms: N6_20  and  C11_22 
ROOT
HETATM    1  C5  UNL     1     -26.885   0.630  26.582  1.00  0.00     0.707 A 
HETATM    2  N3  UNL     1     -26.031   1.498  27.105  1.00  0.00    -0.021 N 
ATOM      3  H3  UNL     1     -25.061   1.223  27.262  1.00  0.00     0.203 HD
HETATM    4  C6  UNL     1     -26.441   2.751  27.435  1.00  0.00     0.707 A 
HETATM    5  N5  UNL     1     -27.732   3.099  27.221  1.00  0.00    -0.021 N 
ATOM      6  H5  UNL     1     -28.035   4.040  27.470  1.00  0.00     0.203 HD
HETATM    7  C10 UNL     1     -28.626   2.250  26.695  1.00  0.00     0.709 A 
HETATM    8  N9  UNL     1     -28.193   1.025  26.380  1.00  0.00    -0.021 N 
ATOM      9  H9  UNL     1     -28.851   0.358  25.976  1.00  0.00     0.203 HD
ENDROOT
BRANCH   7  10
HETATM   10  N6  UNL     1     -29.822   2.609  26.510  1.00  0.00    -0.187 N 
ATOM     11  H6  UNL     1     -30.416   2.623  27.339  1.00  0.00     0.180 HD
BRANCH  10  12
HETATM   12  C11 UNL     1     -30.447   2.997  25.295  1.00  0.00     0.391 C 
HETATM   13  N7  UNL     1     -30.877   1.860  24.499  1.00  0.00    -0.043 N 
HETATM   14  C12 UNL     1     -31.401   2.307  23.251  1.00  0.00     0.265 C 
ATOM     15  H72 UNL     1     -30.130   1.176  24.376  1.00  0.00     0.280 HD
ATOM     16  H71 UNL     1     -31.539   1.270  25.003  1.00  0.00     0.280 HD
HETATM   17  C13 UNL     1     -32.400   3.408  23.311  1.00  0.00     0.049 C 
HETATM   18  C14 UNL     1     -31.803   4.696  22.760  1.00  0.00     0.039 C 
HETATM   19  C15 UNL     1     -33.685   3.085  22.575  1.00  0.00     0.039 C 
HETATM   20  N8  UNL     1     -32.754   3.669  24.692  1.00  0.00    -0.348 N 
HETATM   21  C16 UNL     1     -31.686   3.748  25.623  1.00  0.00     0.269 C 
ATOM     22  H8  UNL     1     -33.725   3.790  24.981  1.00  0.00     0.163 HD
HETATM   23  O1  UNL     1     -31.851   4.440  26.657  1.00  0.00    -0.269 OA
ENDBRANCH  10  12
ENDBRANCH   7  10
BRANCH   4  24
HETATM   24  N4  UNL     1     -25.573   3.560  27.943  1.00  0.00    -0.220 N 
ATOM     25  H4  UNL     1     -25.681   3.823  28.923  1.00  0.00     0.178 HD
BRANCH  24  26
HETATM   26  C7  UNL     1     -24.469   4.111  27.220  1.00  0.00     0.099 A 
HETATM   27  C8  UNL     1     -24.130   5.595  27.450  1.00  0.00     0.028 A 
HETATM   28  C9  UNL     1     -24.814   5.177  26.194  1.00  0.00     0.028 A 
ENDBRANCH  24  26
ENDBRANCH   4  24
BRANCH   1  29
HETATM   29  N2  UNL     1     -26.523  -0.548  26.266  1.00  0.00    -0.220 N 
ATOM     30  H2  UNL     1     -25.769  -0.640  25.587  1.00  0.00     0.178 HD
BRANCH  29  31
HETATM   31  C4  UNL     1     -27.088  -1.750  26.787  1.00  0.00     0.102 C 
HETATM   32  C3  UNL     1     -25.927  -2.643  27.194  1.00  0.00     0.045 C 
HETATM   33  C2  UNL     1     -26.243  -4.097  27.088  1.00  0.00     0.118 C 
HETATM   34  N1  UNL     1     -27.611  -4.442  27.047  1.00  0.00    -0.416 N 
HETATM   35  C1  UNL     1     -28.235  -4.727  28.294  1.00  0.00     0.143 C 
HETATM   36  C18 UNL     1     -28.413  -3.763  26.090  1.00  0.00     0.118 C 
HETATM   37  C17 UNL     1     -27.932  -2.397  25.721  1.00  0.00     0.045 C 
ENDBRANCH  29  31
ENDBRANCH   1  29
TORSDOF 6
ENDMDL
MODEL 4
REMARK VINA RESULT: -7.664718929      2.537      7.117
REMARK  6 active torsions:
REMARK  status: ('A' for Active; 'I' for Inactive)
REMARK    1  A    between atoms: C4_5  and  N2_6 
REMARK    2  A    between atoms: N2_6  and  C5_8 
REMARK    3  A    between atoms: C6_11  and  N4_12 
REMARK    4  A    between atoms: N4_12  and  C7_14 
REMARK    5  A    between atoms: C10_19  and  N6_20 
REMARK    6  A    between atoms: N6_20  and  C11_22 
ROOT
HETATM    1  C5  UNL     1     -29.046   0.041  27.417  1.00  0.00     0.707 A 
HETATM    2  N3  UNL     1     -28.195   0.640  28.238  1.00  0.00    -0.021 N 
ATOM      3  H3  UNL     1     -27.797   0.122  29.021  1.00  0.00     0.203 HD
HETATM    4  C6  UNL     1     -27.851   1.939  28.040  1.00  0.00     0.707 A 
HETATM    5  N5  UNL     1     -28.389   2.612  26.995  1.00  0.00    -0.021 N 
ATOM      6  H5  UNL     1     -28.127   3.587  26.851  1.00  0.00     0.203 HD
HETATM    7  C10 UNL     1     -29.254   2.042  26.144  1.00  0.00     0.709 A 
HETATM    8  N9  UNL     1     -29.573   0.762  26.364  1.00  0.00    -0.021 N 
ATOM      9  H9  UNL     1     -30.227   0.302  25.731  1.00  0.00     0.203 HD
ENDROOT
BRANCH   7  10
HETATM   10  N6  UNL     1     -29.736   2.700  25.181  1.00  0.00    -0.187 N 
ATOM     11  H6  UNL     1     -29.059   3.073  24.514  1.00  0.00     0.180 HD
BRANCH  10  12
HETATM   12  C11 UNL     1     -31.099   2.988  24.905  1.00  0.00     0.391 C 
HETATM   13  N7  UNL     1     -31.787   3.573  26.044  1.00  0.00    -0.043 N 
HETATM   14  C12 UNL     1     -33.170   3.745  25.742  1.00  0.00     0.265 C 
ATOM     15  H72 UNL     1     -31.647   3.030  26.895  1.00  0.00     0.280 HD
ATOM     16  H71 UNL     1     -31.351   4.443  26.348  1.00  0.00     0.280 HD
HETATM   17  C13 UNL     1     -33.487   4.404  24.447  1.00  0.00     0.049 C 
HETATM   18  C14 UNL     1     -34.087   3.399  23.473  1.00  0.00     0.039 C 
HETATM   19  C15 UNL     1     -34.419   5.590  24.597  1.00  0.00     0.039 C 
HETATM   20  N8  UNL     1     -32.266   4.897  23.840  1.00  0.00    -0.348 N 
HETATM   21  C16 UNL     1     -31.154   4.015  23.833  1.00  0.00     0.269 C 
ATOM     22  H8  UNL     1     -32.209   5.833  23.438  1.00  0.00     0.163 HD
HETATM   23  O1  UNL     1     -30.293   4.154  22.930  1.00  0.00    -0.269 OA
ENDBRANCH  10  12
ENDBRANCH   7  10
BRANCH   4  24
HETATM   24  N4  UNL     1     -27.019   2.479  28.866  1.00  0.00    -0.220 N 
ATOM     25  H4  UNL     1     -27.348   3.262  29.432  1.00  0.00     0.178 HD
BRANCH  24  26
HETATM   26  C7  UNL     1     -25.666   2.051  29.039  1.00  0.00     0.099 A 
HETATM   27  C8  UNL     1     -24.561   2.861  28.336  1.00  0.00     0.028 A 
HETATM   28  C9  UNL     1     -24.969   1.536  27.791  1.00  0.00     0.028 A 
ENDBRANCH  24  26
ENDBRANCH   4  24
BRANCH   1  29
HETATM   29  N2  UNL     1     -29.383  -1.174  27.583  1.00  0.00    -0.220 N 
ATOM     30  H2  UNL     1     -30.215  -1.358  28.143  1.00  0.00     0.178 HD
BRANCH  29  31
HETATM   31  C4  UNL     1     -28.689  -2.302  27.050  1.00  0.00     0.102 C 
HETATM   32  C3  UNL     1     -29.059  -3.496  27.914  1.00  0.00     0.045 C 
HETATM   33  C2  UNL     1     -27.980  -4.525  27.980  1.00  0.00     0.118 C 
HETATM   34  N1  UNL     1     -27.002  -4.478  26.964  1.00  0.00    -0.416 N 
HETATM   35  C1  UNL     1     -27.244  -5.270  25.808  1.00  0.00     0.143 C 
HETATM   36  C18 UNL     1     -26.377  -3.221  26.738  1.00  0.00     0.118 C 
HETATM   37  C17 UNL     1     -27.209  -2.030  27.089  1.00  0.00     0.045 C 
ENDBRANCH  29  31
ENDBRANCH   1  29
TORSDOF 6
ENDMDL
MODEL 5
REMARK VINA RESULT: -7.624755601      1.887      6.461
REMARK  6 active torsions:
REMARK  status: ('A' for Active; 'I' for Inactive)
REMARK    1  A    between atoms: C4_5  and  N2_6 
REMARK    2  A    between atoms: N2_6  and  C5_8 
REMARK    3  A    between atoms: C6_11  and  N4_12 
REMARK    4  A    between atoms: N4_12  and  C7_14 
REMARK    5  A    between atoms: C10_19  and  N6_20 
REMARK    6  A    between atoms: N6_20  and  C11_22 
ROOT
HETATM    1  C5  UNL     1     -26.532   0.456  26.611  1.00  0.00     0.707 A 
HETATM    2  N3  UNL     1     -25.781   1.437  27.092  1.00  0.00    -0.021 N 
ATOM      3  H3  UNL     1     -24.775   1.302  27.192  1.00  0.00     0.203 HD
HETATM    4  C6  UNL     1     -26.345   2.620  27.451  1.00  0.00     0.707 A 
HETATM    5  N5  UNL     1     -27.682   2.782  27.313  1.00  0.00    -0.021 N 
ATOM      6  H5  UNL     1     -28.100   3.671  27.584  1.00  0.00     0.203 HD
HETATM    7  C10 UNL     1     -28.475   1.813  26.832  1.00  0.00     0.709 A 
HETATM    8  N9  UNL     1     -27.892   0.661  26.486  1.00  0.00    -0.021 N 
ATOM      9  H9  UNL     1     -28.471  -0.092  26.116  1.00  0.00     0.203 HD
ENDROOT
BRANCH   7  10
HETATM   10  N6  UNL     1     -29.719   2.000  26.717  1.00  0.00    -0.187 N 
ATOM     11  H6  UNL     1     -30.303   1.564  27.431  1.00  0.00     0.180 HD
BRANCH  10  12
HETATM   12  C11 UNL     1     -30.410   2.739  25.720  1.00  0.00     0.391 C 
HETATM   13  N7  UNL     1     -29.699   2.767  24.452  1.00  0.00    -0.043 N 
HETATM   14  C12 UNL     1     -30.387   3.605  23.526  1.00  0.00     0.265 C 
ATOM     15  H72 UNL     1     -28.725   3.044  24.567  1.00  0.00     0.280 HD
ATOM     16  H71 UNL     1     -29.546   1.830  24.080  1.00  0.00     0.280 HD
HETATM   17  C13 UNL     1     -31.850   3.376  23.388  1.00  0.00     0.049 C 
HETATM   18  C14 UNL     1     -32.628   4.538  23.991  1.00  0.00     0.039 C 
HETATM   19  C15 UNL     1     -32.285   3.159  21.952  1.00  0.00     0.039 C 
HETATM   20  N8  UNL     1     -32.229   2.190  24.131  1.00  0.00    -0.348 N 
HETATM   21  C16 UNL     1     -31.700   2.059  25.441  1.00  0.00     0.269 C 
ATOM     22  H8  UNL     1     -32.846   1.483  23.731  1.00  0.00     0.163 HD
HETATM   23  O1  UNL     1     -32.349   1.384  26.277  1.00  0.00    -0.269 OA
ENDBRANCH  10  12
ENDBRANCH   7  10
BRANCH   4  24
HETATM   24  N4  UNL     1     -25.572   3.545  27.915  1.00  0.00    -0.220 N 
ATOM     25  H4  UNL     1     -25.764   3.903  28.851  1.00  0.00     0.178 HD
BRANCH  24  26
HETATM   26  C7  UNL     1     -24.465   4.099  27.200  1.00  0.00     0.099 A 
HETATM   27  C8  UNL     1     -24.097   5.568  27.475  1.00  0.00     0.028 A 
HETATM   28  C9  UNL     1     -24.799   5.203  26.212  1.00  0.00     0.028 A 
ENDBRANCH  24  26
ENDBRANCH   4  24
BRANCH   1  29
HETATM   29  N2  UNL     1     -26.026  -0.659  26.269  1.00  0.00    -0.220 N 
ATOM     30  H2  UNL     1     -25.097  -0.643  25.848  1.00  0.00     0.178 HD
BRANCH  29  31
HETATM   31  C4  UNL     1     -26.653  -1.931  26.426  1.00  0.00     0.102 C 
HETATM   32  C3  UNL     1     -25.624  -2.855  27.058  1.00  0.00     0.045 C 
HETATM   33  C2  UNL     1     -25.807  -4.284  26.670  1.00  0.00     0.118 C 
HETATM   34  N1  UNL     1     -27.072  -4.641  26.159  1.00  0.00    -0.416 N 
HETATM   35  C1  UNL     1     -28.033  -5.107  27.098  1.00  0.00     0.143 C 
HETATM   36  C18 UNL     1     -27.578  -3.845  25.094  1.00  0.00     0.118 C 
HETATM   37  C17 UNL     1     -27.087  -2.434  25.074  1.00  0.00     0.045 C 
ENDBRANCH  29  31
ENDBRANCH   1  29
TORSDOF 6
ENDMDL
