MODEL 1
REMARK VINA RESULT: -6.982888502      0.000      0.000
REMARK  3 active torsions:
REMARK  status: ('A' for Active; 'I' for Inactive)
REMARK       I    between atoms: C1_4  and  N3_6 
REMARK       I    between atoms: N5_14  and  C7_15 
REMARK    1  A    between atoms: C7_15  and  C8_17 
REMARK    2  A    between atoms: C8_17  and  C9_18 
REMARK    3  A    between atoms: C9_18  and  C10_19 
ROOT
HETATM    1  N1  UNL     1     -30.618  -1.863  19.074  1.00  0.00    -0.374 N 
ATOM      2  H11 UNL     1     -31.532  -2.235  19.334  1.00  0.00     0.158 HD
ATOM      3  H12 UNL     1     -30.312  -1.884  18.102  1.00  0.00     0.158 HD
HETATM    4  C1  UNL     1     -29.867  -1.369  19.995  1.00  0.00     0.184 C 
HETATM    5  N2  UNL     1     -28.600  -0.853  19.636  1.00  0.00    -0.064 NA
HETATM    6  N3  UNL     1     -30.291  -1.340  21.341  1.00  0.00    -0.354 N 
HETATM    7  C2  UNL     1     -30.562  -0.113  22.006  1.00  0.00     0.127 C 
HETATM    8  C3  UNL     1     -29.375   0.447  22.763  1.00  0.00     0.039 C 
HETATM    9  C4  UNL     1     -29.756   1.789  23.288  1.00  0.00     0.115 C 
HETATM   10  N4  UNL     1     -29.624   1.962  24.695  1.00  0.00    -0.420 N 
ATOM     11  H4  UNL     1     -28.987   2.649  25.097  1.00  0.00     0.153 HD
HETATM   12  C5  UNL     1     -30.438   1.113  25.510  1.00  0.00     0.133 C 
HETATM   13  C6  UNL     1     -29.747   0.990  26.861  1.00  0.00     0.145 C 
HETATM   14  N5  UNL     1     -28.856  -0.151  26.897  1.00  0.00    -0.347 N 
HETATM   15  C7  UNL     1     -27.537   0.063  27.372  1.00  0.00     0.220 C 
HETATM   16  O1  UNL     1     -26.740  -0.909  27.415  1.00  0.00    -0.273 OA
HETATM   17  C11 UNL     1     -29.291  -1.445  26.470  1.00  0.00     0.153 C 
HETATM   18  C12 UNL     1     -28.900  -2.521  27.432  1.00  0.00    -0.011 C 
HETATM   19  C13 UNL     1     -28.998  -3.793  27.117  1.00  0.00    -0.029 C 
HETATM   20  C14 UNL     1     -29.502  -4.274  25.794  1.00  0.00     0.028 C 
HETATM   21  C15 UNL     1     -28.460  -5.050  25.038  1.00  0.00     0.031 C 
HETATM   22  C16 UNL     1     -28.094  -4.386  23.725  1.00  0.00     0.232 C 
HETATM   23  N7  UNL     1     -29.126  -4.550  22.733  1.00  0.00    -0.074 N 
ATOM     24  H71 UNL     1     -30.026  -4.732  23.178  1.00  0.00     0.277 HD
ATOM     25  H72 UNL     1     -29.003  -5.428  22.229  1.00  0.00     0.277 HD
HETATM   26  C17 UNL     1     -29.227  -3.453  21.820  1.00  0.00     0.252 C 
HETATM   27  C18 UNL     1     -30.446  -2.593  22.039  1.00  0.00     0.152 C 
ENDROOT
BRANCH  15  28
HETATM   28  C8  UNL     1     -27.047   1.387  27.825  1.00  0.00     0.112 C 
BRANCH  28  29
HETATM   29  C9  UNL     1     -25.580   1.574  27.534  1.00  0.00     0.109 C 
BRANCH  29  30
HETATM   30  C10 UNL     1     -24.825   1.704  28.798  1.00  0.00     0.231 C 
HETATM   31  N6  UNL     1     -23.694   2.551  28.896  1.00  0.00    -0.062 NA
HETATM   32  O2  UNL     1     -25.189   1.054  29.805  1.00  0.00    -0.277 OA
ENDBRANCH  29  30
ENDBRANCH  28  29
ENDBRANCH  15  28
TORSDOF 3
ENDMDL
MODEL 2
REMARK VINA RESULT: -6.944692407      2.051      3.884
REMARK  3 active torsions:
REMARK  status: ('A' for Active; 'I' for Inactive)
REMARK       I    between atoms: C1_4  and  N3_6 
REMARK       I    between atoms: N5_14  and  C7_15 
REMARK    1  A    between atoms: C7_15  and  C8_17 
REMARK    2  A    between atoms: C8_17  and  C9_18 
REMARK    3  A    between atoms: C9_18  and  C10_19 
ROOT
HETATM    1  N1  UNL     1     -33.051   4.148  22.262  1.00  0.00    -0.374 N 
ATOM      2  H11 UNL     1     -33.840   3.518  22.411  1.00  0.00     0.158 HD
ATOM      3  H12 UNL     1     -33.179   5.020  21.750  1.00  0.00     0.158 HD
HETATM    4  C1  UNL     1     -31.899   3.819  22.732  1.00  0.00     0.184 C 
HETATM    5  N2  UNL     1     -30.806   4.691  22.525  1.00  0.00    -0.064 NA
HETATM    6  N3  UNL     1     -31.721   2.611  23.441  1.00  0.00    -0.354 N 
HETATM    7  C2  UNL     1     -31.408   2.606  24.828  1.00  0.00     0.127 C 
HETATM    8  C3  UNL     1     -29.922   2.556  25.119  1.00  0.00     0.039 C 
HETATM    9  C4  UNL     1     -29.736   2.695  26.591  1.00  0.00     0.115 C 
HETATM   10  N4  UNL     1     -29.009   1.648  27.224  1.00  0.00    -0.420 N 
ATOM     11  H4  UNL     1     -28.124   1.818  27.702  1.00  0.00     0.153 HD
HETATM   12  C5  UNL     1     -29.594   0.345  27.151  1.00  0.00     0.133 C 
HETATM   13  C6  UNL     1     -28.463  -0.664  27.295  1.00  0.00     0.145 C 
HETATM   14  N5  UNL     1     -27.923  -1.042  26.005  1.00  0.00    -0.347 N 
HETATM   15  C7  UNL     1     -26.515  -0.999  25.846  1.00  0.00     0.220 C 
HETATM   16  O1  UNL     1     -26.017  -1.322  24.737  1.00  0.00    -0.273 OA
HETATM   17  C11 UNL     1     -28.780  -1.443  24.932  1.00  0.00     0.153 C 
HETATM   18  C12 UNL     1     -28.292  -2.682  24.250  1.00  0.00    -0.011 C 
HETATM   19  C13 UNL     1     -28.801  -3.081  23.106  1.00  0.00    -0.029 C 
HETATM   20  C14 UNL     1     -29.894  -2.351  22.394  1.00  0.00     0.028 C 
HETATM   21  C15 UNL     1     -29.458  -1.851  21.044  1.00  0.00     0.031 C 
HETATM   22  C16 UNL     1     -29.514  -0.339  20.950  1.00  0.00     0.232 C 
HETATM   23  N7  UNL     1     -30.866   0.143  20.838  1.00  0.00    -0.074 N 
ATOM     24  H71 UNL     1     -31.524  -0.541  21.211  1.00  0.00     0.277 HD
ATOM     25  H72 UNL     1     -31.165   0.153  19.863  1.00  0.00     0.277 HD
HETATM   26  C17 UNL     1     -31.074   1.424  21.442  1.00  0.00     0.252 C 
HETATM   27  C18 UNL     1     -31.865   1.367  22.725  1.00  0.00     0.152 C 
ENDROOT
BRANCH  15  28
HETATM   28  C8  UNL     1     -25.593  -0.590  26.932  1.00  0.00     0.112 C 
BRANCH  28  29
HETATM   29  C9  UNL     1     -25.496   0.910  27.053  1.00  0.00     0.109 C 
BRANCH  29  30
HETATM   30  C10 UNL     1     -25.290   1.292  28.466  1.00  0.00     0.231 C 
HETATM   31  N6  UNL     1     -24.181   2.081  28.860  1.00  0.00    -0.062 NA
HETATM   32  O2  UNL     1     -26.109   0.915  29.335  1.00  0.00    -0.277 OA
ENDBRANCH  29  30
ENDBRANCH  28  29
ENDBRANCH  15  28
TORSDOF 3
ENDMDL
MODEL 3
REMARK VINA RESULT: -6.852964628      1.852      2.167
REMARK  3 active torsions:
REMARK  status: ('A' for Active; 'I' for Inactive)
REMARK       I    between atoms: C1_4  and  N3_6 
REMARK       I    between atoms: N5_14  and  C7_15 
REMARK    1  A    between atoms: C7_15  and  C8_17 
REMARK    2  A    between atoms: C8_17  and  C9_18 
REMARK    3  A    between atoms: C9_18  and  C10_19 
ROOT
HETATM    1  N1  UNL     1     -32.399   0.195  21.231  1.00  0.00    -0.374 N 
ATOM      2  H11 UNL     1     -33.089  -0.368  21.728  1.00  0.00     0.158 HD
ATOM      3  H12 UNL     1     -32.582   0.508  20.278  1.00  0.00     0.158 HD
HETATM    4  C1  UNL     1     -31.301   0.500  21.829  1.00  0.00     0.184 C 
HETATM    5  N2  UNL     1     -30.345   1.281  21.140  1.00  0.00    -0.064 NA
HETATM    6  N3  UNL     1     -31.049   0.067  23.148  1.00  0.00    -0.354 N 
HETATM    7  C2  UNL     1     -30.970   0.988  24.228  1.00  0.00     0.127 C 
HETATM    8  C3  UNL     1     -29.563   1.469  24.520  1.00  0.00     0.039 C 
HETATM    9  C4  UNL     1     -29.645   2.523  25.570  1.00  0.00     0.115 C 
HETATM   10  N4  UNL     1     -28.871   2.290  26.742  1.00  0.00    -0.420 N 
ATOM     11  H4  UNL     1     -28.115   2.914  27.023  1.00  0.00     0.153 HD
HETATM   12  C5  UNL     1     -29.217   1.127  27.501  1.00  0.00     0.133 C 
HETATM   13  C6  UNL     1     -27.976   0.714  28.280  1.00  0.00     0.145 C 
HETATM   14  N5  UNL     1     -27.179  -0.241  27.539  1.00  0.00    -0.347 N 
HETATM   15  C7  UNL     1     -25.790   0.015  27.422  1.00  0.00     0.220 C 
HETATM   16  O1  UNL     1     -25.072  -0.796  26.784  1.00  0.00    -0.273 OA
HETATM   17  C11 UNL     1     -27.773  -1.400  26.947  1.00  0.00     0.153 C 
HETATM   18  C12 UNL     1     -26.986  -2.642  27.220  1.00  0.00    -0.011 C 
HETATM   19  C13 UNL     1     -27.229  -3.765  26.581  1.00  0.00    -0.029 C 
HETATM   20  C14 UNL     1     -28.295  -3.902  25.541  1.00  0.00     0.028 C 
HETATM   21  C15 UNL     1     -27.731  -4.256  24.193  1.00  0.00     0.031 C 
HETATM   22  C16 UNL     1     -28.015  -3.187  23.157  1.00  0.00     0.232 C 
HETATM   23  N7  UNL     1     -29.391  -3.201  22.732  1.00  0.00    -0.074 N 
ATOM     24  H71 UNL     1     -29.982  -3.638  23.440  1.00  0.00     0.277 HD
ATOM     25  H72 UNL     1     -29.525  -3.862  21.967  1.00  0.00     0.277 HD
HETATM   26  C17 UNL     1     -29.899  -1.911  22.378  1.00  0.00     0.252 C 
HETATM   27  C18 UNL     1     -30.869  -1.346  23.384  1.00  0.00     0.152 C 
ENDROOT
BRANCH  15  28
HETATM   28  C8  UNL     1     -25.136   1.204  28.021  1.00  0.00     0.112 C 
BRANCH  28  29
HETATM   29  C9  UNL     1     -25.214   2.406  27.114  1.00  0.00     0.109 C 
BRANCH  29  30
HETATM   30  C10 UNL     1     -24.562   3.567  27.755  1.00  0.00     0.231 C 
HETATM   31  N6  UNL     1     -24.131   4.681  26.993  1.00  0.00    -0.062 NA
HETATM   32  O2  UNL     1     -24.387   3.572  28.995  1.00  0.00    -0.277 OA
ENDBRANCH  29  30
ENDBRANCH  28  29
ENDBRANCH  15  28
TORSDOF 3
ENDMDL
MODEL 4
REMARK VINA RESULT: -6.777017993      3.601      6.202
REMARK  3 active torsions:
REMARK  status: ('A' for Active; 'I' for Inactive)
REMARK       I    between atoms: C1_4  and  N3_6 
REMARK       I    between atoms: N5_14  and  C7_15 
REMARK    1  A    between atoms: C7_15  and  C8_17 
REMARK    2  A    between atoms: C8_17  and  C9_18 
REMARK    3  A    between atoms: C9_18  and  C10_19 
ROOT
HETATM    1  N1  UNL     1     -36.317  -2.765  26.764  1.00  0.00    -0.374 N 
ATOM      2  H11 UNL     1     -36.322  -2.944  25.760  1.00  0.00     0.158 HD
ATOM      3  H12 UNL     1     -37.118  -3.028  27.338  1.00  0.00     0.158 HD
HETATM    4  C1  UNL     1     -35.284  -2.204  27.288  1.00  0.00     0.184 C 
HETATM    5  N2  UNL     1     -35.276  -1.955  28.680  1.00  0.00    -0.064 NA
HETATM    6  N3  UNL     1     -34.175  -1.839  26.495  1.00  0.00    -0.354 N 
HETATM    7  C2  UNL     1     -32.916  -2.484  26.639  1.00  0.00     0.127 C 
HETATM    8  C3  UNL     1     -31.978  -1.785  27.603  1.00  0.00     0.039 C 
HETATM    9  C4  UNL     1     -30.765  -2.635  27.763  1.00  0.00     0.115 C 
HETATM   10  N4  UNL     1     -29.524  -2.005  27.465  1.00  0.00    -0.420 N 
ATOM     11  H4  UNL     1     -28.797  -1.883  28.169  1.00  0.00     0.153 HD
HETATM   12  C5  UNL     1     -29.358  -1.552  26.117  1.00  0.00     0.133 C 
HETATM   13  C6  UNL     1     -28.338  -0.423  26.146  1.00  0.00     0.145 C 
HETATM   14  N5  UNL     1     -28.980   0.867  26.297  1.00  0.00    -0.347 N 
HETATM   15  C7  UNL     1     -28.475   1.737  27.296  1.00  0.00     0.220 C 
HETATM   16  O1  UNL     1     -29.012   2.863  27.451  1.00  0.00    -0.273 OA
HETATM   17  C11 UNL     1     -30.083   1.247  25.471  1.00  0.00     0.153 C 
HETATM   18  C12 UNL     1     -29.935   2.634  24.931  1.00  0.00    -0.011 C 
HETATM   19  C13 UNL     1     -30.936   3.254  24.346  1.00  0.00    -0.029 C 
HETATM   20  C14 UNL     1     -32.288   2.642  24.167  1.00  0.00     0.028 C 
HETATM   21  C15 UNL     1     -33.359   3.410  24.891  1.00  0.00     0.031 C 
HETATM   22  C16 UNL     1     -34.035   2.575  25.961  1.00  0.00     0.232 C 
HETATM   23  N7  UNL     1     -34.931   1.599  25.397  1.00  0.00    -0.074 N 
ATOM     24  H71 UNL     1     -34.675   1.392  24.431  1.00  0.00     0.277 HD
ATOM     25  H72 UNL     1     -35.855   2.005  25.246  1.00  0.00     0.277 HD
HETATM   26  C17 UNL     1     -35.029   0.394  26.162  1.00  0.00     0.252 C 
HETATM   27  C18 UNL     1     -34.343  -0.787  25.522  1.00  0.00     0.152 C 
ENDROOT
BRANCH  15  28
HETATM   28  C8  UNL     1     -27.333   1.381  28.173  1.00  0.00     0.112 C 
BRANCH  28  29
HETATM   29  C9  UNL     1     -26.107   2.200  27.862  1.00  0.00     0.109 C 
BRANCH  29  30
HETATM   30  C10 UNL     1     -25.043   1.915  28.847  1.00  0.00     0.231 C 
HETATM   31  N6  UNL     1     -23.794   2.583  28.794  1.00  0.00    -0.062 NA
HETATM   32  O2  UNL     1     -25.244   1.068  29.748  1.00  0.00    -0.277 OA
ENDBRANCH  29  30
ENDBRANCH  28  29
ENDBRANCH  15  28
TORSDOF 3
ENDMDL
MODEL 5
REMARK VINA RESULT: -6.740221836      3.265      7.738
REMARK  3 active torsions:
REMARK  status: ('A' for Active; 'I' for Inactive)
REMARK       I    between atoms: C1_4  and  N3_6 
REMARK       I    between atoms: N5_14  and  C7_15 
REMARK    1  A    between atoms: C7_15  and  C8_17 
REMARK    2  A    between atoms: C8_17  and  C9_18 
REMARK    3  A    between atoms: C9_18  and  C10_19 
ROOT
HETATM    1  N1  UNL     1     -25.186   3.475  29.249  1.00  0.00    -0.374 N 
ATOM      2  H11 UNL     1     -25.722   3.268  30.092  1.00  0.00     0.158 HD
ATOM      3  H12 UNL     1     -24.563   4.282  29.221  1.00  0.00     0.158 HD
HETATM    4  C1  UNL     1     -25.314   2.701  28.229  1.00  0.00     0.184 C 
HETATM    5  N2  UNL     1     -24.572   2.988  27.060  1.00  0.00    -0.064 NA
HETATM    6  N3  UNL     1     -26.177   1.585  28.267  1.00  0.00    -0.354 N 
HETATM    7  C2  UNL     1     -25.672   0.257  28.218  1.00  0.00     0.127 C 
HETATM    8  C3  UNL     1     -25.604  -0.320  26.818  1.00  0.00     0.039 C 
HETATM    9  C4  UNL     1     -24.934  -1.649  26.900  1.00  0.00     0.115 C 
HETATM   10  N4  UNL     1     -25.672  -2.747  26.375  1.00  0.00    -0.420 N 
ATOM     11  H4  UNL     1     -25.335  -3.296  25.585  1.00  0.00     0.153 HD
HETATM   12  C5  UNL     1     -26.915  -3.033  27.023  1.00  0.00     0.133 C 
HETATM   13  C6  UNL     1     -27.795  -3.751  26.008  1.00  0.00     0.145 C 
HETATM   14  N5  UNL     1     -28.616  -2.817  25.266  1.00  0.00    -0.347 N 
HETATM   15  C7  UNL     1     -28.627  -2.935  23.853  1.00  0.00     0.220 C 
HETATM   16  O1  UNL     1     -29.331  -2.138  23.181  1.00  0.00    -0.273 OA
HETATM   17  C11 UNL     1     -29.387  -1.815  25.933  1.00  0.00     0.153 C 
HETATM   18  C12 UNL     1     -30.787  -1.735  25.412  1.00  0.00    -0.011 C 
HETATM   19  C13 UNL     1     -31.581  -0.735  25.725  1.00  0.00    -0.029 C 
HETATM   20  C14 UNL     1     -31.167   0.392  26.615  1.00  0.00     0.028 C 
HETATM   21  C15 UNL     1     -31.195   1.717  25.904  1.00  0.00     0.031 C 
HETATM   22  C16 UNL     1     -29.823   2.359  25.840  1.00  0.00     0.232 C 
HETATM   23  N7  UNL     1     -29.422   2.901  27.112  1.00  0.00    -0.074 N 
ATOM     24  H71 UNL     1     -29.926   2.444  27.873  1.00  0.00     0.277 HD
ATOM     25  H72 UNL     1     -29.771   3.853  27.224  1.00  0.00     0.277 HD
HETATM   26  C17 UNL     1     -28.010   2.853  27.341  1.00  0.00     0.252 C 
HETATM   27  C18 UNL     1     -27.598   1.819  28.359  1.00  0.00     0.152 C 
ENDROOT
BRANCH  15  28
HETATM   28  C8  UNL     1     -27.843  -3.960  23.122  1.00  0.00     0.112 C 
BRANCH  28  29
HETATM   29  C9  UNL     1     -28.590  -4.494  21.927  1.00  0.00     0.109 C 
BRANCH  29  30
HETATM   30  C10 UNL     1     -27.638  -5.026  20.930  1.00  0.00     0.231 C 
HETATM   31  N6  UNL     1     -26.240  -4.991  21.157  1.00  0.00    -0.062 NA
HETATM   32  O2  UNL     1     -28.070  -5.519  19.863  1.00  0.00    -0.277 OA
ENDBRANCH  29  30
ENDBRANCH  28  29
ENDBRANCH  15  28
TORSDOF 3
ENDMDL
