MODEL 1
REMARK VINA RESULT: -6.743085339      0.000      0.000
REMARK  4 active torsions:
REMARK  status: ('A' for Active; 'I' for Inactive)
REMARK    1  A    between atoms: C1_2  and  C2_3 
REMARK    2  A    between atoms: C4_10  and  C5_11 
REMARK    3  A    between atoms: C5_11  and  N4_12 
REMARK    4  A    between atoms: N4_12  and  C6_14 
ROOT
HETATM    1  C5  UNL     1      -0.075 -30.554  34.107  1.00  0.00     0.122 C 
ENDROOT
BRANCH   1   2
HETATM    2  C4  UNL     1       0.847 -31.286  33.559  1.00  0.00     0.079 A 
HETATM    3  C2  UNL     1       1.945 -31.891  34.125  1.00  0.00     0.077 A 
HETATM    4  N2  UNL     1       2.562 -32.527  33.085  1.00  0.00    -0.306 N 
HETATM    5  C3  UNL     1       1.909 -32.343  31.938  1.00  0.00     0.325 A 
ATOM      6  H2  UNL     1       3.417 -33.075  33.176  1.00  0.00     0.171 HD
HETATM    7  O1  UNL     1       2.198 -32.788  30.781  1.00  0.00    -0.247 OA
HETATM    8  N3  UNL     1       0.853 -31.581  32.224  1.00  0.00    -0.305 N 
ATOM      9  H3  UNL     1       0.156 -31.265  31.549  1.00  0.00     0.171 HD
BRANCH   3  10
HETATM   10  C1  UNL     1       2.356 -31.890  35.386  1.00  0.00     0.132 C 
HETATM   11  N1  UNL     1       1.782 -32.558  36.462  1.00  0.00    -0.113 NA
ENDBRANCH   3  10
ENDBRANCH   1   2
BRANCH   1  12
HETATM   12  N4  UNL     1      -0.039 -29.120  33.976  1.00  0.00    -0.345 N 
ATOM     13  H4  UNL     1      -0.219 -28.670  33.079  1.00  0.00     0.167 HD
BRANCH  12  14
HETATM   14  C6  UNL     1       0.231 -28.412  35.041  1.00  0.00     0.174 A 
HETATM   15  N5  UNL     1       1.488 -27.995  35.305  1.00  0.00    -0.346 N 
HETATM   16  C7  UNL     1       1.751 -27.262  36.412  1.00  0.00     0.107 A 
ATOM     17  H5  UNL     1       2.246 -28.235  34.665  1.00  0.00     0.167 HD
HETATM   18  C8  UNL     1       0.731 -26.942  37.269  1.00  0.00     0.108 A 
HETATM   19  N6  UNL     1      -0.512 -27.335  37.040  1.00  0.00    -0.329 N 
HETATM   20  C9  UNL     1      -0.747 -28.070  35.919  1.00  0.00     0.289 A 
ATOM     21  H6  UNL     1      -1.268 -27.095  37.681  1.00  0.00     0.168 HD
HETATM   22  O2  UNL     1      -1.934 -28.430  35.725  1.00  0.00    -0.264 OA
ENDBRANCH  12  14
ENDBRANCH   1  12
TORSDOF 4
ENDMDL
MODEL 2
REMARK VINA RESULT: -6.675710849      1.957      2.346
REMARK  4 active torsions:
REMARK  status: ('A' for Active; 'I' for Inactive)
REMARK    1  A    between atoms: C1_2  and  C2_3 
REMARK    2  A    between atoms: C4_10  and  C5_11 
REMARK    3  A    between atoms: C5_11  and  N4_12 
REMARK    4  A    between atoms: N4_12  and  C6_14 
ROOT
HETATM    1  C5  UNL     1       1.352 -29.189  35.422  1.00  0.00     0.122 C 
ENDROOT
BRANCH   1   2
HETATM    2  C4  UNL     1       1.156 -30.295  34.771  1.00  0.00     0.079 A 
HETATM    3  C2  UNL     1       0.463 -31.424  35.137  1.00  0.00     0.077 A 
HETATM    4  N2  UNL     1       0.587 -32.267  34.070  1.00  0.00    -0.306 N 
HETATM    5  C3  UNL     1       1.309 -31.720  33.092  1.00  0.00     0.325 A 
ATOM      6  H2  UNL     1       0.179 -33.201  34.027  1.00  0.00     0.171 HD
HETATM    7  O1  UNL     1       1.621 -32.219  31.963  1.00  0.00    -0.247 OA
HETATM    8  N3  UNL     1       1.661 -30.506  33.517  1.00  0.00    -0.305 N 
ATOM      9  H3  UNL     1       2.221 -29.838  32.989  1.00  0.00     0.171 HD
BRANCH   3  10
HETATM   10  C1  UNL     1      -0.197 -31.686  36.258  1.00  0.00     0.132 C 
HETATM   11  N1  UNL     1      -1.415 -31.153  36.667  1.00  0.00    -0.113 NA
ENDBRANCH   3  10
ENDBRANCH   1   2
BRANCH   1  12
HETATM   12  N4  UNL     1       0.234 -28.428  35.916  1.00  0.00    -0.345 N 
ATOM     13  H4  UNL     1      -0.691 -28.520  35.496  1.00  0.00     0.167 HD
BRANCH  12  14
HETATM   14  C6  UNL     1       0.439 -27.615  36.919  1.00  0.00     0.174 A 
HETATM   15  N5  UNL     1       0.818 -28.078  38.130  1.00  0.00    -0.346 N 
HETATM   16  C7  UNL     1       1.026 -27.224  39.159  1.00  0.00     0.107 A 
ATOM     17  H5  UNL     1       0.948 -29.080  38.270  1.00  0.00     0.167 HD
HETATM   18  C8  UNL     1       0.850 -25.879  38.967  1.00  0.00     0.108 A 
HETATM   19  N6  UNL     1       0.479 -25.392  37.793  1.00  0.00    -0.329 N 
HETATM   20  C9  UNL     1       0.278 -26.274  36.777  1.00  0.00     0.289 A 
ATOM     21  H6  UNL     1       0.348 -24.390  37.655  1.00  0.00     0.168 HD
HETATM   22  O2  UNL     1      -0.074 -25.787  35.674  1.00  0.00    -0.264 OA
ENDBRANCH  12  14
ENDBRANCH   1  12
TORSDOF 4
ENDMDL
MODEL 3
REMARK VINA RESULT: -6.667321756      2.389      5.610
REMARK  4 active torsions:
REMARK  status: ('A' for Active; 'I' for Inactive)
REMARK    1  A    between atoms: C1_2  and  C2_3 
REMARK    2  A    between atoms: C4_10  and  C5_11 
REMARK    3  A    between atoms: C5_11  and  N4_12 
REMARK    4  A    between atoms: N4_12  and  C6_14 
ROOT
HETATM    1  C5  UNL     1      -1.483 -28.584  35.871  1.00  0.00     0.122 C 
ENDROOT
BRANCH   1   2
HETATM    2  C4  UNL     1      -0.490 -27.989  36.459  1.00  0.00     0.079 A 
HETATM    3  C2  UNL     1       0.407 -27.071  35.964  1.00  0.00     0.077 A 
HETATM    4  N2  UNL     1       1.230 -26.790  37.018  1.00  0.00    -0.306 N 
HETATM    5  C3  UNL     1       0.887 -27.478  38.107  1.00  0.00     0.325 A 
ATOM      6  H2  UNL     1       2.010 -26.136  36.976  1.00  0.00     0.171 HD
HETATM    7  O1  UNL     1       1.430 -27.462  39.258  1.00  0.00    -0.247 OA
HETATM    8  N3  UNL     1      -0.171 -28.216  37.769  1.00  0.00    -0.305 N 
ATOM      9  H3  UNL     1      -0.666 -28.854  38.392  1.00  0.00     0.171 HD
BRANCH   3  10
HETATM   10  C1  UNL     1       0.496 -26.544  34.750  1.00  0.00     0.132 C 
HETATM   11  N1  UNL     1       0.805 -27.202  33.564  1.00  0.00    -0.113 NA
ENDBRANCH   3  10
ENDBRANCH   1   2
BRANCH   1  12
HETATM   12  N4  UNL     1      -1.531 -30.021  35.799  1.00  0.00    -0.345 N 
ATOM     13  H4  UNL     1      -2.266 -30.546  36.273  1.00  0.00     0.167 HD
BRANCH  12  14
HETATM   14  C6  UNL     1      -0.606 -30.633  35.107  1.00  0.00     0.174 A 
HETATM   15  N5  UNL     1      -0.296 -30.242  33.852  1.00  0.00    -0.346 N 
HETATM   16  C7  UNL     1       0.665 -30.885  33.148  1.00  0.00     0.107 A 
ATOM     17  H5  UNL     1      -0.790 -29.455  33.430  1.00  0.00     0.167 HD
HETATM   18  C8  UNL     1       1.325 -31.942  33.718  1.00  0.00     0.108 A 
HETATM   19  N6  UNL     1       1.046 -32.351  34.945  1.00  0.00    -0.329 N 
HETATM   20  C9  UNL     1       0.077 -31.685  35.629  1.00  0.00     0.289 A 
ATOM     21  H6  UNL     1       1.540 -33.139  35.365  1.00  0.00     0.168 HD
HETATM   22  O2  UNL     1      -0.170 -32.092  36.791  1.00  0.00    -0.264 OA
ENDBRANCH  12  14
ENDBRANCH   1  12
TORSDOF 4
ENDMDL
MODEL 4
REMARK VINA RESULT: -6.625404368      1.279      1.430
REMARK  4 active torsions:
REMARK  status: ('A' for Active; 'I' for Inactive)
REMARK    1  A    between atoms: C1_2  and  C2_3 
REMARK    2  A    between atoms: C4_10  and  C5_11 
REMARK    3  A    between atoms: C5_11  and  N4_12 
REMARK    4  A    between atoms: N4_12  and  C6_14 
ROOT
HETATM    1  C5  UNL     1      -0.071 -30.541  34.024  1.00  0.00     0.122 C 
ENDROOT
BRANCH   1   2
HETATM    2  C4  UNL     1       0.842 -31.276  33.466  1.00  0.00     0.079 A 
HETATM    3  C2  UNL     1       2.006 -31.786  33.990  1.00  0.00     0.077 A 
HETATM    4  N2  UNL     1       2.574 -32.479  32.959  1.00  0.00    -0.306 N 
HETATM    5  C3  UNL     1       1.830 -32.417  31.855  1.00  0.00     0.325 A 
ATOM      6  H2  UNL     1       3.459 -32.981  33.026  1.00  0.00     0.171 HD
HETATM    7  O1  UNL     1       2.054 -32.942  30.718  1.00  0.00    -0.247 OA
HETATM    8  N3  UNL     1       0.763 -31.679  32.162  1.00  0.00    -0.305 N 
ATOM      9  H3  UNL     1       0.003 -31.449  31.521  1.00  0.00     0.171 HD
BRANCH   3  10
HETATM   10  C1  UNL     1       2.509 -31.665  35.212  1.00  0.00     0.132 C 
HETATM   11  N1  UNL     1       1.882 -31.961  36.418  1.00  0.00    -0.113 NA
ENDBRANCH   3  10
ENDBRANCH   1   2
BRANCH   1  12
HETATM   12  N4  UNL     1      -0.014 -29.107  33.921  1.00  0.00    -0.345 N 
ATOM     13  H4  UNL     1      -0.348 -28.627  33.085  1.00  0.00     0.167 HD
BRANCH  12  14
HETATM   14  C6  UNL     1       0.477 -28.436  34.930  1.00  0.00     0.174 A 
HETATM   15  N5  UNL     1       0.455 -28.941  36.183  1.00  0.00    -0.346 N 
HETATM   16  C7  UNL     1       0.968 -28.235  37.217  1.00  0.00     0.107 A 
ATOM     17  H5  UNL     1       0.049 -29.861  36.351  1.00  0.00     0.167 HD
HETATM   18  C8  UNL     1       1.513 -26.999  36.988  1.00  0.00     0.108 A 
HETATM   19  N6  UNL     1       1.550 -26.475  35.772  1.00  0.00    -0.329 N 
HETATM   20  C9  UNL     1       1.028 -27.208  34.752  1.00  0.00     0.289 A 
ATOM     21  H6  UNL     1       1.956 -25.554  35.607  1.00  0.00     0.168 HD
HETATM   22  O2  UNL     1       1.075 -26.690  33.609  1.00  0.00    -0.264 OA
ENDBRANCH  12  14
ENDBRANCH   1  12
TORSDOF 4
ENDMDL
MODEL 5
REMARK VINA RESULT: -6.604038356      2.229      2.447
REMARK  4 active torsions:
REMARK  status: ('A' for Active; 'I' for Inactive)
REMARK    1  A    between atoms: C1_2  and  C2_3 
REMARK    2  A    between atoms: C4_10  and  C5_11 
REMARK    3  A    between atoms: C5_11  and  N4_12 
REMARK    4  A    between atoms: N4_12  and  C6_14 
ROOT
HETATM    1  C5  UNL     1       1.145 -29.076  35.294  1.00  0.00     0.122 C 
ENDROOT
BRANCH   1   2
HETATM    2  C4  UNL     1       1.055 -30.224  34.694  1.00  0.00     0.079 A 
HETATM    3  C2  UNL     1       0.407 -31.373  35.081  1.00  0.00     0.077 A 
HETATM    4  N2  UNL     1       0.646 -32.261  34.071  1.00  0.00    -0.306 N 
HETATM    5  C3  UNL     1       1.393 -31.721  33.107  1.00  0.00     0.325 A 
ATOM      6  H2  UNL     1       0.297 -33.219  34.056  1.00  0.00     0.171 HD
HETATM    7  O1  UNL     1       1.802 -32.256  32.027  1.00  0.00    -0.247 OA
HETATM    8  N3  UNL     1       1.646 -30.468  33.485  1.00  0.00    -0.305 N 
ATOM      9  H3  UNL     1       2.197 -29.793  32.953  1.00  0.00     0.171 HD
BRANCH   3  10
HETATM   10  C1  UNL     1      -0.302 -31.618  36.175  1.00  0.00     0.132 C 
HETATM   11  N1  UNL     1      -1.580 -31.156  36.474  1.00  0.00    -0.113 NA
ENDBRANCH   3  10
ENDBRANCH   1   2
BRANCH   1  12
HETATM   12  N4  UNL     1       0.341 -27.963  34.860  1.00  0.00    -0.345 N 
ATOM     13  H4  UNL     1      -0.603 -28.106  34.500  1.00  0.00     0.167 HD
BRANCH  12  14
HETATM   14  C6  UNL     1       0.855 -26.764  34.942  1.00  0.00     0.174 A 
HETATM   15  N5  UNL     1       1.801 -26.347  34.072  1.00  0.00    -0.346 N 
HETATM   16  C7  UNL     1       2.323 -25.102  34.169  1.00  0.00     0.107 A 
ATOM     17  H5  UNL     1       2.124 -26.975  33.337  1.00  0.00     0.167 HD
HETATM   18  C8  UNL     1       1.886 -24.261  35.159  1.00  0.00     0.108 A 
HETATM   19  N6  UNL     1       0.961 -24.638  36.027  1.00  0.00    -0.329 N 
HETATM   20  C9  UNL     1       0.453 -25.895  35.905  1.00  0.00     0.289 A 
ATOM     21  H6  UNL     1       0.639 -24.009  36.763  1.00  0.00     0.168 HD
HETATM   22  O2  UNL     1      -0.423 -26.229  36.740  1.00  0.00    -0.264 OA
ENDBRANCH  12  14
ENDBRANCH   1  12
TORSDOF 4
ENDMDL
