MODEL 1
REMARK VINA RESULT: -7.561831857      0.000      0.000
REMARK  4 active torsions:
REMARK  status: ('A' for Active; 'I' for Inactive)
REMARK       I    between atoms: N1_2  and  C2_4 
REMARK       I    between atoms: C2_4  and  N7_30 
REMARK       I    between atoms: N2_5  and  C3_7 
REMARK       I    between atoms: C3_7  and  N3_9 
REMARK    1  A    between atoms: N3_9  and  C4_11 
REMARK    2  A    between atoms: C7_16  and  C8_17 
REMARK       I    between atoms: N5_22  and  C12_23 
REMARK       I    between atoms: C12_23  and  N6_25 
REMARK    3  A    between atoms: N6_25  and  C13_27 
REMARK    4  A    between atoms: N7_30  and  C16_32 
ROOT
HETATM    1  C4  UNL     1      15.090  -1.690   4.680  1.00  0.00     0.294 C 
HETATM    2  C5  UNL     1      15.502  -2.190   3.345  1.00  0.00     0.263 C 
HETATM    3  O2  UNL     1      16.547  -1.654   2.882  1.00  0.00    -0.269 OA
HETATM    4  N4  UNL     1      14.786  -3.193   2.629  1.00  0.00    -0.339 N 
HETATM    5  C6  UNL     1      14.839  -3.085   1.169  1.00  0.00     0.153 C 
HETATM    6  C7  UNL     1      14.104  -4.184   3.351  1.00  0.00     0.182 C 
HETATM    7  C11 UNL     1      13.578  -3.600   4.632  1.00  0.00     0.253 C 
HETATM    8  O3  UNL     1      12.409  -3.891   5.066  1.00  0.00    -0.270 OA
HETATM    9  N5  UNL     1      14.349  -2.707   5.410  1.00  0.00    -0.237 N 
HETATM   10  C12 UNL     1      14.437  -2.745   6.802  1.00  0.00     0.327 C 
HETATM   11  O4  UNL     1      15.154  -1.883   7.383  1.00  0.00    -0.247 OA
HETATM   12  N6  UNL     1      13.787  -3.680   7.614  1.00  0.00    -0.339 N 
ATOM     13  H6  UNL     1      13.199  -4.395   7.186  1.00  0.00     0.164 HD
ENDROOT
BRANCH   1  14
HETATM   14  N3  UNL     1      14.319  -0.468   4.568  1.00  0.00    -0.312 N 
HETATM   15  C3  UNL     1      14.305   0.583   5.510  1.00  0.00     0.336 C 
HETATM   16  N2  UNL     1      13.537   1.734   5.342  1.00  0.00    -0.142 N 
HETATM   17  O1  UNL     1      15.007   0.526   6.577  1.00  0.00    -0.246 OA
HETATM   18  C2  UNL     1      12.342   1.853   4.942  1.00  0.00     0.677 C 
ATOM     19  H2  UNL     1      14.006   2.609   5.576  1.00  0.00     0.189 HD
HETATM   20  N1  UNL     1      11.767   3.137   4.851  1.00  0.00    -0.231 N 
HETATM   21  N7  UNL     1      11.575   0.719   4.595  1.00  0.00    -0.222 N 
HETATM   22  C1  UNL     1      12.658   4.276   4.616  1.00  0.00     0.165 C 
ATOM     23  H1  UNL     1      10.760   3.269   4.944  1.00  0.00     0.177 HD
ATOM     24  H7  UNL     1      11.697  -0.132   5.144  1.00  0.00     0.178 HD
ATOM     25  H3  UNL     1      13.737  -0.359   3.737  1.00  0.00     0.166 HD
BRANCH  21  26
HETATM   26  C16 UNL     1      10.630   0.700   3.510  1.00  0.00     0.091 C 
HETATM   27  C17 UNL     1       9.204   0.805   3.983  1.00  0.00     0.032 C 
HETATM   28  C18 UNL     1      10.820  -0.526   2.623  1.00  0.00     0.032 C 
ENDBRANCH  21  26
ENDBRANCH   1  14
BRANCH   6  29
HETATM   29  C8  UNL     1      14.771  -5.435   3.710  1.00  0.00     0.009 C 
HETATM   30  C9  UNL     1      14.694  -6.364   2.510  1.00  0.00     0.012 C 
HETATM   31  C10 UNL     1      16.171  -5.436   4.152  1.00  0.00     0.012 C 
ENDBRANCH   6  29
BRANCH  12  32
HETATM   32  C13 UNL     1      13.937  -3.650   9.067  1.00  0.00     0.078 C 
HETATM   33  C14 UNL     1      13.004  -2.720   9.754  1.00  0.00     0.032 C 
HETATM   34  C15 UNL     1      13.754  -5.063   9.559  1.00  0.00     0.032 C 
ENDBRANCH  12  32
TORSDOF 4
ENDMDL
MODEL 2
REMARK VINA RESULT: -7.372740413      2.291      6.496
REMARK  4 active torsions:
REMARK  status: ('A' for Active; 'I' for Inactive)
REMARK       I    between atoms: N1_2  and  C2_4 
REMARK       I    between atoms: C2_4  and  N7_30 
REMARK       I    between atoms: N2_5  and  C3_7 
REMARK       I    between atoms: C3_7  and  N3_9 
REMARK    1  A    between atoms: N3_9  and  C4_11 
REMARK    2  A    between atoms: C7_16  and  C8_17 
REMARK       I    between atoms: N5_22  and  C12_23 
REMARK       I    between atoms: C12_23  and  N6_25 
REMARK    3  A    between atoms: N6_25  and  C13_27 
REMARK    4  A    between atoms: N7_30  and  C16_32 
ROOT
HETATM    1  C4  UNL     1      13.794  -2.543   3.773  1.00  0.00     0.294 C 
HETATM    2  C5  UNL     1      13.318  -1.369   2.999  1.00  0.00     0.263 C 
HETATM    3  O2  UNL     1      12.489  -1.642   2.086  1.00  0.00    -0.269 OA
HETATM    4  N4  UNL     1      13.753  -0.036   3.252  1.00  0.00    -0.339 N 
HETATM    5  C6  UNL     1      13.799   0.845   2.082  1.00  0.00     0.153 C 
HETATM    6  C7  UNL     1      14.093   0.328   4.563  1.00  0.00     0.182 C 
HETATM    7  C11 UNL     1      14.705  -0.850   5.269  1.00  0.00     0.253 C 
HETATM    8  O3  UNL     1      15.722  -0.713   6.034  1.00  0.00    -0.270 OA
HETATM    9  N5  UNL     1      14.184  -2.154   5.119  1.00  0.00    -0.237 N 
HETATM   10  C12 UNL     1      14.025  -3.067   6.163  1.00  0.00     0.327 C 
HETATM   11  O4  UNL     1      13.556  -4.210   5.898  1.00  0.00    -0.247 OA
HETATM   12  N6  UNL     1      14.347  -2.809   7.500  1.00  0.00    -0.339 N 
ATOM     13  H6  UNL     1      14.728  -1.899   7.758  1.00  0.00     0.164 HD
ENDROOT
BRANCH   1  14
HETATM   14  N3  UNL     1      14.884  -3.213   3.093  1.00  0.00    -0.312 N 
HETATM   15  C3  UNL     1      14.761  -4.363   2.283  1.00  0.00     0.336 C 
HETATM   16  N2  UNL     1      15.853  -4.962   1.656  1.00  0.00    -0.142 N 
HETATM   17  O1  UNL     1      13.626  -4.916   2.083  1.00  0.00    -0.246 OA
HETATM   18  C2  UNL     1      17.010  -5.200   2.110  1.00  0.00     0.677 C 
ATOM     19  H2  UNL     1      15.697  -5.251   0.690  1.00  0.00     0.189 HD
HETATM   20  N1  UNL     1      17.965  -5.823   1.280  1.00  0.00    -0.231 N 
HETATM   21  N7  UNL     1      17.356  -4.860   3.436  1.00  0.00    -0.222 N 
HETATM   22  C1  UNL     1      17.850  -5.630  -0.169  1.00  0.00     0.165 C 
ATOM     23  H1  UNL     1      18.713  -6.391   1.676  1.00  0.00     0.177 HD
ATOM     24  H7  UNL     1      16.647  -4.965   4.161  1.00  0.00     0.178 HD
ATOM     25  H3  UNL     1      15.818  -2.821   3.208  1.00  0.00     0.166 HD
BRANCH  21  26
HETATM   26  C16 UNL     1      18.654  -4.373   3.819  1.00  0.00     0.091 C 
HETATM   27  C17 UNL     1      19.530  -5.453   4.396  1.00  0.00     0.032 C 
HETATM   28  C18 UNL     1      18.549  -3.189   4.775  1.00  0.00     0.032 C 
ENDBRANCH  21  26
ENDBRANCH   1  14
BRANCH   6  29
HETATM   29  C8  UNL     1      13.084   0.875   5.470  1.00  0.00     0.009 C 
HETATM   30  C9  UNL     1      13.640   2.159   6.064  1.00  0.00     0.012 C 
HETATM   31  C10 UNL     1      11.734   1.187   4.985  1.00  0.00     0.012 C 
ENDBRANCH   6  29
BRANCH  12  32
HETATM   32  C13 UNL     1      14.146  -3.823   8.533  1.00  0.00     0.078 C 
HETATM   33  C14 UNL     1      15.381  -4.557   8.911  1.00  0.00     0.032 C 
HETATM   34  C15 UNL     1      13.544  -3.124   9.725  1.00  0.00     0.032 C 
ENDBRANCH  12  32
TORSDOF 4
ENDMDL
MODEL 3
REMARK VINA RESULT: -7.284378914      2.689      6.406
REMARK  4 active torsions:
REMARK  status: ('A' for Active; 'I' for Inactive)
REMARK       I    between atoms: N1_2  and  C2_4 
REMARK       I    between atoms: C2_4  and  N7_30 
REMARK       I    between atoms: N2_5  and  C3_7 
REMARK       I    between atoms: C3_7  and  N3_9 
REMARK    1  A    between atoms: N3_9  and  C4_11 
REMARK    2  A    between atoms: C7_16  and  C8_17 
REMARK       I    between atoms: N5_22  and  C12_23 
REMARK       I    between atoms: C12_23  and  N6_25 
REMARK    3  A    between atoms: N6_25  and  C13_27 
REMARK    4  A    between atoms: N7_30  and  C16_32 
ROOT
HETATM    1  C4  UNL     1      11.733   0.898   3.815  1.00  0.00     0.294 C 
HETATM    2  C5  UNL     1      10.255   1.007   3.724  1.00  0.00     0.263 C 
HETATM    3  O2  UNL     1       9.778   2.085   4.176  1.00  0.00    -0.269 OA
HETATM    4  N4  UNL     1       9.427  -0.014   3.173  1.00  0.00    -0.339 N 
HETATM    5  C6  UNL     1       8.086  -0.119   3.752  1.00  0.00     0.153 C 
HETATM    6  C7  UNL     1       9.939  -0.820   2.145  1.00  0.00     0.182 C 
HETATM    7  C11 UNL     1      11.414  -1.025   2.354  1.00  0.00     0.253 C 
HETATM    8  O3  UNL     1      11.961  -2.166   2.161  1.00  0.00    -0.270 OA
HETATM    9  N5  UNL     1      12.255   0.029   2.773  1.00  0.00    -0.237 N 
HETATM   10  C12 UNL     1      13.527   0.279   2.254  1.00  0.00     0.327 C 
HETATM   11  O4  UNL     1      14.187   1.250   2.720  1.00  0.00    -0.247 OA
HETATM   12  N6  UNL     1      14.134  -0.472   1.242  1.00  0.00    -0.339 N 
ATOM     13  H6  UNL     1      13.635  -1.264   0.837  1.00  0.00     0.164 HD
ENDROOT
BRANCH   1  14
HETATM   14  N3  UNL     1      12.144   0.437   5.127  1.00  0.00    -0.312 N 
HETATM   15  C3  UNL     1      12.795   1.221   6.104  1.00  0.00     0.336 C 
HETATM   16  N2  UNL     1      13.167   0.715   7.349  1.00  0.00    -0.142 N 
HETATM   17  O1  UNL     1      13.077   2.449   5.890  1.00  0.00    -0.246 OA
HETATM   18  C2  UNL     1      13.703  -0.394   7.639  1.00  0.00     0.677 C 
ATOM     19  H2  UNL     1      12.978   1.327   8.142  1.00  0.00     0.189 HD
HETATM   20  N1  UNL     1      13.991  -0.692   8.986  1.00  0.00    -0.231 N 
HETATM   21  N7  UNL     1      14.025  -1.332   6.633  1.00  0.00    -0.222 N 
HETATM   22  C1  UNL     1      13.165  -0.067  10.023  1.00  0.00     0.165 C 
ATOM     23  H1  UNL     1      14.752  -1.325   9.233  1.00  0.00     0.177 HD
ATOM     24  H7  UNL     1      14.365  -0.981   5.738  1.00  0.00     0.178 HD
ATOM     25  H3  UNL     1      11.946  -0.535   5.363  1.00  0.00     0.166 HD
BRANCH  21  26
HETATM   26  C16 UNL     1      13.901  -2.755   6.804  1.00  0.00     0.091 C 
HETATM   27  C17 UNL     1      15.207  -3.410   7.168  1.00  0.00     0.032 C 
HETATM   28  C18 UNL     1      13.285  -3.415   5.574  1.00  0.00     0.032 C 
ENDBRANCH  21  26
ENDBRANCH   1  14
BRANCH   6  29
HETATM   29  C8  UNL     1       9.771  -0.436   0.744  1.00  0.00     0.009 C 
HETATM   30  C9  UNL     1       9.366  -1.679  -0.033  1.00  0.00     0.012 C 
HETATM   31  C10 UNL     1       8.824   0.621   0.367  1.00  0.00     0.012 C 
ENDBRANCH   6  29
BRANCH  12  32
HETATM   32  C13 UNL     1      15.470  -0.139   0.755  1.00  0.00     0.078 C 
HETATM   33  C14 UNL     1      16.544  -1.024   1.276  1.00  0.00     0.032 C 
HETATM   34  C15 UNL     1      15.414  -0.183  -0.751  1.00  0.00     0.032 C 
ENDBRANCH  12  32
TORSDOF 4
ENDMDL
MODEL 4
REMARK VINA RESULT: -7.147215212      3.567      7.198
REMARK  4 active torsions:
REMARK  status: ('A' for Active; 'I' for Inactive)
REMARK       I    between atoms: N1_2  and  C2_4 
REMARK       I    between atoms: C2_4  and  N7_30 
REMARK       I    between atoms: N2_5  and  C3_7 
REMARK       I    between atoms: C3_7  and  N3_9 
REMARK    1  A    between atoms: N3_9  and  C4_11 
REMARK    2  A    between atoms: C7_16  and  C8_17 
REMARK       I    between atoms: N5_22  and  C12_23 
REMARK       I    between atoms: C12_23  and  N6_25 
REMARK    3  A    between atoms: N6_25  and  C13_27 
REMARK    4  A    between atoms: N7_30  and  C16_32 
ROOT
HETATM    1  C4  UNL     1       9.962   0.628   2.821  1.00  0.00     0.294 C 
HETATM    2  C5  UNL     1       8.596   0.173   3.183  1.00  0.00     0.263 C 
HETATM    3  O2  UNL     1       7.889   1.043   3.764  1.00  0.00    -0.269 OA
HETATM    4  N4  UNL     1       8.108  -1.136   2.905  1.00  0.00    -0.339 N 
HETATM    5  C6  UNL     1       7.133  -1.663   3.864  1.00  0.00     0.153 C 
HETATM    6  C7  UNL     1       8.578  -1.807   1.766  1.00  0.00     0.182 C 
HETATM    7  C11 UNL     1      10.012  -1.429   1.517  1.00  0.00     0.253 C 
HETATM    8  O3  UNL     1      10.878  -2.301   1.161  1.00  0.00    -0.270 OA
HETATM    9  N5  UNL     1      10.462  -0.098   1.665  1.00  0.00    -0.237 N 
HETATM   10  C12 UNL     1      11.337   0.543   0.786  1.00  0.00     0.327 C 
HETATM   11  O4  UNL     1      11.673   1.735   1.034  1.00  0.00    -0.247 OA
HETATM   12  N6  UNL     1      11.874  -0.040  -0.367  1.00  0.00    -0.339 N 
ATOM     13  H6  UNL     1      11.628  -1.001  -0.605  1.00  0.00     0.164 HD
ENDROOT
BRANCH   1  14
HETATM   14  N3  UNL     1      10.871   0.503   3.944  1.00  0.00    -0.312 N 
HETATM   15  C3  UNL     1      11.149   1.513   4.890  1.00  0.00     0.336 C 
HETATM   16  N2  UNL     1      12.038   1.329   5.948  1.00  0.00    -0.142 N 
HETATM   17  O1  UNL     1      10.589   2.660   4.820  1.00  0.00    -0.246 OA
HETATM   18  C2  UNL     1      13.176   0.775   5.956  1.00  0.00     0.677 C 
ATOM     19  H2  UNL     1      11.725   1.693   6.848  1.00  0.00     0.189 HD
HETATM   20  N1  UNL     1      13.902   0.703   7.161  1.00  0.00    -0.231 N 
HETATM   21  N7  UNL     1      13.731   0.236   4.774  1.00  0.00    -0.222 N 
HETATM   22  C1  UNL     1      13.151   0.686   8.420  1.00  0.00     0.165 C 
ATOM     23  H1  UNL     1      14.922   0.664   7.158  1.00  0.00     0.177 HD
ATOM     24  H7  UNL     1      13.566   0.729   3.896  1.00  0.00     0.178 HD
ATOM     25  H3  UNL     1      11.349  -0.390   4.059  1.00  0.00     0.166 HD
BRANCH  21  26
HETATM   26  C16 UNL     1      14.515  -0.968   4.742  1.00  0.00     0.091 C 
HETATM   27  C17 UNL     1      15.013  -1.298   3.359  1.00  0.00     0.032 C 
HETATM   28  C18 UNL     1      13.757  -2.148   5.342  1.00  0.00     0.032 C 
ENDBRANCH  21  26
ENDBRANCH   1  14
BRANCH   6  29
HETATM   29  C8  UNL     1       7.887  -1.674   0.484  1.00  0.00     0.009 C 
HETATM   30  C9  UNL     1       7.797  -3.056  -0.141  1.00  0.00     0.012 C 
HETATM   31  C10 UNL     1       6.539  -1.095   0.418  1.00  0.00     0.012 C 
ENDBRANCH   6  29
BRANCH  12  32
HETATM   32  C13 UNL     1      12.782   0.705  -1.235  1.00  0.00     0.078 C 
HETATM   33  C14 UNL     1      14.136   0.105  -1.354  1.00  0.00     0.032 C 
HETATM   34  C15 UNL     1      12.115   0.811  -2.582  1.00  0.00     0.032 C 
ENDBRANCH  12  32
TORSDOF 4
ENDMDL
MODEL 5
REMARK VINA RESULT: -7.073158934      2.410      4.998
REMARK  4 active torsions:
REMARK  status: ('A' for Active; 'I' for Inactive)
REMARK       I    between atoms: N1_2  and  C2_4 
REMARK       I    between atoms: C2_4  and  N7_30 
REMARK       I    between atoms: N2_5  and  C3_7 
REMARK       I    between atoms: C3_7  and  N3_9 
REMARK    1  A    between atoms: N3_9  and  C4_11 
REMARK    2  A    between atoms: C7_16  and  C8_17 
REMARK       I    between atoms: N5_22  and  C12_23 
REMARK       I    between atoms: C12_23  and  N6_25 
REMARK    3  A    between atoms: N6_25  and  C13_27 
REMARK    4  A    between atoms: N7_30  and  C16_32 
ROOT
HETATM    1  C4  UNL     1      15.421  -3.894   5.047  1.00  0.00     0.294 C 
HETATM    2  C5  UNL     1      16.776  -4.444   5.303  1.00  0.00     0.263 C 
HETATM    3  O2  UNL     1      16.828  -5.312   6.218  1.00  0.00    -0.269 OA
HETATM    4  N4  UNL     1      17.936  -4.035   4.582  1.00  0.00    -0.339 N 
HETATM    5  C6  UNL     1      19.193  -4.077   5.333  1.00  0.00     0.153 C 
HETATM    6  C7  UNL     1      17.796  -3.637   3.244  1.00  0.00     0.182 C 
HETATM    7  C11 UNL     1      16.469  -2.954   3.059  1.00  0.00     0.253 C 
HETATM    8  O3  UNL     1      16.356  -1.902   2.339  1.00  0.00    -0.270 OA
HETATM    9  N5  UNL     1      15.294  -3.445   3.670  1.00  0.00    -0.237 N 
HETATM   10  C12 UNL     1      14.050  -3.521   3.043  1.00  0.00     0.327 C 
HETATM   11  O4  UNL     1      13.070  -3.971   3.702  1.00  0.00    -0.247 OA
HETATM   12  N6  UNL     1      13.801  -3.136   1.721  1.00  0.00    -0.339 N 
ATOM     13  H6  UNL     1      14.564  -2.769   1.153  1.00  0.00     0.164 HD
ENDROOT
BRANCH   1  14
HETATM   14  N3  UNL     1      15.108  -2.823   5.972  1.00  0.00    -0.312 N 
HETATM   15  C3  UNL     1      14.507  -2.983   7.240  1.00  0.00     0.336 C 
HETATM   16  N2  UNL     1      14.229  -1.908   8.082  1.00  0.00    -0.142 N 
HETATM   17  O1  UNL     1      14.185  -4.140   7.679  1.00  0.00    -0.246 OA
HETATM   18  C2  UNL     1      13.736  -0.776   7.806  1.00  0.00     0.677 C 
ATOM     19  H2  UNL     1      14.456  -2.055   9.066  1.00  0.00     0.189 HD
HETATM   20  N1  UNL     1      13.544   0.166   8.837  1.00  0.00    -0.231 N 
HETATM   21  N7  UNL     1      13.367  -0.446   6.483  1.00  0.00    -0.222 N 
HETATM   22  C1  UNL     1      14.424   0.097  10.007  1.00  0.00     0.165 C 
ATOM     23  H1  UNL     1      12.814   0.875   8.771  1.00  0.00     0.177 HD
ATOM     24  H7  UNL     1      12.961  -1.177   5.899  1.00  0.00     0.178 HD
ATOM     25  H3  UNL     1      15.341  -1.873   5.683  1.00  0.00     0.166 HD
BRANCH  21  26
HETATM   26  C16 UNL     1      13.532   0.865   5.915  1.00  0.00     0.091 C 
HETATM   27  C17 UNL     1      12.240   1.636   5.854  1.00  0.00     0.032 C 
HETATM   28  C18 UNL     1      14.193   0.802   4.542  1.00  0.00     0.032 C 
ENDBRANCH  21  26
ENDBRANCH   1  14
BRANCH   6  29
HETATM   29  C8  UNL     1      17.914  -4.611   2.160  1.00  0.00     0.009 C 
HETATM   30  C9  UNL     1      19.252  -4.385   1.476  1.00  0.00     0.012 C 
HETATM   31  C10 UNL     1      17.822  -6.050   2.435  1.00  0.00     0.012 C 
ENDBRANCH   6  29
BRANCH  12  32
HETATM   32  C13 UNL     1      12.465  -3.253   1.140  1.00  0.00     0.078 C 
HETATM   33  C14 UNL     1      11.918  -1.975   0.617  1.00  0.00     0.032 C 
HETATM   34  C15 UNL     1      12.546  -4.294   0.054  1.00  0.00     0.032 C 
ENDBRANCH  12  32
TORSDOF 4
ENDMDL
