MODEL 1
REMARK VINA RESULT: -7.114618845      0.000      0.000
REMARK  5 active torsions:
REMARK  status: ('A' for Active; 'I' for Inactive)
REMARK    1  A    between atoms: C2_2  and  C3_3 
REMARK    2  A    between atoms: C3_3  and  C12_19 
REMARK    3  A    between atoms: C4_4  and  C5_5 
REMARK    4  A    between atoms: C7_11  and  N3_12 
REMARK    5  A    between atoms: C8_15  and  C9_16 
ROOT
HETATM    1  C5  UNL     1      11.572   5.888  23.036  1.00  0.00     0.043 A 
HETATM    2  N1  UNL     1      12.568   6.716  23.104  1.00  0.00    -0.352 N 
ATOM      3  H1  UNL     1      12.604   7.349  23.903  1.00  0.00     0.166 HD
HETATM    4  C6  UNL     1      13.563   6.798  22.190  1.00  0.00     0.182 A 
HETATM    5  N2  UNL     1      13.518   5.970  21.124  1.00  0.00    -0.338 N 
ATOM      6  H2  UNL     1      14.243   5.997  20.408  1.00  0.00     0.168 HD
HETATM    7  C7  UNL     1      12.491   5.110  21.036  1.00  0.00     0.108 A 
HETATM    8  C8  UNL     1      11.471   4.996  21.926  1.00  0.00     0.016 A 
ENDROOT
BRANCH   1   9
HETATM    9  C4  UNL     1      10.545   5.734  24.045  1.00  0.00     0.033 C 
HETATM   10  C3  UNL     1       9.442   6.421  24.184  1.00  0.00    -0.070 C 
BRANCH  10  11
HETATM   11  C2  UNL     1       8.560   6.012  25.350  1.00  0.00     0.030 C 
HETATM   12  C1  UNL     1       9.407   5.455  26.477  1.00  0.00     0.010 C 
ENDBRANCH  10  11
BRANCH  10  13
HETATM   13  C12 UNL     1       9.069   7.485  23.282  1.00  0.00    -0.028 C 
HETATM   14  C13 UNL     1       8.156   6.982  22.196  1.00  0.00     0.019 C 
HETATM   15  C14 UNL     1      10.191   8.390  22.834  1.00  0.00     0.019 C 
HETATM   16  C15 UNL     1       8.134   8.499  24.046  1.00  0.00     0.019 C 
ENDBRANCH  10  13
ENDBRANCH   1   9
BRANCH   8  17
HETATM   17  C9  UNL     1      10.389   4.027  21.832  1.00  0.00     0.016 C 
HETATM   18  C10 UNL     1       9.561   4.312  20.589  1.00  0.00     0.015 C 
HETATM   19  C11 UNL     1      10.991   2.627  21.668  1.00  0.00     0.015 C 
ENDBRANCH   8  17
BRANCH   7  20
HETATM   20  N3  UNL     1      12.611   4.279  20.028  1.00  0.00    -0.385 N 
ATOM     21  H32 UNL     1      12.907   4.602  19.108  1.00  0.00     0.157 HD
ATOM     22  H31 UNL     1      12.303   3.334  20.258  1.00  0.00     0.157 HD
ENDBRANCH   7  20
TORSDOF 5
ENDMDL
MODEL 2
REMARK VINA RESULT: -6.647817519      1.941      3.005
REMARK  5 active torsions:
REMARK  status: ('A' for Active; 'I' for Inactive)
REMARK    1  A    between atoms: C2_2  and  C3_3 
REMARK    2  A    between atoms: C3_3  and  C12_19 
REMARK    3  A    between atoms: C4_4  and  C5_5 
REMARK    4  A    between atoms: C7_11  and  N3_12 
REMARK    5  A    between atoms: C8_15  and  C9_16 
ROOT
HETATM    1  C5  UNL     1       9.089   4.353  22.195  1.00  0.00     0.043 A 
HETATM    2  N1  UNL     1       7.880   4.277  21.734  1.00  0.00    -0.352 N 
ATOM      3  H1  UNL     1       7.112   4.424  22.389  1.00  0.00     0.166 HD
HETATM    4  C6  UNL     1       7.565   4.015  20.443  1.00  0.00     0.182 A 
HETATM    5  N2  UNL     1       8.575   3.809  19.571  1.00  0.00    -0.338 N 
ATOM      6  H2  UNL     1       8.387   3.605  18.590  1.00  0.00     0.168 HD
HETATM    7  C7  UNL     1       9.833   3.879  20.033  1.00  0.00     0.108 A 
HETATM    8  C8  UNL     1      10.194   4.135  21.318  1.00  0.00     0.016 A 
ENDROOT
BRANCH   1   9
HETATM    9  C4  UNL     1       9.442   4.710  23.553  1.00  0.00     0.033 C 
HETATM   10  C3  UNL     1       9.481   5.901  24.090  1.00  0.00    -0.070 C 
BRANCH  10  11
HETATM   11  C2  UNL     1       9.890   5.947  25.551  1.00  0.00     0.030 C 
HETATM   12  C1  UNL     1       8.753   5.464  26.429  1.00  0.00     0.010 C 
ENDBRANCH  10  11
BRANCH  10  13
HETATM   13  C12 UNL     1       9.141   7.096  23.355  1.00  0.00    -0.028 C 
HETATM   14  C13 UNL     1       7.785   6.971  22.713  1.00  0.00     0.019 C 
HETATM   15  C14 UNL     1      10.233   7.665  22.482  1.00  0.00     0.019 C 
HETATM   16  C15 UNL     1       8.907   8.275  24.376  1.00  0.00     0.019 C 
ENDBRANCH  10  13
ENDBRANCH   1   9
BRANCH   8  17
HETATM   17  C9  UNL     1      11.566   4.248  21.790  1.00  0.00     0.016 C 
HETATM   18  C10 UNL     1      12.305   2.948  21.515  1.00  0.00     0.015 C 
HETATM   19  C11 UNL     1      12.273   5.352  20.995  1.00  0.00     0.015 C 
ENDBRANCH   8  17
BRANCH   7  20
HETATM   20  N3  UNL     1      10.730   3.780  19.082  1.00  0.00    -0.385 N 
ATOM     21  H32 UNL     1      10.465   3.828  18.098  1.00  0.00     0.157 HD
ATOM     22  H31 UNL     1      11.662   3.574  19.439  1.00  0.00     0.157 HD
ENDBRANCH   7  20
TORSDOF 5
ENDMDL
MODEL 3
REMARK VINA RESULT: -6.553646828      2.268      5.270
REMARK  5 active torsions:
REMARK  status: ('A' for Active; 'I' for Inactive)
REMARK    1  A    between atoms: C2_2  and  C3_3 
REMARK    2  A    between atoms: C3_3  and  C12_19 
REMARK    3  A    between atoms: C4_4  and  C5_5 
REMARK    4  A    between atoms: C7_11  and  N3_12 
REMARK    5  A    between atoms: C8_15  and  C9_16 
ROOT
HETATM    1  C5  UNL     1       9.923   6.394  23.921  1.00  0.00     0.043 A 
HETATM    2  N1  UNL     1       9.801   5.542  24.890  1.00  0.00    -0.352 N 
ATOM      3  H1  UNL     1      10.470   4.774  24.933  1.00  0.00     0.166 HD
HETATM    4  C6  UNL     1       8.847   5.600  25.849  1.00  0.00     0.182 A 
HETATM    5  N2  UNL     1       7.950   6.608  25.795  1.00  0.00    -0.338 N 
ATOM      6  H2  UNL     1       7.211   6.691  26.493  1.00  0.00     0.168 HD
HETATM    7  C7  UNL     1       8.059   7.497  24.795  1.00  0.00     0.108 A 
HETATM    8  C8  UNL     1       8.996   7.474  23.811  1.00  0.00     0.016 A 
ENDROOT
BRANCH   1   9
HETATM    9  C4  UNL     1      10.983   6.391  22.935  1.00  0.00     0.033 C 
HETATM   10  C3  UNL     1      11.103   5.626  21.882  1.00  0.00    -0.070 C 
BRANCH  10  11
HETATM   11  C2  UNL     1      12.339   5.870  21.034  1.00  0.00     0.030 C 
HETATM   12  C1  UNL     1      13.575   5.915  21.910  1.00  0.00     0.010 C 
ENDBRANCH  10  11
BRANCH  10  13
HETATM   13  C12 UNL     1      10.123   4.626  21.531  1.00  0.00    -0.028 C 
HETATM   14  C13 UNL     1       8.744   5.226  21.443  1.00  0.00     0.019 C 
HETATM   15  C14 UNL     1      10.225   3.315  22.273  1.00  0.00     0.019 C 
HETATM   16  C15 UNL     1      10.370   4.167  20.043  1.00  0.00     0.019 C 
ENDBRANCH  10  13
ENDBRANCH   1   9
BRANCH   8  17
HETATM   17  C9  UNL     1       9.121   8.473  22.759  1.00  0.00     0.016 C 
HETATM   18  C10 UNL     1       7.766   8.695  22.107  1.00  0.00     0.015 C 
HETATM   19  C11 UNL     1       9.548   9.804  23.388  1.00  0.00     0.015 C 
ENDBRANCH   8  17
BRANCH   7  20
HETATM   20  N3  UNL     1       7.213   8.493  24.907  1.00  0.00    -0.385 N 
ATOM     21  H32 UNL     1       7.231   9.114  25.716  1.00  0.00     0.157 HD
ATOM     22  H31 UNL     1       6.521   8.508  24.158  1.00  0.00     0.157 HD
ENDBRANCH   7  20
TORSDOF 5
ENDMDL
MODEL 4
REMARK VINA RESULT: -6.422716327      1.311      2.637
REMARK  5 active torsions:
REMARK  status: ('A' for Active; 'I' for Inactive)
REMARK    1  A    between atoms: C2_2  and  C3_3 
REMARK    2  A    between atoms: C3_3  and  C12_19 
REMARK    3  A    between atoms: C4_4  and  C5_5 
REMARK    4  A    between atoms: C7_11  and  N3_12 
REMARK    5  A    between atoms: C8_15  and  C9_16 
ROOT
HETATM    1  C5  UNL     1      10.167   4.965  22.280  1.00  0.00     0.043 A 
HETATM    2  N1  UNL     1       9.327   4.363  21.496  1.00  0.00    -0.352 N 
ATOM      3  H1  UNL     1       8.416   4.113  21.880  1.00  0.00     0.166 HD
HETATM    4  C6  UNL     1       9.575   4.043  20.205  1.00  0.00     0.182 A 
HETATM    5  N2  UNL     1      10.783   4.361  19.691  1.00  0.00    -0.338 N 
ATOM      6  H2  UNL     1      11.017   4.136  18.724  1.00  0.00     0.168 HD
HETATM    7  C7  UNL     1      11.666   4.980  20.490  1.00  0.00     0.108 A 
HETATM    8  C8  UNL     1      11.461   5.316  21.790  1.00  0.00     0.016 A 
ENDROOT
BRANCH   1   9
HETATM    9  C4  UNL     1       9.888   5.384  23.637  1.00  0.00     0.033 C 
HETATM   10  C3  UNL     1       9.182   6.409  24.035  1.00  0.00    -0.070 C 
BRANCH  10  11
HETATM   11  C2  UNL     1       9.071   6.582  25.539  1.00  0.00     0.030 C 
HETATM   12  C1  UNL     1       9.817   5.471  26.250  1.00  0.00     0.010 C 
ENDBRANCH  10  11
BRANCH  10  13
HETATM   13  C12 UNL     1       8.532   7.311  23.114  1.00  0.00    -0.028 C 
HETATM   14  C13 UNL     1       7.594   6.569  22.199  1.00  0.00     0.019 C 
HETATM   15  C14 UNL     1       9.425   8.333  22.453  1.00  0.00     0.019 C 
HETATM   16  C15 UNL     1       7.537   8.234  23.917  1.00  0.00     0.019 C 
ENDBRANCH  10  13
ENDBRANCH   1   9
BRANCH   8  17
HETATM   17  C9  UNL     1      12.418   6.025  22.627  1.00  0.00     0.016 C 
HETATM   18  C10 UNL     1      13.829   5.597  22.257  1.00  0.00     0.015 C 
HETATM   19  C11 UNL     1      12.308   7.527  22.341  1.00  0.00     0.015 C 
ENDBRANCH   8  17
BRANCH   7  20
HETATM   20  N3  UNL     1      12.755   5.344  19.856  1.00  0.00    -0.385 N 
ATOM     21  H32 UNL     1      12.830   6.261  19.416  1.00  0.00     0.157 HD
ATOM     22  H31 UNL     1      13.445   4.596  19.795  1.00  0.00     0.157 HD
ENDBRANCH   7  20
TORSDOF 5
ENDMDL
MODEL 5
REMARK VINA RESULT: -6.268877207      2.452      5.183
REMARK  5 active torsions:
REMARK  status: ('A' for Active; 'I' for Inactive)
REMARK    1  A    between atoms: C2_2  and  C3_3 
REMARK    2  A    between atoms: C3_3  and  C12_19 
REMARK    3  A    between atoms: C4_4  and  C5_5 
REMARK    4  A    between atoms: C7_11  and  N3_12 
REMARK    5  A    between atoms: C8_15  and  C9_16 
ROOT
HETATM    1  C5  UNL     1       9.020   5.811  23.725  1.00  0.00     0.043 A 
HETATM    2  N1  UNL     1       9.184   5.297  24.904  1.00  0.00    -0.352 N 
ATOM      3  H1  UNL     1       9.749   4.451  24.979  1.00  0.00     0.166 HD
HETATM    4  C6  UNL     1       8.656   5.804  26.043  1.00  0.00     0.182 A 
HETATM    5  N2  UNL     1       7.898   6.918  25.953  1.00  0.00    -0.338 N 
ATOM      6  H2  UNL     1       7.476   7.334  26.783  1.00  0.00     0.168 HD
HETATM    7  C7  UNL     1       7.715   7.460  24.739  1.00  0.00     0.108 A 
HETATM    8  C8  UNL     1       8.221   6.984  23.572  1.00  0.00     0.016 A 
ENDROOT
BRANCH   1   9
HETATM    9  C4  UNL     1       9.642   5.327  22.511  1.00  0.00     0.033 C 
HETATM   10  C3  UNL     1      10.825   5.620  22.038  1.00  0.00    -0.070 C 
BRANCH  10  11
HETATM   11  C2  UNL     1      11.194   4.941  20.731  1.00  0.00     0.030 C 
HETATM   12  C1  UNL     1      10.021   4.134  20.212  1.00  0.00     0.010 C 
ENDBRANCH  10  11
BRANCH  10  13
HETATM   13  C12 UNL     1      11.734   6.513  22.717  1.00  0.00    -0.028 C 
HETATM   14  C13 UNL     1      11.915   6.112  24.157  1.00  0.00     0.019 C 
HETATM   15  C14 UNL     1      11.519   7.986  22.465  1.00  0.00     0.019 C 
HETATM   16  C15 UNL     1      13.185   6.303  22.138  1.00  0.00     0.019 C 
ENDBRANCH  10  13
ENDBRANCH   1   9
BRANCH   8  17
HETATM   17  C9  UNL     1       8.044   7.613  22.271  1.00  0.00     0.016 C 
HETATM   18  C10 UNL     1       6.633   7.351  21.770  1.00  0.00     0.015 C 
HETATM   19  C11 UNL     1       8.199   9.129  22.429  1.00  0.00     0.015 C 
ENDBRANCH   8  17
BRANCH   7  20
HETATM   20  N3  UNL     1       7.064   8.598  24.785  1.00  0.00    -0.385 N 
ATOM     21  H32 UNL     1       6.452   8.827  25.568  1.00  0.00     0.157 HD
ATOM     22  H31 UNL     1       7.182   9.154  23.938  1.00  0.00     0.157 HD
ENDBRANCH   7  20
TORSDOF 5
ENDMDL
