MODEL 1
REMARK VINA RESULT: -6.201425973      0.000      0.000
REMARK  6 active torsions:
REMARK  status: ('A' for Active; 'I' for Inactive)
REMARK    1  A    between atoms: O1_2  and  C2_3 
REMARK    2  A    between atoms: C5_8  and  O4_9 
REMARK    3  A    between atoms: C6_11  and  O5_12 
REMARK    4  A    between atoms: C10_16  and  O6_17 
REMARK    5  A    between atoms: C15_24  and  C16_25 
REMARK    6  A    between atoms: C16_25  and  C17_26 
ROOT
HETATM    1  C2  UNL     1      19.494  25.665  31.945  1.00  0.00     0.265 C 
HETATM    2  O2  UNL     1      18.826  24.773  31.069  1.00  0.00    -0.358 OA
HETATM    3  C3  UNL     1      19.059  25.256  29.808  1.00  0.00     0.218 C 
HETATM    4  C4  UNL     1      20.344  24.668  29.297  1.00  0.00     0.177 A 
HETATM    5  O3  UNL     1      20.684  25.260  28.096  1.00  0.00    -0.328 OA
HETATM    6  C5  UNL     1      21.480  25.421  29.155  1.00  0.00     0.227 A 
HETATM    7  C6  UNL     1      21.555  26.558  30.118  1.00  0.00     0.187 C 
HETATM    8  C8  UNL     1      21.953  25.909  31.425  1.00  0.00     0.049 C 
HETATM    9  C9  UNL     1      20.922  25.148  32.144  1.00  0.00     0.073 C 
HETATM   10  C10 UNL     1      20.971  23.676  32.135  1.00  0.00     0.138 C 
HETATM   11  C11 UNL     1      20.552  22.853  31.051  1.00  0.00     0.079 C 
HETATM   12  C12 UNL     1      21.387  21.630  30.968  1.00  0.00     0.015 C 
HETATM   13  C13 UNL     1      22.074  21.639  29.862  1.00  0.00     0.040 C 
HETATM   14  C14 UNL     1      23.052  20.565  29.397  1.00  0.00     0.076 C 
HETATM   15  O7  UNL     1      21.769  22.796  29.176  1.00  0.00    -0.341 OA
HETATM   16  C15 UNL     1      20.491  23.276  29.643  1.00  0.00     0.118 C 
ENDROOT
BRANCH  16  17
HETATM   17  C16 UNL     1      19.554  22.402  28.806  1.00  0.00     0.070 C 
BRANCH  17  18
HETATM   18  C17 UNL     1      19.889  22.448  27.382  1.00  0.00    -0.022 C 
HETATM   19  C18 UNL     1      19.419  21.696  26.413  1.00  0.00    -0.091 C 
HETATM   20  C19 UNL     1      18.414  20.609  26.605  1.00  0.00     0.042 C 
HETATM   21  C20 UNL     1      19.872  21.875  24.981  1.00  0.00     0.042 C 
ENDBRANCH  17  18
ENDBRANCH  16  17
BRANCH   6  22
HETATM   22  O4  UNL     1      22.749  24.854  28.987  1.00  0.00    -0.361 OA
ATOM     23  H4  UNL     1      23.512  25.364  28.742  1.00  0.00     0.213 HD
ENDBRANCH   6  22
BRANCH  10  24
HETATM   24  O6  UNL     1      22.298  23.328  32.522  1.00  0.00    -0.394 OA
ATOM     25  H6  UNL     1      22.327  23.424  33.467  1.00  0.00     0.210 HD
ENDBRANCH  10  24
BRANCH   7  26
HETATM   26  O5  UNL     1      22.692  27.318  29.741  1.00  0.00    -0.385 OA
HETATM   27  C7  UNL     1      22.361  28.282  28.784  1.00  0.00     0.202 C 
ENDBRANCH   7  26
BRANCH   1  28
HETATM   28  O1  UNL     1      18.749  25.572  33.135  1.00  0.00    -0.366 OA
HETATM   29  C1  UNL     1      18.960  26.675  33.954  1.00  0.00     0.204 C 
ENDBRANCH   1  28
TORSDOF 6
ENDMDL
MODEL 2
REMARK VINA RESULT: -6.045433407      1.857      4.314
REMARK  6 active torsions:
REMARK  status: ('A' for Active; 'I' for Inactive)
REMARK    1  A    between atoms: O1_2  and  C2_3 
REMARK    2  A    between atoms: C5_8  and  O4_9 
REMARK    3  A    between atoms: C6_11  and  O5_12 
REMARK    4  A    between atoms: C10_16  and  O6_17 
REMARK    5  A    between atoms: C15_24  and  C16_25 
REMARK    6  A    between atoms: C16_25  and  C17_26 
ROOT
HETATM    1  C2  UNL     1      18.877  23.428  31.355  1.00  0.00     0.265 C 
HETATM    2  O2  UNL     1      19.036  24.487  30.426  1.00  0.00    -0.358 OA
HETATM    3  C3  UNL     1      20.252  25.049  30.717  1.00  0.00     0.218 C 
HETATM    4  C4  UNL     1      21.316  24.320  29.945  1.00  0.00     0.177 A 
HETATM    5  O3  UNL     1      22.565  24.760  30.342  1.00  0.00    -0.328 OA
HETATM    6  C5  UNL     1      22.217  23.491  30.560  1.00  0.00     0.227 A 
HETATM    7  C6  UNL     1      21.681  22.856  31.799  1.00  0.00     0.187 C 
HETATM    8  C8  UNL     1      20.772  21.760  31.289  1.00  0.00     0.049 C 
HETATM    9  C9  UNL     1      19.473  22.162  30.731  1.00  0.00     0.073 C 
HETATM   10  C10 UNL     1      19.271  22.130  29.273  1.00  0.00     0.138 C 
HETATM   11  C11 UNL     1      19.753  23.113  28.361  1.00  0.00     0.079 C 
HETATM   12  C12 UNL     1      20.110  22.493  27.062  1.00  0.00     0.015 C 
HETATM   13  C13 UNL     1      21.393  22.597  26.861  1.00  0.00     0.040 C 
HETATM   14  C14 UNL     1      22.162  22.089  25.647  1.00  0.00     0.076 C 
HETATM   15  O7  UNL     1      21.945  23.249  27.944  1.00  0.00    -0.341 OA
HETATM   16  C15 UNL     1      20.902  23.999  28.602  1.00  0.00     0.118 C 
ENDROOT
BRANCH  16  17
HETATM   17  C16 UNL     1      20.875  25.251  27.723  1.00  0.00     0.070 C 
BRANCH  17  18
HETATM   18  C17 UNL     1      22.221  25.671  27.328  1.00  0.00    -0.022 C 
HETATM   19  C18 UNL     1      22.868  26.758  27.683  1.00  0.00    -0.091 C 
HETATM   20  C19 UNL     1      22.317  27.805  28.593  1.00  0.00     0.042 C 
HETATM   21  C20 UNL     1      24.266  27.045  27.182  1.00  0.00     0.042 C 
ENDBRANCH  17  18
ENDBRANCH  16  17
BRANCH   6  22
HETATM   22  O4  UNL     1      23.003  22.570  29.855  1.00  0.00    -0.361 OA
ATOM     23  H4  UNL     1      22.728  22.184  29.033  1.00  0.00     0.213 HD
ENDBRANCH   6  22
BRANCH  10  24
HETATM   24  O6  UNL     1      19.686  20.834  28.851  1.00  0.00    -0.394 OA
ATOM     25  H6  UNL     1      19.508  20.794  27.919  1.00  0.00     0.210 HD
ENDBRANCH  10  24
BRANCH   7  26
HETATM   26  O5  UNL     1      22.770  22.165  32.390  1.00  0.00    -0.385 OA
HETATM   27  C7  UNL     1      22.349  20.972  32.984  1.00  0.00     0.202 C 
ENDBRANCH   7  26
BRANCH   1  28
HETATM   28  O1  UNL     1      17.481  23.320  31.489  1.00  0.00    -0.366 OA
HETATM   29  C1  UNL     1      17.134  22.332  32.404  1.00  0.00     0.204 C 
ENDBRANCH   1  28
TORSDOF 6
ENDMDL
MODEL 3
REMARK VINA RESULT: -5.984503566      1.477      1.988
REMARK  6 active torsions:
REMARK  status: ('A' for Active; 'I' for Inactive)
REMARK    1  A    between atoms: O1_2  and  C2_3 
REMARK    2  A    between atoms: C5_8  and  O4_9 
REMARK    3  A    between atoms: C6_11  and  O5_12 
REMARK    4  A    between atoms: C10_16  and  O6_17 
REMARK    5  A    between atoms: C15_24  and  C16_25 
REMARK    6  A    between atoms: C16_25  and  C17_26 
ROOT
HETATM    1  C2  UNL     1      19.779  24.334  30.814  1.00  0.00     0.265 C 
HETATM    2  O2  UNL     1      19.196  23.873  29.607  1.00  0.00    -0.358 OA
HETATM    3  C3  UNL     1      19.374  24.890  28.704  1.00  0.00     0.218 C 
HETATM    4  C4  UNL     1      20.707  24.710  28.034  1.00  0.00     0.177 A 
HETATM    5  O3  UNL     1      20.981  25.806  27.238  1.00  0.00    -0.328 OA
HETATM    6  C5  UNL     1      21.763  25.546  28.287  1.00  0.00     0.227 A 
HETATM    7  C6  UNL     1      21.733  26.132  29.659  1.00  0.00     0.187 C 
HETATM    8  C8  UNL     1      22.199  25.004  30.553  1.00  0.00     0.049 C 
HETATM    9  C9  UNL     1      21.252  23.912  30.816  1.00  0.00     0.073 C 
HETATM   10  C10 UNL     1      21.443  22.612  30.153  1.00  0.00     0.138 C 
HETATM   11  C11 UNL     1      21.101  22.328  28.799  1.00  0.00     0.079 C 
HETATM   12  C12 UNL     1      22.049  21.353  28.211  1.00  0.00     0.015 C 
HETATM   13  C13 UNL     1      22.726  21.918  27.253  1.00  0.00     0.040 C 
HETATM   14  C14 UNL     1      23.801  21.259  26.395  1.00  0.00     0.076 C 
HETATM   15  O7  UNL     1      22.306  23.227  27.145  1.00  0.00    -0.341 OA
HETATM   16  C15 UNL     1      20.990  23.330  27.727  1.00  0.00     0.118 C 
ENDROOT
BRANCH  16  17
HETATM   17  C16 UNL     1      20.137  22.844  26.553  1.00  0.00     0.070 C 
BRANCH  17  18
HETATM   18  C17 UNL     1      19.246  21.749  26.941  1.00  0.00    -0.022 C 
HETATM   19  C18 UNL     1      18.529  20.972  26.161  1.00  0.00    -0.091 C 
HETATM   20  C19 UNL     1      18.496  21.075  24.672  1.00  0.00     0.042 C 
HETATM   21  C20 UNL     1      17.653  19.876  26.726  1.00  0.00     0.042 C 
ENDBRANCH  17  18
ENDBRANCH  16  17
BRANCH   6  22
HETATM   22  O4  UNL     1      23.081  25.230  27.933  1.00  0.00    -0.361 OA
ATOM     23  H4  UNL     1      23.424  24.345  27.969  1.00  0.00     0.213 HD
ENDBRANCH   6  22
BRANCH  10  24
HETATM   24  O6  UNL     1      22.800  22.248  30.394  1.00  0.00    -0.394 OA
ATOM     25  H6  UNL     1      22.844  21.308  30.263  1.00  0.00     0.210 HD
ENDBRANCH  10  24
BRANCH   7  26
HETATM   26  O5  UNL     1      22.789  27.079  29.705  1.00  0.00    -0.385 OA
HETATM   27  C7  UNL     1      22.366  28.330  29.250  1.00  0.00     0.202 C 
ENDBRANCH   7  26
BRANCH   1  28
HETATM   28  O1  UNL     1      19.053  23.651  31.807  1.00  0.00    -0.366 OA
HETATM   29  C1  UNL     1      19.417  24.072  33.082  1.00  0.00     0.204 C 
ENDBRANCH   1  28
TORSDOF 6
ENDMDL
MODEL 4
REMARK VINA RESULT: -5.936065590      1.826      4.212
REMARK  6 active torsions:
REMARK  status: ('A' for Active; 'I' for Inactive)
REMARK    1  A    between atoms: O1_2  and  C2_3 
REMARK    2  A    between atoms: C5_8  and  O4_9 
REMARK    3  A    between atoms: C6_11  and  O5_12 
REMARK    4  A    between atoms: C10_16  and  O6_17 
REMARK    5  A    between atoms: C15_24  and  C16_25 
REMARK    6  A    between atoms: C16_25  and  C17_26 
ROOT
HETATM    1  C2  UNL     1      21.826  25.574  29.883  1.00  0.00     0.265 C 
HETATM    2  O2  UNL     1      22.519  24.386  29.539  1.00  0.00    -0.358 OA
HETATM    3  C3  UNL     1      22.207  23.483  30.522  1.00  0.00     0.218 C 
HETATM    4  C4  UNL     1      20.946  22.764  30.132  1.00  0.00     0.177 A 
HETATM    5  O3  UNL     1      20.522  21.965  31.177  1.00  0.00    -0.328 OA
HETATM    6  C5  UNL     1      19.758  22.983  30.778  1.00  0.00     0.227 A 
HETATM    7  C6  UNL     1      19.643  24.358  31.346  1.00  0.00     0.187 C 
HETATM    8  C8  UNL     1      19.339  25.228  30.146  1.00  0.00     0.049 C 
HETATM    9  C9  UNL     1      20.444  25.520  29.223  1.00  0.00     0.073 C 
HETATM   10  C10 UNL     1      20.494  24.843  27.917  1.00  0.00     0.138 C 
HETATM   11  C11 UNL     1      20.926  23.501  27.709  1.00  0.00     0.079 C 
HETATM   12  C12 UNL     1      20.174  22.873  26.597  1.00  0.00     0.015 C 
HETATM   13  C13 UNL     1      19.446  21.895  27.053  1.00  0.00     0.040 C 
HETATM   14  C14 UNL     1      18.526  20.995  26.236  1.00  0.00     0.076 C 
HETATM   15  O7  UNL     1      19.647  21.809  28.415  1.00  0.00    -0.341 OA
HETATM   16  C15 UNL     1      20.907  22.440  28.728  1.00  0.00     0.118 C 
ENDROOT
BRANCH  16  17
HETATM   17  C16 UNL     1      21.869  21.295  28.403  1.00  0.00     0.070 C 
BRANCH  17  18
HETATM   18  C17 UNL     1      22.947  21.723  27.511  1.00  0.00    -0.022 C 
HETATM   19  C18 UNL     1      23.334  21.172  26.383  1.00  0.00    -0.091 C 
HETATM   20  C19 UNL     1      22.711  19.954  25.786  1.00  0.00     0.042 C 
HETATM   21  C20 UNL     1      24.476  21.744  25.573  1.00  0.00     0.042 C 
ENDBRANCH  17  18
ENDBRANCH  16  17
BRANCH   6  22
HETATM   22  O4  UNL     1      18.524  22.580  30.253  1.00  0.00    -0.361 OA
ATOM     23  H4  UNL     1      17.750  22.465  30.790  1.00  0.00     0.213 HD
ENDBRANCH   6  22
BRANCH  10  24
HETATM   24  O6  UNL     1      19.209  25.033  27.331  1.00  0.00    -0.394 OA
ATOM     25  H6  UNL     1      18.614  25.188  28.054  1.00  0.00     0.210 HD
ENDBRANCH  10  24
BRANCH   7  26
HETATM   26  O5  UNL     1      18.443  24.371  32.104  1.00  0.00    -0.385 OA
HETATM   27  C7  UNL     1      18.094  25.673  32.474  1.00  0.00     0.202 C 
ENDBRANCH   7  26
BRANCH   1  28
HETATM   28  O1  UNL     1      22.620  26.589  29.318  1.00  0.00    -0.366 OA
HETATM   29  C1  UNL     1      22.226  27.847  29.762  1.00  0.00     0.204 C 
ENDBRANCH   1  28
TORSDOF 6
ENDMDL
MODEL 5
REMARK VINA RESULT: -5.884168900      2.065      5.851
REMARK  6 active torsions:
REMARK  status: ('A' for Active; 'I' for Inactive)
REMARK    1  A    between atoms: O1_2  and  C2_3 
REMARK    2  A    between atoms: C5_8  and  O4_9 
REMARK    3  A    between atoms: C6_11  and  O5_12 
REMARK    4  A    between atoms: C10_16  and  O6_17 
REMARK    5  A    between atoms: C15_24  and  C16_25 
REMARK    6  A    between atoms: C16_25  and  C17_26 
ROOT
HETATM    1  C2  UNL     1      21.552  20.033  28.144  1.00  0.00     0.265 C 
HETATM    2  O2  UNL     1      22.369  20.978  28.816  1.00  0.00    -0.358 OA
HETATM    3  C3  UNL     1      22.647  21.947  27.887  1.00  0.00     0.218 C 
HETATM    4  C4  UNL     1      21.557  22.981  27.928  1.00  0.00     0.177 A 
HETATM    5  O3  UNL     1      21.728  23.882  26.894  1.00  0.00    -0.328 OA
HETATM    6  C5  UNL     1      20.641  23.109  26.917  1.00  0.00     0.227 A 
HETATM    7  C6  UNL     1      20.376  21.828  26.199  1.00  0.00     0.187 C 
HETATM    8  C8  UNL     1      19.475  21.058  27.139  1.00  0.00     0.049 C 
HETATM    9  C9  UNL     1      20.092  20.458  28.329  1.00  0.00     0.073 C 
HETATM   10  C10 UNL     1      19.871  21.075  29.648  1.00  0.00     0.138 C 
HETATM   11  C11 UNL     1      20.536  22.241  30.124  1.00  0.00     0.079 C 
HETATM   12  C12 UNL     1      19.640  23.036  30.999  1.00  0.00     0.015 C 
HETATM   13  C13 UNL     1      19.384  24.184  30.441  1.00  0.00     0.040 C 
HETATM   14  C14 UNL     1      18.505  25.291  31.013  1.00  0.00     0.076 C 
HETATM   15  O7  UNL     1      20.046  24.232  29.232  1.00  0.00    -0.341 OA
HETATM   16  C15 UNL     1      21.132  23.282  29.272  1.00  0.00     0.118 C 
ENDROOT
BRANCH  16  17
HETATM   17  C16 UNL     1      22.187  24.111  30.007  1.00  0.00     0.070 C 
BRANCH  17  18
HETATM   18  C17 UNL     1      22.340  25.444  29.422  1.00  0.00    -0.022 C 
HETATM   19  C18 UNL     1      22.179  26.610  30.005  1.00  0.00    -0.091 C 
HETATM   20  C19 UNL     1      21.792  26.788  31.436  1.00  0.00     0.042 C 
HETATM   21  C20 UNL     1      22.379  27.906  29.252  1.00  0.00     0.042 C 
ENDBRANCH  17  18
ENDBRANCH  16  17
BRANCH   6  22
HETATM   22  O4  UNL     1      19.449  23.829  27.061  1.00  0.00    -0.361 OA
ATOM     23  H4  UNL     1      18.731  23.764  26.443  1.00  0.00     0.213 HD
ENDBRANCH   6  22
BRANCH  10  24
HETATM   24  O6  UNL     1      18.460  21.239  29.769  1.00  0.00    -0.394 OA
ATOM     25  H6  UNL     1      18.086  20.377  29.632  1.00  0.00     0.210 HD
ENDBRANCH  10  24
BRANCH   7  26
HETATM   26  O5  UNL     1      19.541  22.158  25.101  1.00  0.00    -0.385 OA
HETATM   27  C7  UNL     1      18.612  21.144  24.849  1.00  0.00     0.202 C 
ENDBRANCH   7  26
BRANCH   1  28
HETATM   28  O1  UNL     1      21.822  18.830  28.821  1.00  0.00    -0.366 OA
HETATM   29  C1  UNL     1      22.966  18.215  28.324  1.00  0.00     0.204 C 
ENDBRANCH   1  28
TORSDOF 6
ENDMDL
