MODEL 1
REMARK VINA RESULT: -5.536486340      0.000      0.000
REMARK  4 active torsions:
REMARK  status: ('A' for Active; 'I' for Inactive)
REMARK    1  A    between atoms: C5_5  and  C6_6 
REMARK    2  A    between atoms: C6_6  and  C7_7 
REMARK    3  A    between atoms: C7_7  and  N1_8 
REMARK    4  A    between atoms: N3_15  and  N4_17 
ROOT
HETATM    1  N1  UNL     1     -41.958  17.019  16.630  1.00  0.00    -0.395 N 
ATOM      2  H1  UNL     1     -42.261  16.330  17.318  1.00  0.00     0.159 HD
HETATM    3  C8  UNL     1     -42.191  18.256  16.865  1.00  0.00     0.007 C 
HETATM    4  C9  UNL     1     -41.812  19.366  15.966  1.00  0.00     0.173 C 
HETATM    5  N2  UNL     1     -42.614  20.487  16.412  1.00  0.00    -0.373 N 
ATOM      6  H2  UNL     1     -42.779  21.336  15.870  1.00  0.00     0.161 HD
HETATM    7  C10 UNL     1     -43.137  20.243  17.706  1.00  0.00     0.096 C 
HETATM    8  N3  UNL     1     -43.737  21.076  18.457  1.00  0.00    -0.295 N 
ATOM      9  H3  UNL     1     -44.066  20.764  19.370  1.00  0.00     0.187 HD
HETATM   10  C11 UNL     1     -42.869  18.822  18.051  1.00  0.00     0.131 C 
ENDROOT
BRANCH   1  11
HETATM   11  C7  UNL     1     -41.301  16.562  15.465  1.00  0.00     0.121 C 
BRANCH  11  12
HETATM   12  C6  UNL     1     -40.171  15.599  15.764  1.00  0.00     0.044 C 
BRANCH  12  13
HETATM   13  C5  UNL     1     -38.864  16.378  15.863  1.00  0.00     0.078 C 
HETATM   14  C4  UNL     1     -37.711  15.436  16.056  1.00  0.00     0.025 C 
HETATM   15  C3  UNL     1     -36.494  15.877  15.272  1.00  0.00     0.008 C 
HETATM   16  C2  UNL     1     -36.890  15.918  13.819  1.00  0.00    -0.001 C 
HETATM   17  C1  UNL     1     -37.117  14.491  13.309  1.00  0.00     0.011 C 
HETATM   18  C12 UNL     1     -38.130  16.735  13.588  1.00  0.00     0.118 C 
HETATM   19  N5  UNL     1     -38.695  17.292  14.779  1.00  0.00    -0.417 N 
ATOM     20  H5  UNL     1     -38.958  18.275  14.849  1.00  0.00     0.153 HD
ENDBRANCH  12  13
ENDBRANCH  11  12
ENDBRANCH   1  11
BRANCH   8  21
HETATM   21  N4  UNL     1     -43.963  22.403  18.081  1.00  0.00    -0.344 N 
ATOM     22  H42 UNL     1     -43.291  23.104  18.394  1.00  0.00     0.176 HD
ATOM     23  H41 UNL     1     -44.763  22.686  17.515  1.00  0.00     0.176 HD
ENDBRANCH   8  21
TORSDOF 4
ENDMDL
MODEL 2
REMARK VINA RESULT: -5.456096185      0.704      1.088
REMARK  4 active torsions:
REMARK  status: ('A' for Active; 'I' for Inactive)
REMARK    1  A    between atoms: C5_5  and  C6_6 
REMARK    2  A    between atoms: C6_6  and  C7_7 
REMARK    3  A    between atoms: C7_7  and  N1_8 
REMARK    4  A    between atoms: N3_15  and  N4_17 
ROOT
HETATM    1  N1  UNL     1     -41.617  17.423  15.959  1.00  0.00    -0.395 N 
ATOM      2  H1  UNL     1     -41.388  17.638  14.989  1.00  0.00     0.159 HD
HETATM    3  C8  UNL     1     -42.249  18.301  16.643  1.00  0.00     0.007 C 
HETATM    4  C9  UNL     1     -42.650  18.135  18.055  1.00  0.00     0.173 C 
HETATM    5  N2  UNL     1     -42.944  19.478  18.513  1.00  0.00    -0.373 N 
ATOM      6  H2  UNL     1     -43.018  19.755  19.492  1.00  0.00     0.161 HD
HETATM    7  C10 UNL     1     -43.114  20.354  17.412  1.00  0.00     0.096 C 
HETATM    8  N3  UNL     1     -43.542  21.551  17.448  1.00  0.00    -0.295 N 
ATOM      9  H3  UNL     1     -43.614  22.072  16.574  1.00  0.00     0.187 HD
HETATM   10  C11 UNL     1     -42.700  19.632  16.180  1.00  0.00     0.131 C 
ENDROOT
BRANCH   1  11
HETATM   11  C7  UNL     1     -41.221  16.171  16.482  1.00  0.00     0.121 C 
BRANCH  11  12
HETATM   12  C6  UNL     1     -40.135  15.505  15.662  1.00  0.00     0.044 C 
BRANCH  12  13
HETATM   13  C5  UNL     1     -38.851  16.317  15.781  1.00  0.00     0.078 C 
HETATM   14  C4  UNL     1     -37.682  15.408  16.025  1.00  0.00     0.025 C 
HETATM   15  C3  UNL     1     -36.454  15.862  15.265  1.00  0.00     0.008 C 
HETATM   16  C2  UNL     1     -36.810  15.864  13.801  1.00  0.00    -0.001 C 
HETATM   17  C1  UNL     1     -36.988  14.423  13.315  1.00  0.00     0.011 C 
HETATM   18  C12 UNL     1     -38.062  16.647  13.520  1.00  0.00     0.118 C 
HETATM   19  N5  UNL     1     -38.672  17.213  14.683  1.00  0.00    -0.417 N 
ATOM     20  H5  UNL     1     -38.960  18.191  14.725  1.00  0.00     0.153 HD
ENDBRANCH  12  13
ENDBRANCH  11  12
ENDBRANCH   1  11
BRANCH   8  21
HETATM   21  N4  UNL     1     -43.919  22.182  18.637  1.00  0.00    -0.344 N 
ATOM     22  H42 UNL     1     -43.239  22.202  19.397  1.00  0.00     0.176 HD
ATOM     23  H41 UNL     1     -44.834  22.613  18.765  1.00  0.00     0.176 HD
ENDBRANCH   8  21
TORSDOF 4
ENDMDL
MODEL 3
REMARK VINA RESULT: -5.415231532      1.569      2.197
REMARK  4 active torsions:
REMARK  status: ('A' for Active; 'I' for Inactive)
REMARK    1  A    between atoms: C5_5  and  C6_6 
REMARK    2  A    between atoms: C6_6  and  C7_7 
REMARK    3  A    between atoms: C7_7  and  N1_8 
REMARK    4  A    between atoms: N3_15  and  N4_17 
ROOT
HETATM    1  N1  UNL     1     -41.250  19.134  15.235  1.00  0.00    -0.395 N 
ATOM      2  H1  UNL     1     -41.041  20.113  15.041  1.00  0.00     0.159 HD
HETATM    3  C8  UNL     1     -42.114  18.864  16.139  1.00  0.00     0.007 C 
HETATM    4  C9  UNL     1     -42.521  17.498  16.530  1.00  0.00     0.173 C 
HETATM    5  N2  UNL     1     -43.168  17.663  17.816  1.00  0.00    -0.373 N 
ATOM      6  H2  UNL     1     -43.353  16.906  18.474  1.00  0.00     0.161 HD
HETATM    7  C10 UNL     1     -43.508  19.021  18.032  1.00  0.00     0.096 C 
HETATM    8  N3  UNL     1     -44.229  19.487  18.971  1.00  0.00    -0.295 N 
ATOM      9  H3  UNL     1     -44.393  20.493  19.010  1.00  0.00     0.187 HD
HETATM   10  C11 UNL     1     -42.870  19.833  16.964  1.00  0.00     0.131 C 
ENDROOT
BRANCH   1  11
HETATM   11  C7  UNL     1     -40.571  18.142  14.491  1.00  0.00     0.121 C 
BRANCH  11  12
HETATM   12  C6  UNL     1     -39.126  17.971  14.917  1.00  0.00     0.044 C 
BRANCH  12  13
HETATM   13  C5  UNL     1     -38.913  16.538  15.391  1.00  0.00     0.078 C 
HETATM   14  C4  UNL     1     -39.285  15.570  14.306  1.00  0.00     0.025 C 
HETATM   15  C3  UNL     1     -38.328  14.399  14.250  1.00  0.00     0.008 C 
HETATM   16  C2  UNL     1     -36.953  14.960  13.993  1.00  0.00    -0.001 C 
HETATM   17  C1  UNL     1     -36.884  15.515  12.568  1.00  0.00     0.011 C 
HETATM   18  C12 UNL     1     -36.585  16.040  14.971  1.00  0.00     0.118 C 
HETATM   19  N5  UNL     1     -37.605  16.335  15.929  1.00  0.00    -0.417 N 
ATOM     20  H5  UNL     1     -37.412  16.396  16.929  1.00  0.00     0.153 HD
ENDBRANCH  12  13
ENDBRANCH  11  12
ENDBRANCH   1  11
BRANCH   8  21
HETATM   21  N4  UNL     1     -44.805  18.676  19.952  1.00  0.00    -0.344 N 
ATOM     22  H42 UNL     1     -44.204  18.346  20.707  1.00  0.00     0.176 HD
ATOM     23  H41 UNL     1     -45.790  18.409  19.937  1.00  0.00     0.176 HD
ENDBRANCH   8  21
TORSDOF 4
ENDMDL
MODEL 4
REMARK VINA RESULT: -5.388034622      2.528      3.040
REMARK  4 active torsions:
REMARK  status: ('A' for Active; 'I' for Inactive)
REMARK    1  A    between atoms: C5_5  and  C6_6 
REMARK    2  A    between atoms: C6_6  and  C7_7 
REMARK    3  A    between atoms: C7_7  and  N1_8 
REMARK    4  A    between atoms: N3_15  and  N4_17 
ROOT
HETATM    1  N1  UNL     1     -42.073  16.764  15.973  1.00  0.00    -0.395 N 
ATOM      2  H1  UNL     1     -42.763  16.033  16.146  1.00  0.00     0.159 HD
HETATM    3  C8  UNL     1     -42.319  17.629  15.063  1.00  0.00     0.007 C 
HETATM    4  C9  UNL     1     -41.419  18.743  14.701  1.00  0.00     0.173 C 
HETATM    5  N2  UNL     1     -41.886  19.183  13.402  1.00  0.00    -0.373 N 
ATOM      6  H2  UNL     1     -41.351  19.769  12.760  1.00  0.00     0.161 HD
HETATM    7  C10 UNL     1     -43.188  18.688  13.146  1.00  0.00     0.096 C 
HETATM    8  N3  UNL     1     -43.955  19.016  12.185  1.00  0.00    -0.295 N 
ATOM      9  H3  UNL     1     -44.873  18.576  12.120  1.00  0.00     0.187 HD
HETATM   10  C11 UNL     1     -43.521  17.698  14.204  1.00  0.00     0.131 C 
ENDROOT
BRANCH   1  11
HETATM   11  C7  UNL     1     -40.893  16.771  16.751  1.00  0.00     0.121 C 
BRANCH  11  12
HETATM   12  C6  UNL     1     -39.875  15.747  16.289  1.00  0.00     0.044 C 
BRANCH  12  13
HETATM   13  C5  UNL     1     -38.515  16.422  16.153  1.00  0.00     0.078 C 
HETATM   14  C4  UNL     1     -37.421  15.394  16.172  1.00  0.00     0.025 C 
HETATM   15  C3  UNL     1     -36.322  15.731  15.187  1.00  0.00     0.008 C 
HETATM   16  C2  UNL     1     -36.952  15.791  13.820  1.00  0.00    -0.001 C 
HETATM   17  C1  UNL     1     -37.368  14.383  13.385  1.00  0.00     0.011 C 
HETATM   18  C12 UNL     1     -38.147  16.702  13.781  1.00  0.00     0.118 C 
HETATM   19  N5  UNL     1     -38.460  17.310  15.037  1.00  0.00    -0.417 N 
ATOM     20  H5  UNL     1     -38.632  18.312  15.129  1.00  0.00     0.153 HD
ENDBRANCH  12  13
ENDBRANCH  11  12
ENDBRANCH   1  11
BRANCH   8  21
HETATM   21  N4  UNL     1     -43.590  19.954  11.216  1.00  0.00    -0.344 N 
ATOM     22  H42 UNL     1     -43.282  20.872  11.539  1.00  0.00     0.176 HD
ATOM     23  H41 UNL     1     -43.622  19.754  10.216  1.00  0.00     0.176 HD
ENDBRANCH   8  21
TORSDOF 4
ENDMDL
MODEL 5
REMARK VINA RESULT: -5.308891047      1.232      1.579
REMARK  4 active torsions:
REMARK  status: ('A' for Active; 'I' for Inactive)
REMARK    1  A    between atoms: C5_5  and  C6_6 
REMARK    2  A    between atoms: C6_6  and  C7_7 
REMARK    3  A    between atoms: C7_7  and  N1_8 
REMARK    4  A    between atoms: N3_15  and  N4_17 
ROOT
HETATM    1  N1  UNL     1     -41.531  17.751  15.603  1.00  0.00    -0.395 N 
ATOM      2  H1  UNL     1     -41.571  16.783  15.921  1.00  0.00     0.159 HD
HETATM    3  C8  UNL     1     -42.053  18.656  16.342  1.00  0.00     0.007 C 
HETATM    4  C9  UNL     1     -42.071  20.097  16.016  1.00  0.00     0.173 C 
HETATM    5  N2  UNL     1     -43.088  20.656  16.884  1.00  0.00    -0.373 N 
ATOM      6  H2  UNL     1     -43.524  21.570  16.756  1.00  0.00     0.161 HD
HETATM    7  C10 UNL     1     -43.394  19.757  17.936  1.00  0.00     0.096 C 
HETATM    8  N3  UNL     1     -44.111  19.996  18.960  1.00  0.00    -0.295 N 
ATOM      9  H3  UNL     1     -44.251  19.252  19.643  1.00  0.00     0.187 HD
HETATM   10  C11 UNL     1     -42.730  18.460  17.642  1.00  0.00     0.131 C 
ENDROOT
BRANCH   1  11
HETATM   11  C7  UNL     1     -40.900  18.027  14.368  1.00  0.00     0.121 C 
BRANCH  11  12
HETATM   12  C6  UNL     1     -39.397  17.843  14.419  1.00  0.00     0.044 C 
BRANCH  12  13
HETATM   13  C5  UNL     1     -39.081  16.487  15.037  1.00  0.00     0.078 C 
HETATM   14  C4  UNL     1     -39.289  15.394  14.029  1.00  0.00     0.025 C 
HETATM   15  C3  UNL     1     -38.223  14.325  14.138  1.00  0.00     0.008 C 
HETATM   16  C2  UNL     1     -36.894  14.994  13.908  1.00  0.00    -0.001 C 
HETATM   17  C1  UNL     1     -36.784  15.426  12.443  1.00  0.00     0.011 C 
HETATM   18  C12 UNL     1     -36.694  16.188  14.799  1.00  0.00     0.118 C 
HETATM   19  N5  UNL     1     -37.798  16.463  15.665  1.00  0.00    -0.417 N 
ATOM     20  H5  UNL     1     -37.678  16.631  16.665  1.00  0.00     0.153 HD
ENDBRANCH  12  13
ENDBRANCH  11  12
ENDBRANCH   1  11
BRANCH   8  21
HETATM   21  N4  UNL     1     -44.712  21.236  19.186  1.00  0.00    -0.344 N 
ATOM     22  H42 UNL     1     -44.102  22.030  19.379  1.00  0.00     0.176 HD
ATOM     23  H41 UNL     1     -45.724  21.370  19.166  1.00  0.00     0.176 HD
ENDBRANCH   8  21
TORSDOF 4
ENDMDL
