MODEL 1
REMARK VINA RESULT: -7.623063624      0.000      0.000
REMARK  11 active torsions:
REMARK  status: ('A' for Active; 'I' for Inactive)
REMARK    1  A    between atoms: O1_2  and  C2_3 
REMARK    2  A    between atoms: C4_5  and  C5_6 
REMARK    3  A    between atoms: C5_6  and  O2_7 
REMARK    4  A    between atoms: C6_9  and  C7_10 
REMARK    5  A    between atoms: C7_10  and  C8_11 
REMARK    6  A    between atoms: C9_14  and  N2_15 
REMARK    7  A    between atoms: N2_15  and  C10_16 
REMARK    8  A    between atoms: C10_16  and  C13_19 
REMARK    9  A    between atoms: C13_19  and  O3_20 
REMARK   10  A    between atoms: C14_24  and  N4_25 
REMARK   11  A    between atoms: C18_32  and  O4_33 
ROOT
HETATM    1  C8  UNL     1       2.408   4.363  20.299  1.00  0.00     0.042 A 
HETATM    2  N1  UNL     1       2.526   3.431  19.327  1.00  0.00    -0.318 N 
ATOM      3  H1  UNL     1       2.675   2.463  19.614  1.00  0.00     0.170 HD
HETATM    4  C9  UNL     1       2.461   3.689  18.012  1.00  0.00     0.256 A 
HETATM    5  N3  UNL     1       2.266   4.993  17.621  1.00  0.00    -0.301 N 
ATOM      6  H3  UNL     1       2.223   5.226  16.630  1.00  0.00     0.171 HD
HETATM    7  C14 UNL     1       2.134   5.939  18.524  1.00  0.00     0.125 A 
HETATM    8  C15 UNL     1       2.203   5.631  19.890  1.00  0.00     0.111 A 
HETATM    9  C16 UNL     1       1.923   6.775  20.771  1.00  0.00     0.105 C 
HETATM   10  N5  UNL     1       1.676   7.675  21.419  1.00  0.00    -0.191 NA
ENDROOT
BRANCH   1  11
HETATM   11  C7  UNL     1       2.521   4.064  21.721  1.00  0.00     0.098 C 
BRANCH  11  12
HETATM   12  C6  UNL     1       3.611   3.150  22.146  1.00  0.00    -0.041 A 
HETATM   13  C4  UNL     1       4.918   3.318  21.835  1.00  0.00    -0.025 A 
HETATM   14  C3  UNL     1       5.842   2.334  22.245  1.00  0.00     0.049 A 
HETATM   15  C2  UNL     1       5.467   1.226  22.954  1.00  0.00     0.102 A 
HETATM   16  C18 UNL     1       4.130   1.094  23.252  1.00  0.00     0.102 A 
HETATM   17  C17 UNL     1       3.223   2.027  22.861  1.00  0.00     0.047 A 
BRANCH  13  18
HETATM   18  C5  UNL     1       5.422   4.577  21.200  1.00  0.00     0.203 C 
BRANCH  18  19
HETATM   19  O2  UNL     1       6.682   4.961  21.782  1.00  0.00    -0.396 OA
ATOM     20  H2  UNL     1       7.082   5.656  21.272  1.00  0.00     0.209 HD
ENDBRANCH  18  19
ENDBRANCH  13  18
BRANCH  15  21
HETATM   21  O1  UNL     1       6.351   0.242  23.417  1.00  0.00    -0.353 OA
HETATM   22  C1  UNL     1       7.082   0.482  24.629  1.00  0.00     0.210 C 
ENDBRANCH  15  21
BRANCH  16  23
HETATM   23  O4  UNL     1       3.707  -0.039  23.974  1.00  0.00    -0.353 OA
HETATM   24  C19 UNL     1       2.514   0.038  24.728  1.00  0.00     0.210 C 
ENDBRANCH  16  23
ENDBRANCH  11  12
ENDBRANCH   1  11
BRANCH   7  25
HETATM   25  N4  UNL     1       1.966   7.170  18.119  1.00  0.00    -0.384 N 
ATOM     26  H42 UNL     1       2.689   7.875  18.266  1.00  0.00     0.157 HD
ATOM     27  H41 UNL     1       1.104   7.410  17.630  1.00  0.00     0.157 HD
ENDBRANCH   7  25
BRANCH   4  28
HETATM   28  N2  UNL     1       2.519   2.873  17.126  1.00  0.00    -0.402 NA
BRANCH  28  29
HETATM   29  C10 UNL     1       2.416   1.941  16.186  1.00  0.00     0.110 C 
HETATM   30  C11 UNL     1       2.907   2.369  14.804  1.00  0.00     0.056 C 
HETATM   31  C12 UNL     1       0.923   1.526  15.937  1.00  0.00     0.056 C 
BRANCH  29  32
HETATM   32  C13 UNL     1       3.083   0.581  16.395  1.00  0.00     0.209 C 
BRANCH  32  33
HETATM   33  O3  UNL     1       2.717   0.031  17.647  1.00  0.00    -0.397 OA
ATOM     34  H3  UNL     1       2.536  -0.898  17.567  1.00  0.00     0.209 HD
ENDBRANCH  32  33
ENDBRANCH  29  32
ENDBRANCH  28  29
ENDBRANCH   4  28
TORSDOF 11
ENDMDL
MODEL 2
REMARK VINA RESULT: -7.465597636      1.644      2.214
REMARK  11 active torsions:
REMARK  status: ('A' for Active; 'I' for Inactive)
REMARK    1  A    between atoms: O1_2  and  C2_3 
REMARK    2  A    between atoms: C4_5  and  C5_6 
REMARK    3  A    between atoms: C5_6  and  O2_7 
REMARK    4  A    between atoms: C6_9  and  C7_10 
REMARK    5  A    between atoms: C7_10  and  C8_11 
REMARK    6  A    between atoms: C9_14  and  N2_15 
REMARK    7  A    between atoms: N2_15  and  C10_16 
REMARK    8  A    between atoms: C10_16  and  C13_19 
REMARK    9  A    between atoms: C13_19  and  O3_20 
REMARK   10  A    between atoms: C14_24  and  N4_25 
REMARK   11  A    between atoms: C18_32  and  O4_33 
ROOT
HETATM    1  C8  UNL     1       4.123   3.805  20.784  1.00  0.00     0.042 A 
HETATM    2  N1  UNL     1       4.013   3.093  19.640  1.00  0.00    -0.318 N 
ATOM      3  H1  UNL     1       4.740   2.407  19.436  1.00  0.00     0.170 HD
HETATM    4  C9  UNL     1       3.014   3.227  18.754  1.00  0.00     0.256 A 
HETATM    5  N3  UNL     1       2.035   4.154  19.023  1.00  0.00    -0.301 N 
ATOM      6  H3  UNL     1       1.268   4.289  18.365  1.00  0.00     0.171 HD
HETATM    7  C14 UNL     1       2.087   4.867  20.126  1.00  0.00     0.125 A 
HETATM    8  C15 UNL     1       3.145   4.697  21.032  1.00  0.00     0.111 A 
HETATM    9  C16 UNL     1       2.999   5.482  22.267  1.00  0.00     0.105 C 
HETATM   10  N5  UNL     1       2.839   6.081  23.219  1.00  0.00    -0.191 NA
ENDROOT
BRANCH   1  11
HETATM   11  C7  UNL     1       5.240   3.670  21.712  1.00  0.00     0.098 C 
BRANCH  11  12
HETATM   12  C6  UNL     1       5.349   2.402  22.477  1.00  0.00    -0.041 A 
HETATM   13  C4  UNL     1       6.515   1.868  22.913  1.00  0.00    -0.025 A 
HETATM   14  C3  UNL     1       6.483   0.618  23.567  1.00  0.00     0.049 A 
HETATM   15  C2  UNL     1       5.319  -0.064  23.787  1.00  0.00     0.102 A 
HETATM   16  C18 UNL     1       4.156   0.514  23.330  1.00  0.00     0.102 A 
HETATM   17  C17 UNL     1       4.166   1.712  22.691  1.00  0.00     0.047 A 
BRANCH  13  18
HETATM   18  C5  UNL     1       7.804   2.628  22.847  1.00  0.00     0.203 C 
BRANCH  18  19
HETATM   19  O2  UNL     1       8.276   2.927  24.174  1.00  0.00    -0.396 OA
ATOM     20  H2  UNL     1       7.564   3.256  24.711  1.00  0.00     0.209 HD
ENDBRANCH  18  19
ENDBRANCH  13  18
BRANCH  15  21
HETATM   21  O1  UNL     1       5.230  -1.287  24.466  1.00  0.00    -0.353 OA
HETATM   22  C1  UNL     1       5.554  -1.329  25.864  1.00  0.00     0.210 C 
ENDBRANCH  15  21
BRANCH  16  23
HETATM   23  O4  UNL     1       2.939  -0.166  23.531  1.00  0.00    -0.353 OA
HETATM   24  C19 UNL     1       2.203   0.085  24.712  1.00  0.00     0.210 C 
ENDBRANCH  16  23
ENDBRANCH  11  12
ENDBRANCH   1  11
BRANCH   7  25
HETATM   25  N4  UNL     1       1.150   5.751  20.343  1.00  0.00    -0.384 N 
ATOM     26  H42 UNL     1       0.212   5.466  20.625  1.00  0.00     0.157 HD
ATOM     27  H41 UNL     1       1.381   6.740  20.248  1.00  0.00     0.157 HD
ENDBRANCH   7  25
BRANCH   4  28
HETATM   28  N2  UNL     1       2.867   2.577  17.749  1.00  0.00    -0.402 NA
BRANCH  28  29
HETATM   29  C10 UNL     1       2.824   1.966  16.570  1.00  0.00     0.110 C 
HETATM   30  C11 UNL     1       1.507   1.255  16.267  1.00  0.00     0.056 C 
HETATM   31  C12 UNL     1       3.895   0.823  16.467  1.00  0.00     0.056 C 
BRANCH  29  32
HETATM   32  C13 UNL     1       3.100   2.764  15.296  1.00  0.00     0.209 C 
BRANCH  32  33
HETATM   33  O3  UNL     1       3.037   1.926  14.157  1.00  0.00    -0.397 OA
ATOM     34  H3  UNL     1       3.445   1.086  14.334  1.00  0.00     0.209 HD
ENDBRANCH  32  33
ENDBRANCH  29  32
ENDBRANCH  28  29
ENDBRANCH   4  28
TORSDOF 11
ENDMDL
MODEL 3
REMARK VINA RESULT: -6.929325282      2.463      6.502
REMARK  11 active torsions:
REMARK  status: ('A' for Active; 'I' for Inactive)
REMARK    1  A    between atoms: O1_2  and  C2_3 
REMARK    2  A    between atoms: C4_5  and  C5_6 
REMARK    3  A    between atoms: C5_6  and  O2_7 
REMARK    4  A    between atoms: C6_9  and  C7_10 
REMARK    5  A    between atoms: C7_10  and  C8_11 
REMARK    6  A    between atoms: C9_14  and  N2_15 
REMARK    7  A    between atoms: N2_15  and  C10_16 
REMARK    8  A    between atoms: C10_16  and  C13_19 
REMARK    9  A    between atoms: C13_19  and  O3_20 
REMARK   10  A    between atoms: C14_24  and  N4_25 
REMARK   11  A    between atoms: C18_32  and  O4_33 
ROOT
HETATM    1  C8  UNL     1       2.015   4.438  20.896  1.00  0.00     0.042 A 
HETATM    2  N1  UNL     1       2.616   3.291  21.284  1.00  0.00    -0.318 N 
ATOM      3  H1  UNL     1       2.521   2.477  20.677  1.00  0.00     0.170 HD
HETATM    4  C9  UNL     1       3.330   3.150  22.412  1.00  0.00     0.256 A 
HETATM    5  N3  UNL     1       3.455   4.244  23.235  1.00  0.00    -0.301 N 
ATOM      6  H3  UNL     1       3.981   4.168  24.106  1.00  0.00     0.171 HD
HETATM    7  C14 UNL     1       2.900   5.387  22.902  1.00  0.00     0.125 A 
HETATM    8  C15 UNL     1       2.165   5.499  21.712  1.00  0.00     0.111 A 
HETATM    9  C16 UNL     1       1.705   6.867  21.426  1.00  0.00     0.105 C 
HETATM   10  N5  UNL     1       1.391   7.940  21.225  1.00  0.00    -0.191 NA
ENDROOT
BRANCH   1  11
HETATM   11  C7  UNL     1       1.211   4.557  19.685  1.00  0.00     0.098 C 
BRANCH  11  12
HETATM   12  C6  UNL     1       1.929   4.620  18.387  1.00  0.00    -0.041 A 
HETATM   13  C4  UNL     1       1.841   5.649  17.511  1.00  0.00    -0.025 A 
HETATM   14  C3  UNL     1       2.522   5.548  16.279  1.00  0.00     0.049 A 
HETATM   15  C2  UNL     1       3.275   4.457  15.945  1.00  0.00     0.102 A 
HETATM   16  C18 UNL     1       3.340   3.434  16.864  1.00  0.00     0.102 A 
HETATM   17  C17 UNL     1       2.687   3.508  18.052  1.00  0.00     0.047 A 
BRANCH  13  18
HETATM   18  C5  UNL     1       1.166   6.936  17.872  1.00  0.00     0.203 C 
BRANCH  18  19
HETATM   19  O2  UNL     1       2.136   7.900  18.324  1.00  0.00    -0.396 OA
ATOM     20  H2  UNL     1       1.745   8.765  18.368  1.00  0.00     0.209 HD
ENDBRANCH  18  19
ENDBRANCH  13  18
BRANCH  15  21
HETATM   21  O1  UNL     1       4.000   4.327  14.754  1.00  0.00    -0.353 OA
HETATM   22  C1  UNL     1       4.107   5.461  13.879  1.00  0.00     0.210 C 
ENDBRANCH  15  21
BRANCH  16  23
HETATM   23  O4  UNL     1       4.100   2.290  16.549  1.00  0.00    -0.353 OA
HETATM   24  C19 UNL     1       3.431   1.066  16.326  1.00  0.00     0.210 C 
ENDBRANCH  16  23
ENDBRANCH  11  12
ENDBRANCH   1  11
BRANCH   7  25
HETATM   25  N4  UNL     1       3.024   6.403  23.715  1.00  0.00    -0.384 N 
ATOM     26  H42 UNL     1       2.897   7.360  23.385  1.00  0.00     0.157 HD
ATOM     27  H41 UNL     1       3.230   6.219  24.697  1.00  0.00     0.157 HD
ENDBRANCH   7  25
BRANCH   4  28
HETATM   28  N2  UNL     1       3.912   2.153  22.761  1.00  0.00    -0.402 NA
BRANCH  28  29
HETATM   29  C10 UNL     1       4.466   1.071  23.295  1.00  0.00     0.110 C 
HETATM   30  C11 UNL     1       3.807  -0.248  22.895  1.00  0.00     0.056 C 
HETATM   31  C12 UNL     1       4.362   1.076  24.862  1.00  0.00     0.056 C 
BRANCH  29  32
HETATM   32  C13 UNL     1       5.956   0.803  23.085  1.00  0.00     0.209 C 
BRANCH  32  33
HETATM   33  O3  UNL     1       6.719   1.959  23.381  1.00  0.00    -0.397 OA
ATOM     34  H3  UNL     1       6.396   2.709  22.894  1.00  0.00     0.209 HD
ENDBRANCH  32  33
ENDBRANCH  29  32
ENDBRANCH  28  29
ENDBRANCH   4  28
TORSDOF 11
ENDMDL
MODEL 4
REMARK VINA RESULT: -6.781098907      3.485      6.154
REMARK  11 active torsions:
REMARK  status: ('A' for Active; 'I' for Inactive)
REMARK    1  A    between atoms: O1_2  and  C2_3 
REMARK    2  A    between atoms: C4_5  and  C5_6 
REMARK    3  A    between atoms: C5_6  and  O2_7 
REMARK    4  A    between atoms: C6_9  and  C7_10 
REMARK    5  A    between atoms: C7_10  and  C8_11 
REMARK    6  A    between atoms: C9_14  and  N2_15 
REMARK    7  A    between atoms: N2_15  and  C10_16 
REMARK    8  A    between atoms: C10_16  and  C13_19 
REMARK    9  A    between atoms: C13_19  and  O3_20 
REMARK   10  A    between atoms: C14_24  and  N4_25 
REMARK   11  A    between atoms: C18_32  and  O4_33 
ROOT
HETATM    1  C8  UNL     1       6.801   1.372  22.890  1.00  0.00     0.042 A 
HETATM    2  N1  UNL     1       5.744   1.876  22.215  1.00  0.00    -0.318 N 
ATOM      3  H1  UNL     1       4.988   1.236  21.971  1.00  0.00     0.170 HD
HETATM    4  C9  UNL     1       5.620   3.160  21.844  1.00  0.00     0.256 A 
HETATM    5  N3  UNL     1       6.639   4.024  22.166  1.00  0.00    -0.301 N 
ATOM      6  H3  UNL     1       6.583   5.004  21.889  1.00  0.00     0.171 HD
HETATM    7  C14 UNL     1       7.687   3.590  22.831  1.00  0.00     0.125 A 
HETATM    8  C15 UNL     1       7.780   2.242  23.207  1.00  0.00     0.111 A 
HETATM    9  C16 UNL     1       8.953   1.939  24.041  1.00  0.00     0.105 C 
HETATM   10  N5  UNL     1       9.854   1.748  24.706  1.00  0.00    -0.191 NA
ENDROOT
BRANCH   1  11
HETATM   11  C7  UNL     1       6.932  -0.035  23.249  1.00  0.00     0.098 C 
BRANCH  11  12
HETATM   12  C6  UNL     1       6.137  -0.528  24.401  1.00  0.00    -0.041 A 
HETATM   13  C4  UNL     1       4.802  -0.754  24.372  1.00  0.00    -0.025 A 
HETATM   14  C3  UNL     1       4.158  -1.155  25.562  1.00  0.00     0.049 A 
HETATM   15  C2  UNL     1       4.834  -1.334  26.736  1.00  0.00     0.102 A 
HETATM   16  C18 UNL     1       6.190  -1.097  26.723  1.00  0.00     0.102 A 
HETATM   17  C17 UNL     1       6.827  -0.704  25.591  1.00  0.00     0.047 A 
BRANCH  13  18
HETATM   18  C5  UNL     1       4.026  -0.729  23.091  1.00  0.00     0.203 C 
BRANCH  18  19
HETATM   19  O2  UNL     1       3.289   0.502  22.976  1.00  0.00    -0.396 OA
ATOM     20  H2  UNL     1       3.624   1.021  22.254  1.00  0.00     0.209 HD
ENDBRANCH  18  19
ENDBRANCH  13  18
BRANCH  15  21
HETATM   21  O1  UNL     1       4.248  -1.769  27.932  1.00  0.00    -0.353 OA
HETATM   22  C1  UNL     1       2.822  -1.673  28.081  1.00  0.00     0.210 C 
ENDBRANCH  15  21
BRANCH  16  23
HETATM   23  O4  UNL     1       6.917  -1.264  27.918  1.00  0.00    -0.353 OA
HETATM   24  C19 UNL     1       8.329  -1.235  27.868  1.00  0.00     0.210 C 
ENDBRANCH  16  23
ENDBRANCH  11  12
ENDBRANCH   1  11
BRANCH   7  25
HETATM   25  N4  UNL     1       8.645   4.434  23.107  1.00  0.00    -0.384 N 
ATOM     26  H42 UNL     1       9.332   4.700  22.401  1.00  0.00     0.157 HD
ATOM     27  H41 UNL     1       8.682   4.843  24.041  1.00  0.00     0.157 HD
ENDBRANCH   7  25
BRANCH   4  28
HETATM   28  N2  UNL     1       4.671   3.645  21.281  1.00  0.00    -0.402 NA
BRANCH  28  29
HETATM   29  C10 UNL     1       3.609   4.282  20.800  1.00  0.00     0.110 C 
HETATM   30  C11 UNL     1       3.551   5.772  21.135  1.00  0.00     0.056 C 
HETATM   31  C12 UNL     1       2.271   3.716  21.396  1.00  0.00     0.056 C 
BRANCH  29  32
HETATM   32  C13 UNL     1       3.320   4.242  19.299  1.00  0.00     0.209 C 
BRANCH  32  33
HETATM   33  O3  UNL     1       2.942   2.938  18.897  1.00  0.00    -0.397 OA
ATOM     34  H3  UNL     1       2.550   2.463  19.620  1.00  0.00     0.209 HD
ENDBRANCH  32  33
ENDBRANCH  29  32
ENDBRANCH  28  29
ENDBRANCH   4  28
TORSDOF 11
ENDMDL
MODEL 5
REMARK VINA RESULT: -6.754753147      1.558      2.987
REMARK  11 active torsions:
REMARK  status: ('A' for Active; 'I' for Inactive)
REMARK    1  A    between atoms: O1_2  and  C2_3 
REMARK    2  A    between atoms: C4_5  and  C5_6 
REMARK    3  A    between atoms: C5_6  and  O2_7 
REMARK    4  A    between atoms: C6_9  and  C7_10 
REMARK    5  A    between atoms: C7_10  and  C8_11 
REMARK    6  A    between atoms: C9_14  and  N2_15 
REMARK    7  A    between atoms: N2_15  and  C10_16 
REMARK    8  A    between atoms: C10_16  and  C13_19 
REMARK    9  A    between atoms: C13_19  and  O3_20 
REMARK   10  A    between atoms: C14_24  and  N4_25 
REMARK   11  A    between atoms: C18_32  and  O4_33 
ROOT
HETATM    1  C8  UNL     1       3.021   3.924  21.681  1.00  0.00     0.042 A 
HETATM    2  N1  UNL     1       3.164   3.205  20.545  1.00  0.00    -0.318 N 
ATOM      3  H1  UNL     1       3.437   2.227  20.634  1.00  0.00     0.170 HD
HETATM    4  C9  UNL     1       2.972   3.690  19.308  1.00  0.00     0.256 A 
HETATM    5  N3  UNL     1       2.609   5.011  19.184  1.00  0.00    -0.301 N 
ATOM      6  H3  UNL     1       2.466   5.415  18.259  1.00  0.00     0.171 HD
HETATM    7  C14 UNL     1       2.445   5.753  20.257  1.00  0.00     0.125 A 
HETATM    8  C15 UNL     1       2.651   5.210  21.534  1.00  0.00     0.111 A 
HETATM    9  C16 UNL     1       2.318   6.133  22.630  1.00  0.00     0.105 C 
HETATM   10  N5  UNL     1       2.025   6.863  23.450  1.00  0.00    -0.191 NA
ENDROOT
BRANCH   1  11
HETATM   11  C7  UNL     1       3.274   3.385  23.012  1.00  0.00     0.098 C 
BRANCH  11  12
HETATM   12  C6  UNL     1       4.096   2.153  23.111  1.00  0.00    -0.041 A 
HETATM   13  C4  UNL     1       3.622   0.942  23.486  1.00  0.00    -0.025 A 
HETATM   14  C3  UNL     1       4.529  -0.132  23.606  1.00  0.00     0.049 A 
HETATM   15  C2  UNL     1       5.864   0.004  23.346  1.00  0.00     0.102 A 
HETATM   16  C18 UNL     1       6.306   1.251  22.965  1.00  0.00     0.102 A 
HETATM   17  C17 UNL     1       5.450   2.299  22.850  1.00  0.00     0.047 A 
BRANCH  13  18
HETATM   18  C5  UNL     1       2.154   0.682  23.634  1.00  0.00     0.203 C 
BRANCH  18  19
HETATM   19  O2  UNL     1       1.892  -0.017  24.866  1.00  0.00    -0.396 OA
ATOM     20  H2  UNL     1       1.563  -0.890  24.686  1.00  0.00     0.209 HD
ENDBRANCH  18  19
ENDBRANCH  13  18
BRANCH  15  21
HETATM   21  O1  UNL     1       6.797  -1.039  23.413  1.00  0.00    -0.353 OA
HETATM   22  C1  UNL     1       6.940  -1.764  24.644  1.00  0.00     0.210 C 
ENDBRANCH  15  21
BRANCH  16  23
HETATM   23  O4  UNL     1       7.678   1.430  22.698  1.00  0.00    -0.353 OA
HETATM   24  C19 UNL     1       8.457   2.186  23.602  1.00  0.00     0.210 C 
ENDBRANCH  16  23
ENDBRANCH  11  12
ENDBRANCH   1  11
BRANCH   7  25
HETATM   25  N4  UNL     1       2.117   7.008  20.103  1.00  0.00    -0.384 N 
ATOM     26  H42 UNL     1       1.539   7.309  19.318  1.00  0.00     0.157 HD
ATOM     27  H41 UNL     1       2.431   7.684  20.799  1.00  0.00     0.157 HD
ENDBRANCH   7  25
BRANCH   4  28
HETATM   28  N2  UNL     1       3.050   3.063  18.282  1.00  0.00    -0.402 NA
BRANCH  28  29
HETATM   29  C10 UNL     1       3.040   2.499  17.079  1.00  0.00     0.110 C 
HETATM   30  C11 UNL     1       3.860   1.215  16.969  1.00  0.00     0.056 C 
HETATM   31  C12 UNL     1       3.671   3.436  15.990  1.00  0.00     0.056 C 
BRANCH  29  32
HETATM   32  C13 UNL     1       1.706   2.127  16.431  1.00  0.00     0.209 C 
BRANCH  32  33
HETATM   33  O3  UNL     1       1.348   0.795  16.751  1.00  0.00    -0.397 OA
ATOM     34  H3  UNL     1       1.271   0.268  15.964  1.00  0.00     0.209 HD
ENDBRANCH  32  33
ENDBRANCH  29  32
ENDBRANCH  28  29
ENDBRANCH   4  28
TORSDOF 11
ENDMDL
