MODEL 1
REMARK VINA RESULT: -7.993960912      0.000      0.000
REMARK  7 active torsions:
REMARK  status: ('A' for Active; 'I' for Inactive)
REMARK    1  A    between atoms: C2_2  and  C3_3 
REMARK    2  A    between atoms: C3_3  and  N1_5 
REMARK       I    between atoms: N1_5  and  C5_7 
REMARK    3  A    between atoms: C5_7  and  C6_9 
REMARK    4  A    between atoms: C6_9  and  N2_10 
REMARK    5  A    between atoms: C6_9  and  C11_18 
REMARK       I    between atoms: N2_10  and  C7_12 
REMARK    6  A    between atoms: C7_12  and  C8_14 
REMARK    7  A    between atoms: C8_14  and  S1_16 
ROOT
HETATM    1  C6  UNL     1       2.865   3.663  21.364  1.00  0.00     0.234 C 
ENDROOT
BRANCH   1   2
HETATM    2  C5  UNL     1       3.386   3.798  19.964  1.00  0.00     0.247 C 
HETATM    3  N1  UNL     1       2.582   3.460  18.844  1.00  0.00    -0.355 N 
ATOM      4  H1  UNL     1       1.634   3.119  19.002  1.00  0.00     0.162 HD
HETATM    5  O1  UNL     1       4.560   4.224  19.841  1.00  0.00    -0.271 OA
BRANCH   3   6
HETATM    6  C3  UNL     1       3.063   3.583  17.489  1.00  0.00     0.080 C 
HETATM    7  C4  UNL     1       3.196   2.262  16.794  1.00  0.00     0.032 C 
BRANCH   6   8
HETATM    8  C2  UNL     1       2.193   4.503  16.657  1.00  0.00     0.020 C 
HETATM    9  C1  UNL     1       2.542   5.955  16.988  1.00  0.00     0.007 C 
ENDBRANCH   6   8
ENDBRANCH   3   6
ENDBRANCH   1   2
BRANCH   1  10
HETATM   10  N2  UNL     1       2.440   4.889  21.945  1.00  0.00    -0.341 N 
HETATM   11  C7  UNL     1       1.255   5.568  21.600  1.00  0.00     0.232 C 
HETATM   12  O2  UNL     1       0.458   5.139  20.730  1.00  0.00    -0.272 OA
ATOM     13  H2  UNL     1       3.036   5.306  22.660  1.00  0.00     0.163 HD
BRANCH  11  14
HETATM   14  C8  UNL     1       0.892   6.858  22.275  1.00  0.00     0.134 C 
HETATM   15  C9  UNL     1       1.720   7.956  21.626  1.00  0.00     0.031 C 
BRANCH  14  16
HETATM   16  S1  UNL     1      -0.854   7.199  21.832  1.00  0.00    -0.160 SA
HETATM   17  C10 UNL     1      -1.904   7.068  23.301  1.00  0.00     0.090 C 
ENDBRANCH  14  16
ENDBRANCH  11  14
ENDBRANCH   1  10
BRANCH   1  18
HETATM   18  C11 UNL     1       3.787   2.859  22.226  1.00  0.00     0.087 A 
HETATM   19  N3  UNL     1       5.104   2.871  22.300  1.00  0.00    -0.336 N 
HETATM   20  C12 UNL     1       5.722   2.076  23.134  1.00  0.00     0.142 A 
ATOM     21  H3  UNL     1       5.641   3.501  21.705  1.00  0.00     0.168 HD
HETATM   22  N4  UNL     1       7.081   1.993  23.305  1.00  0.00    -0.322 N 
HETATM   23  C15 UNL     1       4.952   1.252  23.905  1.00  0.00     0.123 A 
HETATM   24  C13 UNL     1       7.591   1.147  24.184  1.00  0.00     0.170 A 
ATOM     25  H4  UNL     1       7.701   2.586  22.753  1.00  0.00     0.169 HD
HETATM   26  N5  UNL     1       8.881   1.093  24.321  1.00  0.00    -0.381 N 
HETATM   27  C14 UNL     1       6.837   0.302  24.977  1.00  0.00     0.290 A 
ATOM     28  H52 UNL     1       9.437   1.716  23.736  1.00  0.00     0.157 HD
ATOM     29  H51 UNL     1       9.274   0.440  24.999  1.00  0.00     0.157 HD
HETATM   30  O3  UNL     1       7.340  -0.494  25.805  1.00  0.00    -0.264 OA
HETATM   31  N6  UNL     1       5.506   0.383  24.808  1.00  0.00    -0.311 N 
ATOM     32  H6  UNL     1       4.894  -0.215  25.363  1.00  0.00     0.170 HD
HETATM   33  S2  UNL     1       3.377   1.670  23.386  1.00  0.00    -0.052 SA
ENDBRANCH   1  18
TORSDOF 7
ENDMDL
MODEL 2
REMARK VINA RESULT: -7.931692980      2.371      4.753
REMARK  7 active torsions:
REMARK  status: ('A' for Active; 'I' for Inactive)
REMARK    1  A    between atoms: C2_2  and  C3_3 
REMARK    2  A    between atoms: C3_3  and  N1_5 
REMARK       I    between atoms: N1_5  and  C5_7 
REMARK    3  A    between atoms: C5_7  and  C6_9 
REMARK    4  A    between atoms: C6_9  and  N2_10 
REMARK    5  A    between atoms: C6_9  and  C11_18 
REMARK       I    between atoms: N2_10  and  C7_12 
REMARK    6  A    between atoms: C7_12  and  C8_14 
REMARK    7  A    between atoms: C8_14  and  S1_16 
ROOT
HETATM    1  C6  UNL     1       3.664   3.720  20.812  1.00  0.00     0.234 C 
ENDROOT
BRANCH   1   2
HETATM    2  C5  UNL     1       2.496   4.608  21.122  1.00  0.00     0.247 C 
HETATM    3  N1  UNL     1       2.648   6.016  21.221  1.00  0.00    -0.355 N 
ATOM      4  H1  UNL     1       3.572   6.424  21.078  1.00  0.00     0.162 HD
HETATM    5  O1  UNL     1       1.388   4.041  21.285  1.00  0.00    -0.271 OA
BRANCH   3   6
HETATM    6  C3  UNL     1       1.537   6.889  21.518  1.00  0.00     0.080 C 
HETATM    7  C4  UNL     1       1.957   8.155  22.201  1.00  0.00     0.032 C 
BRANCH   6   8
HETATM    8  C2  UNL     1       0.734   7.227  20.279  1.00  0.00     0.020 C 
HETATM    9  C1  UNL     1       1.606   8.045  19.325  1.00  0.00     0.007 C 
ENDBRANCH   6   8
ENDBRANCH   3   6
ENDBRANCH   1   2
BRANCH   1  10
HETATM   10  N2  UNL     1       3.623   3.141  19.514  1.00  0.00    -0.341 N 
HETATM   11  C7  UNL     1       3.392   3.862  18.325  1.00  0.00     0.232 C 
HETATM   12  O2  UNL     1       3.196   5.102  18.313  1.00  0.00    -0.272 OA
ATOM     13  H2  UNL     1       3.771   2.135  19.438  1.00  0.00     0.163 HD
BRANCH  11  14
HETATM   14  C8  UNL     1       3.371   3.158  17.000  1.00  0.00     0.134 C 
HETATM   15  C9  UNL     1       2.736   1.795  17.222  1.00  0.00     0.031 C 
BRANCH  14  16
HETATM   16  S1  UNL     1       2.212   4.099  15.935  1.00  0.00    -0.160 SA
HETATM   17  C10 UNL     1       2.988   4.455  14.339  1.00  0.00     0.090 C 
ENDBRANCH  14  16
ENDBRANCH  11  14
ENDBRANCH   1  10
BRANCH   1  18
HETATM   18  C11 UNL     1       3.929   2.743  21.914  1.00  0.00     0.087 A 
HETATM   19  N3  UNL     1       3.085   2.035  22.640  1.00  0.00    -0.336 N 
HETATM   20  C12 UNL     1       3.532   1.228  23.566  1.00  0.00     0.142 A 
ATOM     21  H3  UNL     1       2.081   2.118  22.478  1.00  0.00     0.168 HD
HETATM   22  N4  UNL     1       2.761   0.440  24.385  1.00  0.00    -0.322 N 
HETATM   23  C15 UNL     1       4.885   1.157  23.739  1.00  0.00     0.123 A 
HETATM   24  C13 UNL     1       3.332  -0.339  25.288  1.00  0.00     0.170 A 
ATOM     25  H4  UNL     1       1.746   0.456  24.297  1.00  0.00     0.169 HD
HETATM   26  N5  UNL     1       2.573  -1.071  26.046  1.00  0.00    -0.381 N 
HETATM   27  C14 UNL     1       4.697  -0.430  25.485  1.00  0.00     0.290 A 
ATOM     28  H52 UNL     1       1.566  -1.004  25.901  1.00  0.00     0.157 HD
ATOM     29  H51 UNL     1       3.014  -1.672  26.743  1.00  0.00     0.157 HD
HETATM   30  O3  UNL     1       5.218  -1.176  26.348  1.00  0.00    -0.264 OA
HETATM   31  N6  UNL     1       5.451   0.342  24.684  1.00  0.00    -0.311 N 
ATOM     32  H6  UNL     1       6.466   0.321  24.780  1.00  0.00     0.170 HD
HETATM   33  S2  UNL     1       5.440   2.260  22.555  1.00  0.00    -0.052 SA
ENDBRANCH   1  18
TORSDOF 7
ENDMDL
MODEL 3
REMARK VINA RESULT: -7.891825095      2.660      6.540
REMARK  7 active torsions:
REMARK  status: ('A' for Active; 'I' for Inactive)
REMARK    1  A    between atoms: C2_2  and  C3_3 
REMARK    2  A    between atoms: C3_3  and  N1_5 
REMARK       I    between atoms: N1_5  and  C5_7 
REMARK    3  A    between atoms: C5_7  and  C6_9 
REMARK    4  A    between atoms: C6_9  and  N2_10 
REMARK    5  A    between atoms: C6_9  and  C11_18 
REMARK       I    between atoms: N2_10  and  C7_12 
REMARK    6  A    between atoms: C7_12  and  C8_14 
REMARK    7  A    between atoms: C8_14  and  S1_16 
ROOT
HETATM    1  C6  UNL     1       3.559   4.566  20.804  1.00  0.00     0.234 C 
ENDROOT
BRANCH   1   2
HETATM    2  C5  UNL     1       3.780   3.513  21.849  1.00  0.00     0.247 C 
HETATM    3  N1  UNL     1       5.020   2.833  21.958  1.00  0.00    -0.355 N 
ATOM      4  H1  UNL     1       5.772   3.069  21.309  1.00  0.00     0.162 HD
HETATM    5  O1  UNL     1       2.814   3.272  22.615  1.00  0.00    -0.271 OA
BRANCH   3   6
HETATM    6  C3  UNL     1       5.254   1.817  22.957  1.00  0.00     0.080 C 
HETATM    7  C4  UNL     1       4.219   0.732  22.939  1.00  0.00     0.032 C 
BRANCH   6   8
HETATM    8  C2  UNL     1       6.631   1.200  22.831  1.00  0.00     0.020 C 
HETATM    9  C1  UNL     1       6.535  -0.300  23.110  1.00  0.00     0.007 C 
ENDBRANCH   6   8
ENDBRANCH   3   6
ENDBRANCH   1   2
BRANCH   1  10
HETATM   10  N2  UNL     1       2.591   5.543  21.162  1.00  0.00    -0.341 N 
HETATM   11  C7  UNL     1       2.838   6.638  22.014  1.00  0.00     0.232 C 
HETATM   12  O2  UNL     1       3.958   6.845  22.542  1.00  0.00    -0.272 OA
ATOM     13  H2  UNL     1       1.652   5.445  20.775  1.00  0.00     0.163 HD
BRANCH  11  14
HETATM   14  C8  UNL     1       1.747   7.619  22.329  1.00  0.00     0.134 C 
HETATM   15  C9  UNL     1       2.130   8.942  21.687  1.00  0.00     0.031 C 
BRANCH  14  16
HETATM   16  S1  UNL     1       0.253   7.031  21.442  1.00  0.00    -0.160 SA
HETATM   17  C10 UNL     1      -1.206   7.211  22.499  1.00  0.00     0.090 C 
ENDBRANCH  14  16
ENDBRANCH  11  14
ENDBRANCH   1  10
BRANCH   1  18
HETATM   18  C11 UNL     1       3.360   3.970  19.446  1.00  0.00     0.087 A 
HETATM   19  N3  UNL     1       3.109   2.723  19.097  1.00  0.00    -0.336 N 
HETATM   20  C12 UNL     1       2.968   2.410  17.835  1.00  0.00     0.142 A 
ATOM     21  H3  UNL     1       3.025   2.001  19.812  1.00  0.00     0.168 HD
HETATM   22  N4  UNL     1       2.705   1.155  17.343  1.00  0.00    -0.322 N 
HETATM   23  C15 UNL     1       3.092   3.417  16.920  1.00  0.00     0.123 A 
HETATM   24  C13 UNL     1       2.583   0.963  16.041  1.00  0.00     0.170 A 
ATOM     25  H4  UNL     1       2.604   0.369  17.984  1.00  0.00     0.169 HD
HETATM   26  N5  UNL     1       2.335  -0.236  15.610  1.00  0.00    -0.381 N 
HETATM   27  C14 UNL     1       2.704   1.962  15.093  1.00  0.00     0.290 A 
ATOM     28  H52 UNL     1       2.246  -0.973  16.309  1.00  0.00     0.157 HD
ATOM     29  H51 UNL     1       2.241  -0.384  14.605  1.00  0.00     0.157 HD
HETATM   30  O3  UNL     1       2.584   1.758  13.862  1.00  0.00    -0.264 OA
HETATM   31  N6  UNL     1       2.961   3.190  15.575  1.00  0.00    -0.311 N 
ATOM     32  H6  UNL     1       3.062   3.970  14.926  1.00  0.00     0.170 HD
HETATM   33  S2  UNL     1       3.405   4.761  17.930  1.00  0.00    -0.052 SA
ENDBRANCH   1  18
TORSDOF 7
ENDMDL
MODEL 4
REMARK VINA RESULT: -7.771606826      2.342      4.918
REMARK  7 active torsions:
REMARK  status: ('A' for Active; 'I' for Inactive)
REMARK    1  A    between atoms: C2_2  and  C3_3 
REMARK    2  A    between atoms: C3_3  and  N1_5 
REMARK       I    between atoms: N1_5  and  C5_7 
REMARK    3  A    between atoms: C5_7  and  C6_9 
REMARK    4  A    between atoms: C6_9  and  N2_10 
REMARK    5  A    between atoms: C6_9  and  C11_18 
REMARK       I    between atoms: N2_10  and  C7_12 
REMARK    6  A    between atoms: C7_12  and  C8_14 
REMARK    7  A    between atoms: C8_14  and  S1_16 
ROOT
HETATM    1  C6  UNL     1       3.376   3.912  21.154  1.00  0.00     0.234 C 
ENDROOT
BRANCH   1   2
HETATM    2  C5  UNL     1       2.725   5.073  21.845  1.00  0.00     0.247 C 
HETATM    3  N1  UNL     1       1.723   5.845  21.201  1.00  0.00    -0.355 N 
ATOM      4  H1  UNL     1       1.445   5.599  20.250  1.00  0.00     0.162 HD
HETATM    5  O1  UNL     1       3.112   5.321  23.013  1.00  0.00    -0.271 OA
BRANCH   3   6
HETATM    6  C3  UNL     1       1.083   6.966  21.847  1.00  0.00     0.080 C 
HETATM    7  C4  UNL     1       1.881   8.231  21.747  1.00  0.00     0.032 C 
BRANCH   6   8
HETATM    8  C2  UNL     1      -0.314   7.209  21.314  1.00  0.00     0.020 C 
HETATM    9  C1  UNL     1      -1.297   7.242  22.484  1.00  0.00     0.007 C 
ENDBRANCH   6   8
ENDBRANCH   3   6
ENDBRANCH   1   2
BRANCH   1  10
HETATM   10  N2  UNL     1       2.683   3.465  19.996  1.00  0.00    -0.341 N 
HETATM   11  C7  UNL     1       3.008   3.839  18.677  1.00  0.00     0.232 C 
HETATM   12  O2  UNL     1       3.956   4.618  18.408  1.00  0.00    -0.272 OA
ATOM     13  H2  UNL     1       1.897   2.830  20.130  1.00  0.00     0.163 HD
BRANCH  11  14
HETATM   14  C8  UNL     1       2.216   3.309  17.518  1.00  0.00     0.134 C 
HETATM   15  C9  UNL     1       2.100   4.430  16.499  1.00  0.00     0.031 C 
BRANCH  14  16
HETATM   16  S1  UNL     1       3.250   2.010  16.738  1.00  0.00    -0.160 SA
HETATM   17  C10 UNL     1       2.768   1.791  15.007  1.00  0.00     0.090 C 
ENDBRANCH  14  16
ENDBRANCH  11  14
ENDBRANCH   1  10
BRANCH   1  18
HETATM   18  C11 UNL     1       3.737   2.824  22.115  1.00  0.00     0.087 A 
HETATM   19  N3  UNL     1       2.962   2.056  22.856  1.00  0.00    -0.336 N 
HETATM   20  C12 UNL     1       3.489   1.152  23.640  1.00  0.00     0.142 A 
ATOM     21  H3  UNL     1       1.949   2.168  22.817  1.00  0.00     0.168 HD
HETATM   22  N4  UNL     1       2.794   0.294  24.457  1.00  0.00    -0.322 N 
HETATM   23  C15 UNL     1       4.851   1.046  23.652  1.00  0.00     0.123 A 
HETATM   24  C13 UNL     1       3.442  -0.582  25.206  1.00  0.00     0.170 A 
ATOM     25  H4  UNL     1       1.776   0.332  24.485  1.00  0.00     0.169 HD
HETATM   26  N5  UNL     1       2.754  -1.378  25.968  1.00  0.00    -0.381 N 
HETATM   27  C14 UNL     1       4.818  -0.710  25.239  1.00  0.00     0.290 A 
ATOM     28  H52 UNL     1       1.739  -1.283  25.944  1.00  0.00     0.157 HD
ATOM     29  H51 UNL     1       3.255  -2.053  26.546  1.00  0.00     0.157 HD
HETATM   30  O3  UNL     1       5.413  -1.547  25.958  1.00  0.00    -0.264 OA
HETATM   31  N6  UNL     1       5.497   0.131  24.439  1.00  0.00    -0.311 N 
ATOM     32  H6  UNL     1       6.516   0.087  24.418  1.00  0.00     0.170 HD
HETATM   33  S2  UNL     1       5.297   2.258  22.531  1.00  0.00    -0.052 SA
ENDBRANCH   1  18
TORSDOF 7
ENDMDL
MODEL 5
REMARK VINA RESULT: -7.760017182      1.682      2.310
REMARK  7 active torsions:
REMARK  status: ('A' for Active; 'I' for Inactive)
REMARK    1  A    between atoms: C2_2  and  C3_3 
REMARK    2  A    between atoms: C3_3  and  N1_5 
REMARK       I    between atoms: N1_5  and  C5_7 
REMARK    3  A    between atoms: C5_7  and  C6_9 
REMARK    4  A    between atoms: C6_9  and  N2_10 
REMARK    5  A    between atoms: C6_9  and  C11_18 
REMARK       I    between atoms: N2_10  and  C7_12 
REMARK    6  A    between atoms: C7_12  and  C8_14 
REMARK    7  A    between atoms: C8_14  and  S1_16 
ROOT
HETATM    1  C6  UNL     1       2.527   3.994  20.217  1.00  0.00     0.234 C 
ENDROOT
BRANCH   1   2
HETATM    2  C5  UNL     1       2.886   3.784  18.776  1.00  0.00     0.247 C 
HETATM    3  N1  UNL     1       2.868   4.859  17.849  1.00  0.00    -0.355 N 
ATOM      4  H1  UNL     1       2.604   5.789  18.177  1.00  0.00     0.162 HD
HETATM    5  O1  UNL     1       3.201   2.616  18.441  1.00  0.00    -0.271 OA
BRANCH   3   6
HETATM    6  C3  UNL     1       3.210   4.679  16.459  1.00  0.00     0.080 C 
HETATM    7  C4  UNL     1       2.026   4.334  15.606  1.00  0.00     0.032 C 
BRANCH   6   8
HETATM    8  C2  UNL     1       3.907   5.894  15.883  1.00  0.00     0.020 C 
HETATM    9  C1  UNL     1       4.306   5.602  14.435  1.00  0.00     0.007 C 
ENDBRANCH   6   8
ENDBRANCH   3   6
ENDBRANCH   1   2
BRANCH   1  10
HETATM   10  N2  UNL     1       2.206   5.340  20.543  1.00  0.00    -0.341 N 
HETATM   11  C7  UNL     1       0.908   5.803  20.837  1.00  0.00     0.232 C 
HETATM   12  O2  UNL     1      -0.097   5.050  20.832  1.00  0.00    -0.272 OA
ATOM     13  H2  UNL     1       2.968   6.017  20.566  1.00  0.00     0.163 HD
BRANCH  11  14
HETATM   14  C8  UNL     1       0.672   7.246  21.173  1.00  0.00     0.134 C 
HETATM   15  C9  UNL     1      -0.475   7.296  22.169  1.00  0.00     0.031 C 
BRANCH  14  16
HETATM   16  S1  UNL     1       2.163   7.815  22.077  1.00  0.00    -0.160 SA
HETATM   17  C10 UNL     1       2.296   6.947  23.661  1.00  0.00     0.090 C 
ENDBRANCH  14  16
ENDBRANCH  11  14
ENDBRANCH   1  10
BRANCH   1  18
HETATM   18  C11 UNL     1       3.520   3.357  21.137  1.00  0.00     0.087 A 
HETATM   19  N3  UNL     1       3.339   2.474  22.100  1.00  0.00    -0.336 N 
HETATM   20  C12 UNL     1       4.359   2.041  22.794  1.00  0.00     0.142 A 
ATOM     21  H3  UNL     1       2.402   2.127  22.302  1.00  0.00     0.168 HD
HETATM   22  N4  UNL     1       4.303   1.126  23.817  1.00  0.00    -0.322 N 
HETATM   23  C15 UNL     1       5.591   2.540  22.480  1.00  0.00     0.123 A 
HETATM   24  C13 UNL     1       5.408   0.765  24.447  1.00  0.00     0.170 A 
ATOM     25  H4  UNL     1       3.407   0.724  24.091  1.00  0.00     0.169 HD
HETATM   26  N5  UNL     1       5.320  -0.102  25.409  1.00  0.00    -0.381 N 
HETATM   27  C14 UNL     1       6.667   1.253  24.151  1.00  0.00     0.290 A 
ATOM     28  H52 UNL     1       4.391  -0.462  25.629  1.00  0.00     0.157 HD
ATOM     29  H51 UNL     1       6.173  -0.381  25.896  1.00  0.00     0.157 HD
HETATM   30  O3  UNL     1       7.703   0.897  24.761  1.00  0.00    -0.264 OA
HETATM   31  N6  UNL     1       6.720   2.149  23.150  1.00  0.00    -0.311 N 
ATOM     32  H6  UNL     1       7.620   2.547  22.884  1.00  0.00     0.170 HD
HETATM   33  S2  UNL     1       5.212   3.606  21.198  1.00  0.00    -0.052 SA
ENDBRANCH   1  18
TORSDOF 7
ENDMDL
