MODEL 1
REMARK VINA RESULT: -6.276246750      0.000      0.000
REMARK  5 active torsions:
REMARK  status: ('A' for Active; 'I' for Inactive)
REMARK    1  A    between atoms: C2_2  and  N1_3 
REMARK    2  A    between atoms: C2_2  and  C3_7 
REMARK    3  A    between atoms: C3_7  and  O1_8 
REMARK    4  A    between atoms: C3_7  and  C4_10 
REMARK    5  A    between atoms: C6_13  and  N2_14 
ROOT
HETATM    1  C4  UNL     1       8.924  15.993  31.540  1.00  0.00     0.395 C 
HETATM    2  O2  UNL     1       8.728  14.707  31.955  1.00  0.00    -0.351 OA
HETATM    3  C5  UNL     1       9.700  14.397  32.892  1.00  0.00     0.245 C 
HETATM    4  C6  UNL     1      10.448  15.660  33.099  1.00  0.00     0.376 C 
HETATM    5  C7  UNL     1      11.913  15.528  33.234  1.00  0.00     0.323 A 
HETATM    6  C8  UNL     1      12.711  14.440  32.748  1.00  0.00     0.316 A 
HETATM    7  N3  UNL     1      12.416  15.468  31.806  1.00  0.00     0.130 N 
HETATM    8  C9  UNL     1      11.214  15.449  31.014  1.00  0.00     0.550 C 
HETATM    9  N4  UNL     1      10.321  16.307  31.774  1.00  0.00     0.189 N 
ENDROOT
BRANCH   1  10
HETATM   10  C3  UNL     1       8.413  16.346  30.190  1.00  0.00     0.207 C 
BRANCH  10  11
HETATM   11  C2  UNL     1       7.634  17.643  30.184  1.00  0.00     0.212 C 
HETATM   12  C1  UNL     1       7.291  18.173  28.839  1.00  0.00     0.042 C 
BRANCH  11  13
HETATM   13  N1  UNL     1       6.383  17.352  30.884  1.00  0.00    -0.073 N 
ATOM     14  H13 UNL     1       6.373  17.708  31.840  1.00  0.00     0.274 HD
ATOM     15  H12 UNL     1       5.596  17.895  30.529  1.00  0.00     0.274 HD
ATOM     16  H11 UNL     1       6.224  16.346  30.835  1.00  0.00     0.274 HD
ENDBRANCH  11  13
ENDBRANCH  10  11
BRANCH  10  17
HETATM   17  O1  UNL     1       7.456  15.359  29.829  1.00  0.00    -0.389 OA
ATOM     18  H1  UNL     1       7.935  14.539  29.873  1.00  0.00     0.210 HD
ENDBRANCH  10  17
ENDBRANCH   1  10
BRANCH   4  19
HETATM   19  N2  UNL     1       9.831  16.503  34.096  1.00  0.00    -0.037 N 
ATOM     20  H23 UNL     1       8.850  16.258  34.230  1.00  0.00     0.277 HD
ATOM     21  H22 UNL     1      10.181  16.288  35.030  1.00  0.00     0.277 HD
ATOM     22  H21 UNL     1       9.938  17.495  33.882  1.00  0.00     0.277 HD
ENDBRANCH   4  19
TORSDOF 5
ENDMDL
MODEL 2
REMARK VINA RESULT: -5.904608958      0.979      1.114
REMARK  5 active torsions:
REMARK  status: ('A' for Active; 'I' for Inactive)
REMARK    1  A    between atoms: C2_2  and  N1_3 
REMARK    2  A    between atoms: C2_2  and  C3_7 
REMARK    3  A    between atoms: C3_7  and  O1_8 
REMARK    4  A    between atoms: C3_7  and  C4_10 
REMARK    5  A    between atoms: C6_13  and  N2_14 
ROOT
HETATM    1  C4  UNL     1       8.930  15.628  32.028  1.00  0.00     0.395 C 
HETATM    2  O2  UNL     1       8.997  14.272  32.174  1.00  0.00    -0.351 OA
HETATM    3  C5  UNL     1      10.163  13.963  32.855  1.00  0.00     0.245 C 
HETATM    4  C6  UNL     1      10.755  15.274  33.214  1.00  0.00     0.376 C 
HETATM    5  C7  UNL     1      12.223  15.377  33.084  1.00  0.00     0.323 A 
HETATM    6  C8  UNL     1      13.056  14.560  32.250  1.00  0.00     0.316 A 
HETATM    7  N3  UNL     1      12.446  15.682  31.616  1.00  0.00     0.130 N 
HETATM    8  C9  UNL     1      11.130  15.605  31.041  1.00  0.00     0.550 C 
HETATM    9  N4  UNL     1      10.288  16.131  32.102  1.00  0.00     0.189 N 
ENDROOT
BRANCH   1  10
HETATM   10  C3  UNL     1       8.126  16.139  30.887  1.00  0.00     0.207 C 
BRANCH  10  11
HETATM   11  C2  UNL     1       6.969  17.005  31.333  1.00  0.00     0.212 C 
HETATM   12  C1  UNL     1       7.317  18.088  32.290  1.00  0.00     0.042 C 
BRANCH  11  13
HETATM   13  N1  UNL     1       6.454  17.631  30.116  1.00  0.00    -0.073 N 
ATOM     14  H13 UNL     1       5.731  17.074  29.661  1.00  0.00     0.274 HD
ATOM     15  H12 UNL     1       5.888  18.459  30.305  1.00  0.00     0.274 HD
ATOM     16  H11 UNL     1       7.247  17.824  29.504  1.00  0.00     0.274 HD
ENDBRANCH  11  13
ENDBRANCH  10  11
BRANCH  10  17
HETATM   17  O1  UNL     1       7.509  15.018  30.269  1.00  0.00    -0.389 OA
ATOM     18  H1  UNL     1       8.083  14.803  29.543  1.00  0.00     0.210 HD
ENDBRANCH  10  17
ENDBRANCH   1  10
BRANCH   4  19
HETATM   19  N2  UNL     1      10.229  15.788  34.457  1.00  0.00    -0.037 N 
ATOM     20  H23 UNL     1       9.611  15.111  34.904  1.00  0.00     0.277 HD
ATOM     21  H22 UNL     1      10.955  15.839  35.172  1.00  0.00     0.277 HD
ATOM     22  H21 UNL     1       9.766  16.689  34.337  1.00  0.00     0.277 HD
ENDBRANCH   4  19
TORSDOF 5
ENDMDL
MODEL 3
REMARK VINA RESULT: -5.803503370      1.917      4.719
REMARK  5 active torsions:
REMARK  status: ('A' for Active; 'I' for Inactive)
REMARK    1  A    between atoms: C2_2  and  N1_3 
REMARK    2  A    between atoms: C2_2  and  C3_7 
REMARK    3  A    between atoms: C3_7  and  O1_8 
REMARK    4  A    between atoms: C3_7  and  C4_10 
REMARK    5  A    between atoms: C6_13  and  N2_14 
ROOT
HETATM    1  C4  UNL     1      10.068  16.301  32.100  1.00  0.00     0.395 C 
HETATM    2  O2  UNL     1      10.419  17.612  31.943  1.00  0.00    -0.351 OA
HETATM    3  C5  UNL     1       9.275  18.386  32.049  1.00  0.00     0.245 C 
HETATM    4  C6  UNL     1       8.197  17.431  32.400  1.00  0.00     0.376 C 
HETATM    5  C7  UNL     1       6.896  17.654  31.738  1.00  0.00     0.323 A 
HETATM    6  C8  UNL     1       6.685  18.358  30.506  1.00  0.00     0.316 A 
HETATM    7  N3  UNL     1       7.045  16.985  30.386  1.00  0.00     0.130 N 
HETATM    8  C9  UNL     1       8.420  16.561  30.358  1.00  0.00     0.550 C 
HETATM    9  N4  UNL     1       8.667  16.191  31.742  1.00  0.00     0.189 N 
ENDROOT
BRANCH   1  10
HETATM   10  C3  UNL     1      10.962  15.290  31.478  1.00  0.00     0.207 C 
BRANCH  10  11
HETATM   11  C2  UNL     1      12.049  14.820  32.418  1.00  0.00     0.212 C 
HETATM   12  C1  UNL     1      13.440  15.070  31.959  1.00  0.00     0.042 C 
BRANCH  11  13
HETATM   13  N1  UNL     1      11.845  15.567  33.659  1.00  0.00    -0.073 N 
ATOM     14  H13 UNL     1      10.956  15.353  34.109  1.00  0.00     0.274 HD
ATOM     15  H12 UNL     1      12.457  15.256  34.414  1.00  0.00     0.274 HD
ATOM     16  H11 UNL     1      11.952  16.559  33.447  1.00  0.00     0.274 HD
ENDBRANCH  11  13
ENDBRANCH  10  11
BRANCH  10  17
HETATM   17  O1  UNL     1      11.664  15.938  30.425  1.00  0.00    -0.389 OA
ATOM     18  H1  UNL     1      12.580  15.776  30.618  1.00  0.00     0.210 HD
ENDBRANCH  10  17
ENDBRANCH   1  10
BRANCH   4  19
HETATM   19  N2  UNL     1       8.111  17.204  33.823  1.00  0.00    -0.037 N 
ATOM     20  H23 UNL     1       8.791  17.771  34.329  1.00  0.00     0.277 HD
ATOM     21  H22 UNL     1       7.253  17.598  34.209  1.00  0.00     0.277 HD
ATOM     22  H21 UNL     1       8.203  16.216  34.062  1.00  0.00     0.277 HD
ENDBRANCH   4  19
TORSDOF 5
ENDMDL
MODEL 4
REMARK VINA RESULT: -5.480480012      1.959      2.691
REMARK  5 active torsions:
REMARK  status: ('A' for Active; 'I' for Inactive)
REMARK    1  A    between atoms: C2_2  and  N1_3 
REMARK    2  A    between atoms: C2_2  and  C3_7 
REMARK    3  A    between atoms: C3_7  and  O1_8 
REMARK    4  A    between atoms: C3_7  and  C4_10 
REMARK    5  A    between atoms: C6_13  and  N2_14 
ROOT
HETATM    1  C4  UNL     1       7.765  16.701  30.831  1.00  0.00     0.395 C 
HETATM    2  O2  UNL     1       8.741  16.398  29.924  1.00  0.00    -0.351 OA
HETATM    3  C5  UNL     1       9.462  15.317  30.404  1.00  0.00     0.245 C 
HETATM    4  C6  UNL     1       8.762  14.911  31.646  1.00  0.00     0.376 C 
HETATM    5  C7  UNL     1       9.627  14.518  32.777  1.00  0.00     0.323 A 
HETATM    6  C8  UNL     1      10.994  14.909  32.969  1.00  0.00     0.316 A 
HETATM    7  N3  UNL     1      10.010  15.833  33.427  1.00  0.00     0.130 N 
HETATM    8  C9  UNL     1       9.443  16.829  32.558  1.00  0.00     0.550 C 
HETATM    9  N4  UNL     1       8.209  16.200  32.117  1.00  0.00     0.189 N 
ENDROOT
BRANCH   1  10
HETATM   10  C3  UNL     1       7.266  18.101  30.833  1.00  0.00     0.207 C 
BRANCH  10  11
HETATM   11  C2  UNL     1       6.340  18.386  31.995  1.00  0.00     0.212 C 
HETATM   12  C1  UNL     1       6.084  19.824  32.267  1.00  0.00     0.042 C 
BRANCH  11  13
HETATM   13  N1  UNL     1       5.065  17.761  31.644  1.00  0.00    -0.073 N 
ATOM     14  H13 UNL     1       4.384  18.429  31.283  1.00  0.00     0.274 HD
ATOM     15  H12 UNL     1       5.128  17.171  30.814  1.00  0.00     0.274 HD
ATOM     16  H11 UNL     1       4.728  17.257  32.464  1.00  0.00     0.274 HD
ENDBRANCH  11  13
ENDBRANCH  10  11
BRANCH  10  17
HETATM   17  O1  UNL     1       6.445  18.260  29.683  1.00  0.00    -0.389 OA
ATOM     18  H1  UNL     1       6.499  17.422  29.238  1.00  0.00     0.210 HD
ENDBRANCH  10  17
ENDBRANCH   1  10
BRANCH   4  19
HETATM   19  N2  UNL     1       7.672  14.000  31.385  1.00  0.00    -0.037 N 
ATOM     20  H23 UNL     1       6.895  14.475  30.927  1.00  0.00     0.277 HD
ATOM     21  H22 UNL     1       7.913  13.337  30.648  1.00  0.00     0.277 HD
ATOM     22  H21 UNL     1       7.364  13.516  32.229  1.00  0.00     0.277 HD
ENDBRANCH   4  19
TORSDOF 5
ENDMDL
MODEL 5
REMARK VINA RESULT: -5.419800172      1.656      4.865
REMARK  5 active torsions:
REMARK  status: ('A' for Active; 'I' for Inactive)
REMARK    1  A    between atoms: C2_2  and  N1_3 
REMARK    2  A    between atoms: C2_2  and  C3_7 
REMARK    3  A    between atoms: C3_7  and  O1_8 
REMARK    4  A    between atoms: C3_7  and  C4_10 
REMARK    5  A    between atoms: C6_13  and  N2_14 
ROOT
HETATM    1  C4  UNL     1       9.683  15.821  31.748  1.00  0.00     0.395 C 
HETATM    2  O2  UNL     1       8.723  14.864  31.916  1.00  0.00    -0.351 OA
HETATM    3  C5  UNL     1       7.537  15.337  31.380  1.00  0.00     0.245 C 
HETATM    4  C6  UNL     1       7.887  16.639  30.763  1.00  0.00     0.376 C 
HETATM    5  C7  UNL     1       6.900  17.723  30.938  1.00  0.00     0.323 A 
HETATM    6  C8  UNL     1       5.912  17.807  31.974  1.00  0.00     0.316 A 
HETATM    7  N3  UNL     1       7.210  18.293  32.308  1.00  0.00     0.130 N 
HETATM    8  C9  UNL     1       8.236  17.425  32.821  1.00  0.00     0.550 C 
HETATM    9  N4  UNL     1       8.998  17.094  31.629  1.00  0.00     0.189 N 
ENDROOT
BRANCH   1  10
HETATM   10  C3  UNL     1      10.821  15.802  32.704  1.00  0.00     0.207 C 
BRANCH  10  11
HETATM   11  C2  UNL     1      12.016  15.046  32.168  1.00  0.00     0.212 C 
HETATM   12  C1  UNL     1      12.717  15.692  31.027  1.00  0.00     0.042 C 
BRANCH  11  13
HETATM   13  N1  UNL     1      12.960  14.961  33.283  1.00  0.00    -0.073 N 
ATOM     14  H13 UNL     1      13.886  14.646  32.994  1.00  0.00     0.274 HD
ATOM     15  H12 UNL     1      13.233  15.876  33.641  1.00  0.00     0.274 HD
ATOM     16  H11 UNL     1      12.545  14.364  33.998  1.00  0.00     0.274 HD
ENDBRANCH  11  13
ENDBRANCH  10  11
BRANCH  10  17
HETATM   17  O1  UNL     1      10.408  15.049  33.838  1.00  0.00    -0.389 OA
ATOM     18  H1  UNL     1      10.481  15.658  34.564  1.00  0.00     0.210 HD
ENDBRANCH  10  17
ENDBRANCH   1  10
BRANCH   4  19
HETATM   19  N2  UNL     1       8.375  16.489  29.412  1.00  0.00    -0.037 N 
ATOM     20  H23 UNL     1       8.389  17.384  28.924  1.00  0.00     0.277 HD
ATOM     21  H22 UNL     1       9.374  16.283  29.401  1.00  0.00     0.277 HD
ATOM     22  H21 UNL     1       7.848  15.790  28.887  1.00  0.00     0.277 HD
ENDBRANCH   4  19
TORSDOF 5
ENDMDL
