MODEL 1
REMARK VINA RESULT: -7.544505916      0.000      0.000
REMARK  4 active torsions:
REMARK  status: ('A' for Active; 'I' for Inactive)
REMARK    1  A    between atoms: N3_4  and  O1_6 
REMARK    2  A    between atoms: O1_6  and  C2_7 
REMARK    3  A    between atoms: C2_7  and  C3_8 
REMARK    4  A    between atoms: C3_8  and  C4_9 
ROOT
HETATM    1  C4  UNL     1      19.298 -34.569  -4.028  1.00  0.00    -0.040 A 
HETATM    2  C5  UNL     1      19.075 -35.593  -4.913  1.00  0.00     0.012 A 
HETATM    3  C6  UNL     1      19.093 -35.278  -6.275  1.00  0.00     0.050 A 
HETATM    4  C7  UNL     1      19.326 -33.989  -6.698  1.00  0.00     0.111 A 
HETATM    5  N4  UNL     1      19.387 -33.471  -7.932  1.00  0.00    -0.351 N 
ATOM      6  H4  UNL     1      19.260 -33.994  -8.798  1.00  0.00     0.166 HD
HETATM    7  C8  UNL     1      19.646 -32.134  -7.847  1.00  0.00     0.107 A 
HETATM    8  C9  UNL     1      19.742 -31.846  -6.523  1.00  0.00     0.115 A 
HETATM    9  N5  UNL     1      19.546 -32.985  -5.835  1.00  0.00    -0.317 N 
HETATM   10  C10 UNL     1      19.526 -33.306  -4.520  1.00  0.00     0.105 A 
ENDROOT
BRANCH   1  11
HETATM   11  C3  UNL     1      19.309 -34.748  -2.558  1.00  0.00     0.068 C 
BRANCH  11  12
HETATM   12  C2  UNL     1      17.961 -34.918  -1.959  1.00  0.00     0.206 C 
BRANCH  12  13
HETATM   13  O1  UNL     1      18.023 -35.988  -1.033  1.00  0.00    -0.278 OA
BRANCH  13  14
HETATM   14  N3  UNL     1      16.889 -36.508  -0.485  1.00  0.00    -0.241 N 
HETATM   15  C1  UNL     1      16.170 -37.428  -0.982  1.00  0.00     0.221 C 
HETATM   16  N1  UNL     1      16.419 -38.091  -2.213  1.00  0.00    -0.065 NA
HETATM   17  N2  UNL     1      15.012 -37.831  -0.240  1.00  0.00    -0.065 NA
ATOM     18  H3  UNL     1      16.588 -36.121   0.409  1.00  0.00     0.196 HD
ENDBRANCH  13  14
ENDBRANCH  12  13
ENDBRANCH  11  12
ENDBRANCH   1  11
TORSDOF 4
ENDMDL
MODEL 2
REMARK VINA RESULT: -7.507448263      2.161      2.589
REMARK  4 active torsions:
REMARK  status: ('A' for Active; 'I' for Inactive)
REMARK    1  A    between atoms: N3_4  and  O1_6 
REMARK    2  A    between atoms: O1_6  and  C2_7 
REMARK    3  A    between atoms: C2_7  and  C3_8 
REMARK    4  A    between atoms: C3_8  and  C4_9 
ROOT
HETATM    1  C4  UNL     1      19.700 -34.650  -4.291  1.00  0.00    -0.040 A 
HETATM    2  C5  UNL     1      19.456 -33.771  -5.315  1.00  0.00     0.012 A 
HETATM    3  C6  UNL     1      20.564 -33.169  -5.921  1.00  0.00     0.050 A 
HETATM    4  C7  UNL     1      21.842 -33.457  -5.498  1.00  0.00     0.111 A 
HETATM    5  N4  UNL     1      23.027 -33.005  -5.928  1.00  0.00    -0.351 N 
ATOM      6  H4  UNL     1      23.164 -32.335  -6.685  1.00  0.00     0.166 HD
HETATM    7  C8  UNL     1      24.022 -33.583  -5.195  1.00  0.00     0.107 A 
HETATM    8  C9  UNL     1      23.412 -34.403  -4.301  1.00  0.00     0.115 A 
HETATM    9  N5  UNL     1      22.084 -34.317  -4.497  1.00  0.00    -0.317 N 
HETATM   10  C10 UNL     1      21.002 -34.891  -3.921  1.00  0.00     0.105 A 
ENDROOT
BRANCH   1  11
HETATM   11  C3  UNL     1      18.632 -35.362  -3.554  1.00  0.00     0.068 C 
BRANCH  11  12
HETATM   12  C2  UNL     1      18.336 -34.792  -2.215  1.00  0.00     0.206 C 
BRANCH  12  13
HETATM   13  O1  UNL     1      18.225 -35.863  -1.296  1.00  0.00    -0.278 OA
BRANCH  13  14
HETATM   14  N3  UNL     1      17.014 -36.234  -0.792  1.00  0.00    -0.241 N 
HETATM   15  C1  UNL     1      16.285 -37.183  -1.214  1.00  0.00     0.221 C 
HETATM   16  N1  UNL     1      16.602 -38.042  -2.299  1.00  0.00    -0.065 NA
HETATM   17  N2  UNL     1      15.040 -37.405  -0.540  1.00  0.00    -0.065 NA
ATOM     18  H3  UNL     1      16.659 -35.697  -0.001  1.00  0.00     0.196 HD
ENDBRANCH  13  14
ENDBRANCH  12  13
ENDBRANCH  11  12
ENDBRANCH   1  11
TORSDOF 4
ENDMDL
MODEL 3
REMARK VINA RESULT: -7.433102841      2.610      5.836
REMARK  4 active torsions:
REMARK  status: ('A' for Active; 'I' for Inactive)
REMARK    1  A    between atoms: N3_4  and  O1_6 
REMARK    2  A    between atoms: O1_6  and  C2_7 
REMARK    3  A    between atoms: C2_7  and  C3_8 
REMARK    4  A    between atoms: C3_8  and  C4_9 
ROOT
HETATM    1  C4  UNL     1      19.073 -33.454  -3.071  1.00  0.00    -0.040 A 
HETATM    2  C5  UNL     1      18.566 -32.316  -2.500  1.00  0.00     0.012 A 
HETATM    3  C6  UNL     1      17.620 -32.477  -1.482  1.00  0.00     0.050 A 
HETATM    4  C7  UNL     1      17.223 -33.732  -1.081  1.00  0.00     0.111 A 
HETATM    5  N4  UNL     1      16.346 -34.112  -0.142  1.00  0.00    -0.351 N 
ATOM      6  H4  UNL     1      15.808 -33.483   0.453  1.00  0.00     0.166 HD
HETATM    7  C8  UNL     1      16.287 -35.475  -0.107  1.00  0.00     0.107 A 
HETATM    8  C9  UNL     1      17.155 -35.920  -1.053  1.00  0.00     0.115 A 
HETATM    9  N5  UNL     1      17.718 -34.848  -1.638  1.00  0.00    -0.317 N 
HETATM   10  C10 UNL     1      18.632 -34.675  -2.620  1.00  0.00     0.105 A 
ENDROOT
BRANCH   1  11
HETATM   11  C3  UNL     1      20.079 -33.444  -4.158  1.00  0.00     0.068 C 
BRANCH  11  12
HETATM   12  C2  UNL     1      19.499 -33.323  -5.520  1.00  0.00     0.206 C 
BRANCH  12  13
HETATM   13  O1  UNL     1      19.966 -34.411  -6.296  1.00  0.00    -0.278 OA
BRANCH  13  14
HETATM   14  N3  UNL     1      19.095 -35.235  -6.944  1.00  0.00    -0.241 N 
HETATM   15  C1  UNL     1      18.698 -36.372  -6.543  1.00  0.00     0.221 C 
HETATM   16  N1  UNL     1      19.092 -36.999  -5.331  1.00  0.00    -0.065 NA
HETATM   17  N2  UNL     1      17.775 -37.079  -7.382  1.00  0.00    -0.065 NA
ATOM     18  H3  UNL     1      18.728 -34.907  -7.837  1.00  0.00     0.196 HD
ENDBRANCH  13  14
ENDBRANCH  12  13
ENDBRANCH  11  12
ENDBRANCH   1  11
TORSDOF 4
ENDMDL
MODEL 4
REMARK VINA RESULT: -7.263854646      1.224      2.176
REMARK  4 active torsions:
REMARK  status: ('A' for Active; 'I' for Inactive)
REMARK    1  A    between atoms: N3_4  and  O1_6 
REMARK    2  A    between atoms: O1_6  and  C2_7 
REMARK    3  A    between atoms: C2_7  and  C3_8 
REMARK    4  A    between atoms: C3_8  and  C4_9 
ROOT
HETATM    1  C4  UNL     1      19.104 -34.256  -3.673  1.00  0.00    -0.040 A 
HETATM    2  C5  UNL     1      19.447 -33.220  -4.504  1.00  0.00     0.012 A 
HETATM    3  C6  UNL     1      19.589 -33.511  -5.864  1.00  0.00     0.050 A 
HETATM    4  C7  UNL     1      19.391 -34.788  -6.337  1.00  0.00     0.111 A 
HETATM    5  N4  UNL     1      19.473 -35.282  -7.580  1.00  0.00    -0.351 N 
ATOM      6  H4  UNL     1      19.710 -34.745  -8.414  1.00  0.00     0.166 HD
HETATM    7  C8  UNL     1      19.187 -36.616  -7.553  1.00  0.00     0.107 A 
HETATM    8  C9  UNL     1      18.928 -36.926  -6.257  1.00  0.00     0.115 A 
HETATM    9  N5  UNL     1      19.055 -35.803  -5.527  1.00  0.00    -0.317 N 
HETATM   10  C10 UNL     1      18.921 -35.506  -4.214  1.00  0.00     0.105 A 
ENDROOT
BRANCH   1  11
HETATM   11  C3  UNL     1      18.919 -34.104  -2.212  1.00  0.00     0.068 C 
BRANCH  11  12
HETATM   12  C2  UNL     1      17.585 -34.536  -1.722  1.00  0.00     0.206 C 
BRANCH  12  13
HETATM   13  O1  UNL     1      17.765 -35.679  -0.905  1.00  0.00    -0.278 OA
BRANCH  13  14
HETATM   14  N3  UNL     1      16.696 -36.342  -0.382  1.00  0.00    -0.241 N 
HETATM   15  C1  UNL     1      16.093 -37.328  -0.908  1.00  0.00     0.221 C 
HETATM   16  N1  UNL     1      16.427 -37.925  -2.152  1.00  0.00    -0.065 NA
HETATM   17  N2  UNL     1      14.986 -37.882  -0.187  1.00  0.00    -0.065 NA
ATOM     18  H3  UNL     1      16.346 -36.016   0.520  1.00  0.00     0.196 HD
ENDBRANCH  13  14
ENDBRANCH  12  13
ENDBRANCH  11  12
ENDBRANCH   1  11
TORSDOF 4
ENDMDL
MODEL 5
REMARK VINA RESULT: -7.214716657      3.090      6.172
REMARK  4 active torsions:
REMARK  status: ('A' for Active; 'I' for Inactive)
REMARK    1  A    between atoms: N3_4  and  O1_6 
REMARK    2  A    between atoms: O1_6  and  C2_7 
REMARK    3  A    between atoms: C2_7  and  C3_8 
REMARK    4  A    between atoms: C3_8  and  C4_9 
ROOT
HETATM    1  C4  UNL     1      19.218 -33.034  -3.185  1.00  0.00    -0.040 A 
HETATM    2  C5  UNL     1      19.131 -34.402  -3.162  1.00  0.00     0.012 A 
HETATM    3  C6  UNL     1      18.233 -34.972  -2.253  1.00  0.00     0.050 A 
HETATM    4  C7  UNL     1      17.474 -34.180  -1.422  1.00  0.00     0.111 A 
HETATM    5  N4  UNL     1      16.566 -34.508  -0.492  1.00  0.00    -0.351 N 
ATOM      6  H4  UNL     1      16.288 -35.458  -0.248  1.00  0.00     0.166 HD
HETATM    7  C8  UNL     1      16.074 -33.369   0.077  1.00  0.00     0.107 A 
HETATM    8  C9  UNL     1      16.707 -32.333  -0.532  1.00  0.00     0.115 A 
HETATM    9  N5  UNL     1      17.556 -32.841  -1.443  1.00  0.00    -0.317 N 
HETATM   10  C10 UNL     1      18.429 -32.305  -2.327  1.00  0.00     0.105 A 
ENDROOT
BRANCH   1  11
HETATM   11  C3  UNL     1      20.122 -32.288  -4.090  1.00  0.00     0.068 C 
BRANCH  11  12
HETATM   12  C2  UNL     1      19.997 -32.669  -5.520  1.00  0.00     0.206 C 
BRANCH  12  13
HETATM   13  O1  UNL     1      21.222 -33.247  -5.931  1.00  0.00    -0.278 OA
BRANCH  13  14
HETATM   14  N3  UNL     1      21.427 -34.592  -5.849  1.00  0.00    -0.241 N 
HETATM   15  C1  UNL     1      22.383 -35.170  -5.247  1.00  0.00     0.221 C 
HETATM   16  N1  UNL     1      23.425 -34.514  -4.540  1.00  0.00    -0.065 NA
HETATM   17  N2  UNL     1      22.412 -36.602  -5.283  1.00  0.00    -0.065 NA
ATOM     18  H3  UNL     1      20.746 -35.191  -6.316  1.00  0.00     0.196 HD
ENDBRANCH  13  14
ENDBRANCH  12  13
ENDBRANCH  11  12
ENDBRANCH   1  11
TORSDOF 4
ENDMDL
