MODEL 1
REMARK VINA RESULT: -4.349050467      0.000      0.000
REMARK  2 active torsions:
REMARK  status: ('A' for Active; 'I' for Inactive)
REMARK    1  A    between atoms: C1_2  and  N1_3 
REMARK    2  A    between atoms: N1_3  and  C2_5 
ROOT
HETATM    1  C2  UNL     1      15.350  25.108  23.579  1.00  0.00     0.087 C 
HETATM    2  C3  UNL     1      14.988  26.536  23.631  1.00  0.00     0.026 C 
HETATM    3  C4  UNL     1      15.867  27.439  24.398  1.00  0.00     0.004 C 
HETATM    4  C5  UNL     1      16.889  26.815  25.274  1.00  0.00     0.025 C 
HETATM    5  C6  UNL     1      16.227  26.260  26.540  1.00  0.00     0.077 C 
HETATM    6  C7  UNL     1      16.889  25.036  27.051  1.00  0.00     0.029 C 
HETATM    7  C8  UNL     1      16.204  23.749  26.732  1.00  0.00    -0.010 C 
HETATM    8  C9  UNL     1      14.704  23.908  27.021  1.00  0.00     0.029 C 
HETATM    9  C10 UNL     1      14.354  24.893  25.892  1.00  0.00     0.083 C 
HETATM   10  N2  UNL     1      14.835  26.157  26.280  1.00  0.00    -0.412 N 
ATOM     11  H2  UNL     1      14.214  26.961  26.368  1.00  0.00     0.154 HD
HETATM   12  C11 UNL     1      14.962  24.250  24.712  1.00  0.00     0.031 C 
HETATM   13  C12 UNL     1      16.154  23.450  25.254  1.00  0.00     0.013 C 
ENDROOT
BRANCH   1  14
HETATM   14  N1  UNL     1      14.762  24.561  22.341  1.00  0.00    -0.385 N 
ATOM     15  H1  UNL     1      14.806  23.556  22.173  1.00  0.00     0.160 HD
BRANCH  14  16
HETATM   16  C1  UNL     1      14.205  25.307  21.481  1.00  0.00     0.166 C 
HETATM   17  S1  UNL     1      13.195  25.929  20.400  1.00  0.00    -0.075 SA
ENDBRANCH  14  16
ENDBRANCH   1  14
TORSDOF 2
ENDMDL
MODEL 2
REMARK VINA RESULT: -4.285595971      2.678      5.138
REMARK  2 active torsions:
REMARK  status: ('A' for Active; 'I' for Inactive)
REMARK    1  A    between atoms: C1_2  and  N1_3 
REMARK    2  A    between atoms: N1_3  and  C2_5 
ROOT
HETATM    1  C2  UNL     1      15.218  25.075  22.970  1.00  0.00     0.087 C 
HETATM    2  C3  UNL     1      16.616  25.362  23.337  1.00  0.00     0.026 C 
HETATM    3  C4  UNL     1      17.082  26.757  23.228  1.00  0.00     0.004 C 
HETATM    4  C5  UNL     1      16.205  27.715  22.512  1.00  0.00     0.025 C 
HETATM    5  C6  UNL     1      16.301  27.485  20.999  1.00  0.00     0.077 C 
HETATM    6  C7  UNL     1      15.029  27.759  20.289  1.00  0.00     0.029 C 
HETATM    7  C8  UNL     1      14.225  26.559  19.915  1.00  0.00    -0.010 C 
HETATM    8  C9  UNL     1      15.164  25.514  19.295  1.00  0.00     0.029 C 
HETATM    9  C10 UNL     1      15.963  25.142  20.555  1.00  0.00     0.083 C 
HETATM   10  N2  UNL     1      16.863  26.196  20.802  1.00  0.00    -0.412 N 
ATOM     11  H2  UNL     1      17.870  26.041  20.839  1.00  0.00     0.154 HD
HETATM   12  C11 UNL     1      14.896  24.893  21.543  1.00  0.00     0.031 C 
HETATM   13  C12 UNL     1      13.724  25.782  21.107  1.00  0.00     0.013 C 
ENDROOT
BRANCH   1  14
HETATM   14  N1  UNL     1      14.821  23.860  23.708  1.00  0.00    -0.385 N 
ATOM     15  H1  UNL     1      14.175  23.203  23.271  1.00  0.00     0.160 HD
BRANCH  14  16
HETATM   16  C1  UNL     1      15.261  23.613  24.870  1.00  0.00     0.166 C 
HETATM   17  S1  UNL     1      15.464  23.536  26.460  1.00  0.00    -0.075 SA
ENDBRANCH  14  16
ENDBRANCH   1  14
TORSDOF 2
ENDMDL
MODEL 3
REMARK VINA RESULT: -4.206222594      2.942      5.224
REMARK  2 active torsions:
REMARK  status: ('A' for Active; 'I' for Inactive)
REMARK    1  A    between atoms: C1_2  and  N1_3 
REMARK    2  A    between atoms: N1_3  and  C2_5 
ROOT
HETATM    1  C2  UNL     1      15.116  25.048  21.947  1.00  0.00     0.087 C 
HETATM    2  C3  UNL     1      13.914  25.527  21.242  1.00  0.00     0.026 C 
HETATM    3  C4  UNL     1      14.036  25.828  19.804  1.00  0.00     0.004 C 
HETATM    4  C5  UNL     1      15.403  25.884  19.232  1.00  0.00     0.025 C 
HETATM    5  C6  UNL     1      16.090  27.192  19.641  1.00  0.00     0.077 C 
HETATM    6  C7  UNL     1      17.553  27.045  19.826  1.00  0.00     0.029 C 
HETATM    7  C8  UNL     1      18.020  26.942  21.240  1.00  0.00    -0.010 C 
HETATM    8  C9  UNL     1      17.313  28.025  22.068  1.00  0.00     0.029 C 
HETATM    9  C10 UNL     1      15.885  27.455  22.026  1.00  0.00     0.083 C 
HETATM   10  N2  UNL     1      15.369  27.721  20.743  1.00  0.00    -0.412 N 
ATOM     11  H2  UNL     1      14.518  28.268  20.613  1.00  0.00     0.154 HD
HETATM   12  C11 UNL     1      16.096  26.046  22.411  1.00  0.00     0.031 C 
HETATM   13  C12 UNL     1      17.518  25.707  21.945  1.00  0.00     0.013 C 
ENDROOT
BRANCH   1  14
HETATM   14  N1  UNL     1      14.650  24.261  23.105  1.00  0.00    -0.385 N 
ATOM     15  H1  UNL     1      13.734  23.815  23.066  1.00  0.00     0.160 HD
BRANCH  14  16
HETATM   16  C1  UNL     1      15.358  24.125  24.147  1.00  0.00     0.166 C 
HETATM   17  S1  UNL     1      16.209  23.524  25.368  1.00  0.00    -0.075 SA
ENDBRANCH  14  16
ENDBRANCH   1  14
TORSDOF 2
ENDMDL
MODEL 4
REMARK VINA RESULT: -4.170860926      2.582      4.448
REMARK  2 active torsions:
REMARK  status: ('A' for Active; 'I' for Inactive)
REMARK    1  A    between atoms: C1_2  and  N1_3 
REMARK    2  A    between atoms: N1_3  and  C2_5 
ROOT
HETATM    1  C2  UNL     1      15.225  25.760  22.238  1.00  0.00     0.087 C 
HETATM    2  C3  UNL     1      15.726  24.990  23.391  1.00  0.00     0.026 C 
HETATM    3  C4  UNL     1      16.512  25.711  24.409  1.00  0.00     0.004 C 
HETATM    4  C5  UNL     1      16.967  27.083  24.074  1.00  0.00     0.025 C 
HETATM    5  C6  UNL     1      18.148  27.020  23.097  1.00  0.00     0.077 C 
HETATM    6  C7  UNL     1      18.172  28.155  22.144  1.00  0.00     0.029 C 
HETATM    7  C8  UNL     1      17.667  27.859  20.771  1.00  0.00    -0.010 C 
HETATM    8  C9  UNL     1      18.283  26.533  20.300  1.00  0.00     0.029 C 
HETATM    9  C10 UNL     1      17.550  25.582  21.260  1.00  0.00     0.083 C 
HETATM   10  N2  UNL     1      18.154  25.721  22.524  1.00  0.00    -0.412 N 
ATOM     11  H2  UNL     1      18.575  24.927  23.005  1.00  0.00     0.154 HD
HETATM   12  C11 UNL     1      16.144  26.004  21.112  1.00  0.00     0.031 C 
HETATM   13  C12 UNL     1      16.204  27.491  20.740  1.00  0.00     0.013 C 
ENDROOT
BRANCH   1  14
HETATM   14  N1  UNL     1      14.030  25.054  21.736  1.00  0.00    -0.385 N 
ATOM     15  H1  UNL     1      13.801  24.135  22.114  1.00  0.00     0.160 HD
BRANCH  14  16
HETATM   16  C1  UNL     1      13.282  25.560  20.848  1.00  0.00     0.166 C 
HETATM   17  S1  UNL     1      12.035  25.929  19.907  1.00  0.00    -0.075 SA
ENDBRANCH  14  16
ENDBRANCH   1  14
TORSDOF 2
ENDMDL
MODEL 5
REMARK VINA RESULT: -4.116196195      3.300      4.491
REMARK  2 active torsions:
REMARK  status: ('A' for Active; 'I' for Inactive)
REMARK    1  A    between atoms: C1_2  and  N1_3 
REMARK    2  A    between atoms: N1_3  and  C2_5 
ROOT
HETATM    1  C2  UNL     1      13.998  26.509  19.854  1.00  0.00     0.087 C 
HETATM    2  C3  UNL     1      13.393  27.744  20.383  1.00  0.00     0.026 C 
HETATM    3  C4  UNL     1      14.276  28.906  20.592  1.00  0.00     0.004 C 
HETATM    4  C5  UNL     1      15.739  28.674  20.512  1.00  0.00     0.025 C 
HETATM    5  C6  UNL     1      16.231  27.975  21.785  1.00  0.00     0.077 C 
HETATM    6  C7  UNL     1      17.360  27.047  21.538  1.00  0.00     0.029 C 
HETATM    7  C8  UNL     1      17.006  25.599  21.479  1.00  0.00    -0.010 C 
HETATM    8  C9  UNL     1      16.076  25.274  22.657  1.00  0.00     0.029 C 
HETATM    9  C10 UNL     1      14.835  26.056  22.196  1.00  0.00     0.083 C 
HETATM   10  N2  UNL     1      15.093  27.420  22.428  1.00  0.00    -0.412 N 
ATOM     11  H2  UNL     1      14.492  27.983  23.030  1.00  0.00     0.154 HD
HETATM   12  C11 UNL     1      14.679  25.607  20.799  1.00  0.00     0.031 C 
HETATM   13  C12 UNL     1      16.095  25.253  20.327  1.00  0.00     0.013 C 
ENDROOT
BRANCH   1  14
HETATM   14  N1  UNL     1      12.923  25.763  19.171  1.00  0.00    -0.385 N 
ATOM     15  H1  UNL     1      13.071  25.445  18.213  1.00  0.00     0.160 HD
BRANCH  14  16
HETATM   16  C1  UNL     1      11.823  25.505  19.743  1.00  0.00     0.166 C 
HETATM   17  S1  UNL     1      10.409  24.866  20.155  1.00  0.00    -0.075 SA
ENDBRANCH  14  16
ENDBRANCH   1  14
TORSDOF 2
ENDMDL
