MODEL 1
REMARK VINA RESULT: -6.776383857      0.000      0.000
REMARK  5 active torsions:
REMARK  status: ('A' for Active; 'I' for Inactive)
REMARK    1  A    between atoms: C1_2  and  N2_4 
REMARK    2  A    between atoms: N3_8  and  C5_9 
REMARK    3  A    between atoms: C5_9  and  O1_10 
REMARK    4  A    between atoms: C5_9  and  N4_12 
REMARK    5  A    between atoms: N5_16  and  C9_17 
ROOT
HETATM    1  C5  UNL     1     -43.511   7.046 -16.779  1.00  0.00     0.223 C 
ENDROOT
BRANCH   1   2
HETATM    2  N3  UNL     1     -44.475   7.995 -17.028  1.00  0.00    -0.331 N 
HETATM    3  C4  UNL     1     -45.821   7.821 -16.442  1.00  0.00     0.129 C 
HETATM    4  C3  UNL     1     -46.333   9.148 -15.916  1.00  0.00     0.040 C 
HETATM    5  C2  UNL     1     -46.493  10.112 -17.046  1.00  0.00     0.128 C 
HETATM    6  N2  UNL     1     -45.596   9.808 -18.116  1.00  0.00    -0.344 N 
HETATM    7  C11 UNL     1     -44.312   9.173 -17.821  1.00  0.00     0.254 C 
BRANCH   6   8
HETATM    8  C1  UNL     1     -45.961  10.127 -19.446  1.00  0.00     0.184 C 
HETATM    9  N1  UNL     1     -45.238  11.040 -20.253  1.00  0.00    -0.070 NA
HETATM   10  S1  UNL     1     -47.275   9.433 -20.138  1.00  0.00    -0.044 SA
ENDBRANCH   6   8
ENDBRANCH   1   2
BRANCH   1  11
HETATM   11  O1  UNL     1     -43.973   5.821 -16.734  1.00  0.00    -0.332 OA
ATOM     12  H1  UNL     1     -44.307   5.567 -15.882  1.00  0.00     0.221 HD
ENDBRANCH   1  11
BRANCH   1  13
HETATM   13  N4  UNL     1     -42.125   7.113 -16.563  1.00  0.00    -0.310 N 
HETATM   14  C6  UNL     1     -41.529   7.973 -15.636  1.00  0.00     0.071 C 
HETATM   15  C7  UNL     1     -40.081   7.809 -15.305  1.00  0.00     0.065 C 
HETATM   16  C8  UNL     1     -39.291   6.880 -16.146  1.00  0.00     0.131 C 
HETATM   17  N5  UNL     1     -40.164   5.807 -16.561  1.00  0.00    -0.349 N 
HETATM   18  C10 UNL     1     -41.274   6.232 -17.375  1.00  0.00     0.258 C 
BRANCH  17  19
HETATM   19  C9  UNL     1     -39.989   4.441 -16.226  1.00  0.00     0.149 C 
HETATM   20  S2  UNL     1     -41.240   3.397 -16.233  1.00  0.00    -0.052 SA
HETATM   21  S3  UNL     1     -38.370   3.842 -15.786  1.00  0.00    -0.020 SA
ENDBRANCH  17  19
ENDBRANCH   1  13
TORSDOF 5
ENDMDL
MODEL 2
REMARK VINA RESULT: -6.502410148      1.939      7.180
REMARK  5 active torsions:
REMARK  status: ('A' for Active; 'I' for Inactive)
REMARK    1  A    between atoms: C1_2  and  N2_4 
REMARK    2  A    between atoms: N3_8  and  C5_9 
REMARK    3  A    between atoms: C5_9  and  O1_10 
REMARK    4  A    between atoms: C5_9  and  N4_12 
REMARK    5  A    between atoms: N5_16  and  C9_17 
ROOT
HETATM    1  C5  UNL     1     -42.507   7.080 -16.142  1.00  0.00     0.223 C 
ENDROOT
BRANCH   1   2
HETATM    2  N3  UNL     1     -41.267   6.501 -16.279  1.00  0.00    -0.331 N 
HETATM    3  C4  UNL     1     -40.381   6.953 -17.372  1.00  0.00     0.129 C 
HETATM    4  C3  UNL     1     -38.957   7.081 -16.866  1.00  0.00     0.040 C 
HETATM    5  C2  UNL     1     -38.448   5.740 -16.447  1.00  0.00     0.128 C 
HETATM    6  N2  UNL     1     -39.518   4.885 -16.038  1.00  0.00    -0.344 N 
HETATM    7  C11 UNL     1     -40.723   5.470 -15.452  1.00  0.00     0.254 C 
BRANCH   6   8
HETATM    8  C1  UNL     1     -39.397   3.485 -16.206  1.00  0.00     0.184 C 
HETATM    9  N1  UNL     1     -38.192   2.776 -15.973  1.00  0.00    -0.070 NA
HETATM   10  S1  UNL     1     -40.681   2.590 -16.691  1.00  0.00    -0.044 SA
ENDBRANCH   6   8
ENDBRANCH   1   2
BRANCH   1  11
HETATM   11  O1  UNL     1     -42.517   8.135 -15.366  1.00  0.00    -0.332 OA
ATOM     12  H1  UNL     1     -42.961   8.886 -15.742  1.00  0.00     0.221 HD
ENDBRANCH   1  11
BRANCH   1  13
HETATM   13  N4  UNL     1     -43.776   6.776 -16.663  1.00  0.00    -0.310 N 
HETATM   14  C6  UNL     1     -44.611   5.787 -16.135  1.00  0.00     0.071 C 
HETATM   15  C7  UNL     1     -46.028   5.695 -16.600  1.00  0.00     0.065 C 
HETATM   16  C8  UNL     1     -46.418   6.522 -17.766  1.00  0.00     0.131 C 
HETATM   17  N5  UNL     1     -45.647   7.742 -17.722  1.00  0.00    -0.349 N 
HETATM   18  C10 UNL     1     -44.223   7.544 -17.833  1.00  0.00     0.258 C 
BRANCH  17  19
HETATM   19  C9  UNL     1     -46.191   9.042 -17.582  1.00  0.00     0.149 C 
HETATM   20  S2  UNL     1     -46.537   9.963 -18.882  1.00  0.00    -0.052 SA
HETATM   21  S3  UNL     1     -46.509   9.696 -15.955  1.00  0.00    -0.020 SA
ENDBRANCH  17  19
ENDBRANCH   1  13
TORSDOF 5
ENDMDL
MODEL 3
REMARK VINA RESULT: -6.389587967      1.368      1.898
REMARK  5 active torsions:
REMARK  status: ('A' for Active; 'I' for Inactive)
REMARK    1  A    between atoms: C1_2  and  N2_4 
REMARK    2  A    between atoms: N3_8  and  C5_9 
REMARK    3  A    between atoms: C5_9  and  O1_10 
REMARK    4  A    between atoms: C5_9  and  N4_12 
REMARK    5  A    between atoms: N5_16  and  C9_17 
ROOT
HETATM    1  C5  UNL     1     -43.623   7.734 -16.196  1.00  0.00     0.223 C 
ENDROOT
BRANCH   1   2
HETATM    2  N3  UNL     1     -44.645   8.524 -16.671  1.00  0.00    -0.331 N 
HETATM    3  C4  UNL     1     -46.024   8.272 -16.203  1.00  0.00     0.129 C 
HETATM    4  C3  UNL     1     -46.725   9.587 -15.923  1.00  0.00     0.040 C 
HETATM    5  C2  UNL     1     -46.853  10.370 -17.189  1.00  0.00     0.128 C 
HETATM    6  N2  UNL     1     -45.812  10.037 -18.111  1.00  0.00    -0.344 N 
HETATM    7  C11 UNL     1     -44.513   9.600 -17.603  1.00  0.00     0.254 C 
BRANCH   6   8
HETATM    8  C1  UNL     1     -46.054  10.135 -19.502  1.00  0.00     0.184 C 
HETATM    9  N1  UNL     1     -45.296  10.963 -20.367  1.00  0.00    -0.070 NA
HETATM   10  S1  UNL     1     -47.257   9.269 -20.202  1.00  0.00    -0.044 SA
ENDBRANCH   6   8
ENDBRANCH   1   2
BRANCH   1  11
HETATM   11  O1  UNL     1     -43.377   7.894 -14.920  1.00  0.00    -0.332 OA
ATOM     12  H1  UNL     1     -43.840   7.283 -14.358  1.00  0.00     0.221 HD
ENDBRANCH   1  11
BRANCH   1  13
HETATM   13  N4  UNL     1     -42.782   6.783 -16.797  1.00  0.00    -0.310 N 
HETATM   14  C6  UNL     1     -42.525   6.736 -18.171  1.00  0.00     0.071 C 
HETATM   15  C7  UNL     1     -41.441   5.849 -18.687  1.00  0.00     0.065 C 
HETATM   16  C8  UNL     1     -40.835   4.889 -17.735  1.00  0.00     0.131 C 
HETATM   17  N5  UNL     1     -40.841   5.499 -16.426  1.00  0.00    -0.349 N 
HETATM   18  C10 UNL     1     -42.158   5.785 -15.917  1.00  0.00     0.258 C 
BRANCH  17  19
HETATM   19  C9  UNL     1     -39.685   5.808 -15.668  1.00  0.00     0.149 C 
HETATM   20  S2  UNL     1     -39.548   7.220 -14.865  1.00  0.00    -0.052 SA
HETATM   21  S3  UNL     1     -38.345   4.636 -15.584  1.00  0.00    -0.020 SA
ENDBRANCH  17  19
ENDBRANCH   1  13
TORSDOF 5
ENDMDL
MODEL 4
REMARK VINA RESULT: -6.379750696      1.684      1.918
REMARK  5 active torsions:
REMARK  status: ('A' for Active; 'I' for Inactive)
REMARK    1  A    between atoms: C1_2  and  N2_4 
REMARK    2  A    between atoms: N3_8  and  C5_9 
REMARK    3  A    between atoms: C5_9  and  O1_10 
REMARK    4  A    between atoms: C5_9  and  N4_12 
REMARK    5  A    between atoms: N5_16  and  C9_17 
ROOT
HETATM    1  C5  UNL     1     -41.888   8.624 -17.019  1.00  0.00     0.223 C 
ENDROOT
BRANCH   1   2
HETATM    2  N3  UNL     1     -43.190   8.432 -17.420  1.00  0.00    -0.331 N 
HETATM    3  C4  UNL     1     -43.623   7.078 -17.826  1.00  0.00     0.129 C 
HETATM    4  C3  UNL     1     -45.000   6.784 -17.262  1.00  0.00     0.040 C 
HETATM    5  C2  UNL     1     -45.997   7.732 -17.846  1.00  0.00     0.128 C 
HETATM    6  N2  UNL     1     -45.380   8.964 -18.224  1.00  0.00    -0.344 N 
HETATM    7  C11 UNL     1     -44.205   9.435 -17.492  1.00  0.00     0.254 C 
BRANCH   6   8
HETATM    8  C1  UNL     1     -45.914   9.711 -19.301  1.00  0.00     0.184 C 
HETATM    9  N1  UNL     1     -45.264  10.838 -19.864  1.00  0.00    -0.070 NA
HETATM   10  S1  UNL     1     -47.353   9.298 -19.969  1.00  0.00    -0.044 SA
ENDBRANCH   6   8
ENDBRANCH   1   2
BRANCH   1  11
HETATM   11  O1  UNL     1     -41.483   9.866 -17.110  1.00  0.00    -0.332 OA
ATOM     12  H1  UNL     1     -42.113  10.448 -17.519  1.00  0.00     0.221 HD
ENDBRANCH   1  11
BRANCH   1  13
HETATM   13  N4  UNL     1     -40.894   7.761 -16.528  1.00  0.00    -0.310 N 
HETATM   14  C6  UNL     1     -40.183   7.994 -15.347  1.00  0.00     0.071 C 
HETATM   15  C7  UNL     1     -39.320   6.914 -14.782  1.00  0.00     0.065 C 
HETATM   16  C8  UNL     1     -39.085   5.718 -15.625  1.00  0.00     0.131 C 
HETATM   17  N5  UNL     1     -40.274   5.490 -16.411  1.00  0.00    -0.349 N 
HETATM   18  C10 UNL     1     -40.593   6.562 -17.321  1.00  0.00     0.258 C 
BRANCH  17  19
HETATM   19  C9  UNL     1     -41.091   4.335 -16.335  1.00  0.00     0.149 C 
HETATM   20  S2  UNL     1     -42.568   4.382 -15.649  1.00  0.00    -0.052 SA
HETATM   21  S3  UNL     1     -40.498   2.791 -16.999  1.00  0.00    -0.020 SA
ENDBRANCH  17  19
ENDBRANCH   1  13
TORSDOF 5
ENDMDL
MODEL 5
REMARK VINA RESULT: -6.340128229      4.830      9.577
REMARK  5 active torsions:
REMARK  status: ('A' for Active; 'I' for Inactive)
REMARK    1  A    between atoms: C1_2  and  N2_4 
REMARK    2  A    between atoms: N3_8  and  C5_9 
REMARK    3  A    between atoms: C5_9  and  O1_10 
REMARK    4  A    between atoms: C5_9  and  N4_12 
REMARK    5  A    between atoms: N5_16  and  C9_17 
ROOT
HETATM    1  C5  UNL     1     -37.377   4.424 -15.452  1.00  0.00     0.223 C 
ENDROOT
BRANCH   1   2
HETATM    2  N3  UNL     1     -36.197   3.760 -15.695  1.00  0.00    -0.331 N 
HETATM    3  C4  UNL     1     -34.934   4.527 -15.718  1.00  0.00     0.129 C 
HETATM    4  C3  UNL     1     -33.845   3.755 -14.998  1.00  0.00     0.040 C 
HETATM    5  C2  UNL     1     -33.569   2.478 -15.723  1.00  0.00     0.128 C 
HETATM    6  N2  UNL     1     -34.721   2.031 -16.441  1.00  0.00    -0.344 N 
HETATM    7  C11 UNL     1     -36.054   2.359 -15.939  1.00  0.00     0.254 C 
BRANCH   6   8
HETATM    8  C1  UNL     1     -34.555   1.276 -17.627  1.00  0.00     0.184 C 
HETATM    9  N1  UNL     1     -33.450   1.433 -18.500  1.00  0.00    -0.070 NA
HETATM   10  S1  UNL     1     -35.666   0.152 -18.061  1.00  0.00    -0.044 SA
ENDBRANCH   6   8
ENDBRANCH   1   2
BRANCH   1  11
HETATM   11  O1  UNL     1     -37.413   5.035 -14.294  1.00  0.00    -0.332 OA
ATOM     12  H1  UNL     1     -36.634   5.543 -14.102  1.00  0.00     0.221 HD
ENDBRANCH   1  11
BRANCH   1  13
HETATM   13  N4  UNL     1     -38.561   4.586 -16.190  1.00  0.00    -0.310 N 
HETATM   14  C6  UNL     1     -39.402   3.526 -16.544  1.00  0.00     0.071 C 
HETATM   15  C7  UNL     1     -40.750   3.816 -17.118  1.00  0.00     0.065 C 
HETATM   16  C8  UNL     1     -41.044   5.220 -17.491  1.00  0.00     0.131 C 
HETATM   17  N5  UNL     1     -40.344   6.080 -16.566  1.00  0.00    -0.349 N 
HETATM   18  C10 UNL     1     -38.910   5.949 -16.611  1.00  0.00     0.258 C 
BRANCH  17  19
HETATM   19  C9  UNL     1     -40.964   6.989 -15.674  1.00  0.00     0.149 C 
HETATM   20  S2  UNL     1     -40.532   8.559 -15.624  1.00  0.00    -0.052 SA
HETATM   21  S3  UNL     1     -42.246   6.413 -14.577  1.00  0.00    -0.020 SA
ENDBRANCH  17  19
ENDBRANCH   1  13
TORSDOF 5
ENDMDL
