MODEL 1
REMARK VINA RESULT: -9.368326513      0.000      0.000
REMARK  6 active torsions:
REMARK  status: ('A' for Active; 'I' for Inactive)
REMARK    1  A    between atoms: C2_2  and  C3_3 
REMARK    2  A    between atoms: C13_14  and  O2_15 
REMARK    3  A    between atoms: O2_15  and  C14_16 
REMARK       I    between atoms: C14_16  and  N1_18 
REMARK    4  A    between atoms: C22_26  and  O4_27 
REMARK    5  A    between atoms: C25_31  and  O5_32 
REMARK    6  A    between atoms: C26_34  and  O6_35 
ROOT
HETATM    1  C3  UNL     1      40.276 111.317  54.793  1.00  0.00     0.152 C 
HETATM    2  O1  UNL     1      39.395 111.099  53.807  1.00  0.00    -0.375 OA
HETATM    3  C4  UNL     1      39.378 109.784  53.369  1.00  0.00     0.133 C 
HETATM    4  C5  UNL     1      40.463 109.114  54.087  1.00  0.00     0.026 C 
HETATM    5  C6  UNL     1      40.143 108.200  55.178  1.00  0.00     0.009 C 
HETATM    6  C7  UNL     1      38.711 107.723  55.254  1.00  0.00     0.011 C 
HETATM    7  C8  UNL     1      38.051 107.711  53.856  1.00  0.00    -0.029 C 
HETATM    8  C9  UNL     1      39.005 106.968  52.999  1.00  0.00     0.016 C 
HETATM    9  C10 UNL     1      37.967 109.203  53.507  1.00  0.00     0.035 C 
HETATM   10  C11 UNL     1      36.984 109.654  52.542  1.00  0.00    -0.003 C 
HETATM   11  C12 UNL     1      36.150 110.798  53.190  1.00  0.00     0.019 C 
HETATM   12  C13 UNL     1      37.385 110.305  51.254  1.00  0.00     0.143 C 
HETATM   13  C17 UNL     1      37.638 109.227  50.232  1.00  0.00     0.034 C 
HETATM   14  C18 UNL     1      36.583 108.209  50.642  1.00  0.00     0.013 C 
HETATM   15  C19 UNL     1      36.038 108.596  51.980  1.00  0.00    -0.027 C 
HETATM   16  C20 UNL     1      34.710 109.307  51.656  1.00  0.00     0.016 C 
HETATM   17  C21 UNL     1      35.709 107.454  52.897  1.00  0.00     0.033 C 
HETATM   18  C22 UNL     1      35.147 106.333  52.088  1.00  0.00     0.135 C 
HETATM   19  C23 UNL     1      34.060 105.525  52.715  1.00  0.00     0.015 C 
HETATM   20  C24 UNL     1      32.990 106.196  53.442  1.00  0.00     0.021 C 
HETATM   21  C25 UNL     1      33.380 104.687  51.613  1.00  0.00     0.158 C 
HETATM   22  C26 UNL     1      32.790 103.560  52.460  1.00  0.00     0.155 C 
HETATM   23  C27 UNL     1      33.661 103.433  53.696  1.00  0.00    -0.015 C 
HETATM   24  C28 UNL     1      32.913 103.529  54.971  1.00  0.00     0.018 C 
HETATM   25  C29 UNL     1      34.265 102.018  53.649  1.00  0.00     0.018 C 
HETATM   26  C30 UNL     1      34.731 104.395  53.448  1.00  0.00     0.009 C 
HETATM   27  C31 UNL     1      35.472 104.960  54.609  1.00  0.00     0.007 C 
HETATM   28  C32 UNL     1      36.753 105.624  54.272  1.00  0.00     0.011 C 
HETATM   29  C33 UNL     1      36.663 107.119  53.980  1.00  0.00    -0.029 C 
HETATM   30  C34 UNL     1      36.178 107.629  55.360  1.00  0.00     0.016 C 
HETATM   31  C35 UNL     1      41.324 110.285  54.599  1.00  0.00    -0.012 C 
HETATM   32  C36 UNL     1      42.159 109.946  55.771  1.00  0.00     0.018 C 
HETATM   33  C37 UNL     1      42.255 110.781  53.492  1.00  0.00     0.018 C 
ENDROOT
BRANCH  12  34
HETATM   34  O2  UNL     1      38.245 111.355  51.224  1.00  0.00    -0.298 OA
BRANCH  34  35
HETATM   35  C14 UNL     1      38.012 112.564  50.670  1.00  0.00     0.362 C 
HETATM   36  O3  UNL     1      36.944 112.736  50.011  1.00  0.00    -0.238 OA
HETATM   37  N1  UNL     1      38.900 113.687  50.775  1.00  0.00    -0.337 N 
HETATM   38  C15 UNL     1      40.153 113.624  51.497  1.00  0.00     0.154 C 
HETATM   39  C16 UNL     1      38.571 114.951  50.150  1.00  0.00     0.154 C 
ENDBRANCH  34  35
ENDBRANCH  12  34
BRANCH  18  40
HETATM   40  O4  UNL     1      36.013 105.393  51.570  1.00  0.00    -0.394 OA
ATOM     41  H4  UNL     1      35.892 104.482  51.811  1.00  0.00     0.210 HD
ENDBRANCH  18  40
BRANCH   1  42
HETATM   42  C2  UNL     1      39.710 111.390  56.154  1.00  0.00    -0.005 C 
HETATM   43  C1  UNL     1      38.424 111.563  56.403  1.00  0.00     0.009 C 
ENDBRANCH   1  42
BRANCH  21  44
HETATM   44  O5  UNL     1      32.385 105.466  51.062  1.00  0.00    -0.392 OA
ATOM     45  H5  UNL     1      31.790 104.882  50.607  1.00  0.00     0.210 HD
ENDBRANCH  21  44
BRANCH  22  46
HETATM   46  O6  UNL     1      32.878 102.412  51.637  1.00  0.00    -0.392 OA
ATOM     47  H6  UNL     1      32.953 101.687  52.245  1.00  0.00     0.210 HD
ENDBRANCH  22  46
TORSDOF 6
ENDMDL
MODEL 2
REMARK VINA RESULT: -9.131245998      6.147     13.429
REMARK  6 active torsions:
REMARK  status: ('A' for Active; 'I' for Inactive)
REMARK    1  A    between atoms: C2_2  and  C3_3 
REMARK    2  A    between atoms: C13_14  and  O2_15 
REMARK    3  A    between atoms: O2_15  and  C14_16 
REMARK       I    between atoms: C14_16  and  N1_18 
REMARK    4  A    between atoms: C22_26  and  O4_27 
REMARK    5  A    between atoms: C25_31  and  O5_32 
REMARK    6  A    between atoms: C26_34  and  O6_35 
ROOT
HETATM    1  C3  UNL     1      37.882 116.722  52.332  1.00  0.00     0.152 C 
HETATM    2  O1  UNL     1      39.064 116.102  52.220  1.00  0.00    -0.375 OA
HETATM    3  C4  UNL     1      39.684 116.322  51.000  1.00  0.00     0.133 C 
HETATM    4  C5  UNL     1      38.721 117.079  50.198  1.00  0.00     0.026 C 
HETATM    5  C6  UNL     1      38.943 118.503  49.970  1.00  0.00     0.009 C 
HETATM    6  C7  UNL     1      40.332 119.020  50.261  1.00  0.00     0.011 C 
HETATM    7  C8  UNL     1      41.392 117.910  50.076  1.00  0.00    -0.029 C 
HETATM    8  C9  UNL     1      41.110 117.345  48.736  1.00  0.00     0.016 C 
HETATM    9  C10 UNL     1      41.069 116.937  51.218  1.00  0.00     0.035 C 
HETATM   10  C11 UNL     1      42.103 116.047  51.709  1.00  0.00    -0.003 C 
HETATM   11  C12 UNL     1      42.213 116.227  53.251  1.00  0.00     0.019 C 
HETATM   12  C13 UNL     1      41.969 114.558  51.617  1.00  0.00     0.143 C 
HETATM   13  C17 UNL     1      42.471 114.115  50.267  1.00  0.00     0.034 C 
HETATM   14  C18 UNL     1      43.604 115.110  50.057  1.00  0.00     0.013 C 
HETATM   15  C19 UNL     1      43.487 116.192  51.082  1.00  0.00    -0.027 C 
HETATM   16  C20 UNL     1      44.513 115.800  52.164  1.00  0.00     0.016 C 
HETATM   17  C21 UNL     1      43.856 117.569  50.611  1.00  0.00     0.033 C 
HETATM   18  C22 UNL     1      45.012 117.464  49.673  1.00  0.00     0.135 C 
HETATM   19  C23 UNL     1      46.025 118.558  49.724  1.00  0.00     0.015 C 
HETATM   20  C24 UNL     1      46.479 119.062  51.014  1.00  0.00     0.021 C 
HETATM   21  C25 UNL     1      47.287 118.087  48.971  1.00  0.00     0.158 C 
HETATM   22  C26 UNL     1      47.901 119.438  48.608  1.00  0.00     0.155 C 
HETATM   23  C27 UNL     1      46.761 120.436  48.528  1.00  0.00    -0.015 C 
HETATM   24  C28 UNL     1      46.945 121.630  49.386  1.00  0.00     0.018 C 
HETATM   25  C29 UNL     1      46.739 120.943  47.075  1.00  0.00     0.018 C 
HETATM   26  C30 UNL     1      45.579 119.606  48.741  1.00  0.00     0.009 C 
HETATM   27  C31 UNL     1      44.338 120.243  49.262  1.00  0.00     0.007 C 
HETATM   28  C32 UNL     1      43.105 119.437  49.103  1.00  0.00     0.011 C 
HETATM   29  C33 UNL     1      42.767 118.514  50.270  1.00  0.00    -0.029 C 
HETATM   30  C34 UNL     1      42.542 119.567  51.383  1.00  0.00     0.016 C 
HETATM   31  C35 UNL     1      37.388 116.853  50.939  1.00  0.00    -0.012 C 
HETATM   32  C36 UNL     1      36.375 117.897  50.678  1.00  0.00     0.018 C 
HETATM   33  C37 UNL     1      36.783 115.507  50.539  1.00  0.00     0.018 C 
ENDROOT
BRANCH  12  34
HETATM   34  O2  UNL     1      40.866 113.913  52.073  1.00  0.00    -0.298 OA
BRANCH  34  35
HETATM   35  C14 UNL     1      40.847 112.779  52.806  1.00  0.00     0.362 C 
HETATM   36  O3  UNL     1      41.940 112.338  53.271  1.00  0.00    -0.238 OA
HETATM   37  N1  UNL     1      39.662 112.025  53.101  1.00  0.00    -0.337 N 
HETATM   38  C15 UNL     1      38.351 112.418  52.629  1.00  0.00     0.154 C 
HETATM   39  C16 UNL     1      39.732 110.819  53.899  1.00  0.00     0.154 C 
ENDBRANCH  34  35
ENDBRANCH  12  34
BRANCH  18  40
HETATM   40  O4  UNL     1      44.757 117.300  48.328  1.00  0.00    -0.394 OA
ATOM     41  H4  UNL     1      43.954 117.659  47.970  1.00  0.00     0.210 HD
ENDBRANCH  18  40
BRANCH   1  42
HETATM   42  C2  UNL     1      37.884 117.972  53.117  1.00  0.00    -0.005 C 
HETATM   43  C1  UNL     1      38.942 118.425  53.766  1.00  0.00     0.009 C 
ENDBRANCH   1  42
BRANCH  21  44
HETATM   44  O5  UNL     1      48.075 117.412  49.879  1.00  0.00    -0.392 OA
ATOM     45  H5  UNL     1      48.431 118.057  50.478  1.00  0.00     0.210 HD
ENDBRANCH  21  44
BRANCH  22  46
HETATM   46  O6  UNL     1      48.504 119.228  47.345  1.00  0.00    -0.392 OA
ATOM     47  H6  UNL     1      48.529 120.089  46.946  1.00  0.00     0.210 HD
ENDBRANCH  22  46
TORSDOF 6
ENDMDL
MODEL 3
REMARK VINA RESULT: -8.573995589      7.147     13.800
REMARK  6 active torsions:
REMARK  status: ('A' for Active; 'I' for Inactive)
REMARK    1  A    between atoms: C2_2  and  C3_3 
REMARK    2  A    between atoms: C13_14  and  O2_15 
REMARK    3  A    between atoms: O2_15  and  C14_16 
REMARK       I    between atoms: C14_16  and  N1_18 
REMARK    4  A    between atoms: C22_26  and  O4_27 
REMARK    5  A    between atoms: C25_31  and  O5_32 
REMARK    6  A    between atoms: C26_34  and  O6_35 
ROOT
HETATM    1  C3  UNL     1      38.436 116.850  52.177  1.00  0.00     0.152 C 
HETATM    2  O1  UNL     1      39.647 116.279  52.217  1.00  0.00    -0.375 OA
HETATM    3  C4  UNL     1      40.344 116.390  51.025  1.00  0.00     0.133 C 
HETATM    4  C5  UNL     1      39.413 117.006  50.078  1.00  0.00     0.026 C 
HETATM    5  C6  UNL     1      39.594 118.404  49.702  1.00  0.00     0.009 C 
HETATM    6  C7  UNL     1      40.937 119.016  50.026  1.00  0.00     0.011 C 
HETATM    7  C8  UNL     1      42.051 117.943  50.042  1.00  0.00    -0.029 C 
HETATM    8  C9  UNL     1      41.889 117.219  48.759  1.00  0.00     0.016 C 
HETATM    9  C10 UNL     1      41.685 117.091  51.263  1.00  0.00     0.035 C 
HETATM   10  C11 UNL     1      42.715 116.311  51.922  1.00  0.00    -0.003 C 
HETATM   11  C12 UNL     1      42.706 116.668  53.437  1.00  0.00     0.019 C 
HETATM   12  C13 UNL     1      42.647 114.817  51.993  1.00  0.00     0.143 C 
HETATM   13  C17 UNL     1      43.262 114.250  50.740  1.00  0.00     0.034 C 
HETATM   14  C18 UNL     1      44.367 115.267  50.494  1.00  0.00     0.013 C 
HETATM   15  C19 UNL     1      44.134 116.451  51.378  1.00  0.00    -0.027 C 
HETATM   16  C20 UNL     1      45.093 116.232  52.565  1.00  0.00     0.016 C 
HETATM   17  C21 UNL     1      44.481 117.782  50.777  1.00  0.00     0.033 C 
HETATM   18  C22 UNL     1      45.705 117.628  49.938  1.00  0.00     0.135 C 
HETATM   19  C23 UNL     1      46.668 118.768  49.932  1.00  0.00     0.015 C 
HETATM   20  C24 UNL     1      47.007 119.434  51.182  1.00  0.00     0.021 C 
HETATM   21  C25 UNL     1      47.998 118.276  49.325  1.00  0.00     0.158 C 
HETATM   22  C26 UNL     1      48.584 119.606  48.850  1.00  0.00     0.155 C 
HETATM   23  C27 UNL     1      47.414 120.533  48.580  1.00  0.00    -0.015 C 
HETATM   24  C28 UNL     1      47.487 121.823  49.305  1.00  0.00     0.018 C 
HETATM   25  C29 UNL     1      47.477 120.872  47.080  1.00  0.00     0.018 C 
HETATM   26  C30 UNL     1      46.254 119.677  48.806  1.00  0.00     0.009 C 
HETATM   27  C31 UNL     1      44.954 120.309  49.165  1.00  0.00     0.007 C 
HETATM   28  C32 UNL     1      43.768 119.432  49.018  1.00  0.00     0.011 C 
HETATM   29  C33 UNL     1      43.383 118.630  50.257  1.00  0.00    -0.029 C 
HETATM   30  C34 UNL     1      43.036 119.790  51.224  1.00  0.00     0.016 C 
HETATM   31  C35 UNL     1      38.040 116.801  50.748  1.00  0.00    -0.012 C 
HETATM   32  C36 UNL     1      37.008 117.760  50.301  1.00  0.00     0.018 C 
HETATM   33  C37 UNL     1      37.519 115.391  50.465  1.00  0.00     0.018 C 
ENDROOT
BRANCH  12  34
HETATM   34  O2  UNL     1      41.539 114.175  52.445  1.00  0.00    -0.298 OA
BRANCH  34  35
HETATM   35  C14 UNL     1      41.488 112.921  52.942  1.00  0.00     0.362 C 
HETATM   36  O3  UNL     1      40.535 112.165  52.590  1.00  0.00    -0.238 OA
HETATM   37  N1  UNL     1      42.450 112.373  53.857  1.00  0.00    -0.337 N 
HETATM   38  C15 UNL     1      43.584 113.130  54.340  1.00  0.00     0.154 C 
HETATM   39  C16 UNL     1      42.320 111.015  54.341  1.00  0.00     0.154 C 
ENDBRANCH  34  35
ENDBRANCH  12  34
BRANCH  18  40
HETATM   40  O4  UNL     1      45.555 117.302  48.607  1.00  0.00    -0.394 OA
ATOM     41  H4  UNL     1      45.206 117.958  48.015  1.00  0.00     0.210 HD
ENDBRANCH  18  40
BRANCH   1  42
HETATM   42  C2  UNL     1      38.332 118.179  52.812  1.00  0.00    -0.005 C 
HETATM   43  C1  UNL     1      39.210 118.644  53.681  1.00  0.00     0.009 C 
ENDBRANCH   1  42
BRANCH  21  44
HETATM   44  O5  UNL     1      48.745 117.745  50.355  1.00  0.00    -0.392 OA
ATOM     45  H5  UNL     1      49.011 116.872  50.089  1.00  0.00     0.210 HD
ENDBRANCH  21  44
BRANCH  22  46
HETATM   46  O6  UNL     1      49.284 119.284  47.664  1.00  0.00    -0.392 OA
ATOM     47  H6  UNL     1      49.913 118.624  47.929  1.00  0.00     0.210 HD
ENDBRANCH  22  46
TORSDOF 6
ENDMDL
MODEL 4
REMARK VINA RESULT: -8.240377590      6.004     12.911
REMARK  6 active torsions:
REMARK  status: ('A' for Active; 'I' for Inactive)
REMARK    1  A    between atoms: C2_2  and  C3_3 
REMARK    2  A    between atoms: C13_14  and  O2_15 
REMARK    3  A    between atoms: O2_15  and  C14_16 
REMARK       I    between atoms: C14_16  and  N1_18 
REMARK    4  A    between atoms: C22_26  and  O4_27 
REMARK    5  A    between atoms: C25_31  and  O5_32 
REMARK    6  A    between atoms: C26_34  and  O6_35 
ROOT
HETATM    1  C3  UNL     1      38.260 117.930  52.363  1.00  0.00     0.152 C 
HETATM    2  O1  UNL     1      39.050 116.892  52.055  1.00  0.00    -0.375 OA
HETATM    3  C4  UNL     1      39.808 117.101  50.913  1.00  0.00     0.133 C 
HETATM    4  C5  UNL     1      39.356 118.382  50.368  1.00  0.00     0.026 C 
HETATM    5  C6  UNL     1      40.205 119.560  50.507  1.00  0.00     0.009 C 
HETATM    6  C7  UNL     1      41.648 119.306  50.876  1.00  0.00     0.011 C 
HETATM    7  C8  UNL     1      42.117 117.921  50.375  1.00  0.00    -0.029 C 
HETATM    8  C9  UNL     1      41.732 117.892  48.944  1.00  0.00     0.016 C 
HETATM    9  C10 UNL     1      41.298 116.952  51.237  1.00  0.00     0.035 C 
HETATM   10  C11 UNL     1      41.782 115.601  51.446  1.00  0.00    -0.003 C 
HETATM   11  C12 UNL     1      41.825 115.327  52.978  1.00  0.00     0.019 C 
HETATM   12  C13 UNL     1      41.011 114.406  50.977  1.00  0.00     0.143 C 
HETATM   13  C17 UNL     1      41.381 114.131  49.542  1.00  0.00     0.034 C 
HETATM   14  C18 UNL     1      42.851 114.526  49.559  1.00  0.00     0.013 C 
HETATM   15  C19 UNL     1      43.136 115.256  50.833  1.00  0.00    -0.027 C 
HETATM   16  C20 UNL     1      43.782 114.192  51.742  1.00  0.00     0.016 C 
HETATM   17  C21 UNL     1      44.117 116.387  50.721  1.00  0.00     0.033 C 
HETATM   18  C22 UNL     1      45.184 116.006  49.750  1.00  0.00     0.135 C 
HETATM   19  C23 UNL     1      46.568 116.475  50.049  1.00  0.00     0.015 C 
HETATM   20  C24 UNL     1      47.083 116.387  51.409  1.00  0.00     0.021 C 
HETATM   21  C25 UNL     1      47.551 115.688  49.158  1.00  0.00     0.158 C 
HETATM   22  C26 UNL     1      48.730 116.660  49.136  1.00  0.00     0.155 C 
HETATM   23  C27 UNL     1      48.162 118.049  49.355  1.00  0.00    -0.015 C 
HETATM   24  C28 UNL     1      48.780 118.781  50.487  1.00  0.00     0.018 C 
HETATM   25  C29 UNL     1      48.495 118.851  48.084  1.00  0.00     0.018 C 
HETATM   26  C30 UNL     1      46.722 117.818  49.385  1.00  0.00     0.009 C 
HETATM   27  C31 UNL     1      45.851 118.796  50.094  1.00  0.00     0.007 C 
HETATM   28  C32 UNL     1      44.408 118.699  49.774  1.00  0.00     0.011 C 
HETATM   29  C33 UNL     1      43.594 117.772  50.672  1.00  0.00    -0.029 C 
HETATM   30  C34 UNL     1      43.762 118.505  52.027  1.00  0.00     0.016 C 
HETATM   31  C35 UNL     1      38.001 118.606  51.068  1.00  0.00    -0.012 C 
HETATM   32  C36 UNL     1      37.583 120.023  51.121  1.00  0.00     0.018 C 
HETATM   33  C37 UNL     1      36.900 117.822  50.354  1.00  0.00     0.018 C 
ENDROOT
BRANCH  12  34
HETATM   34  O2  UNL     1      39.700 114.237  51.287  1.00  0.00    -0.298 OA
BRANCH  34  35
HETATM   35  C14 UNL     1      39.006 113.081  51.227  1.00  0.00     0.362 C 
HETATM   36  O3  UNL     1      39.546 112.024  51.668  1.00  0.00    -0.238 OA
HETATM   37  N1  UNL     1      37.680 112.960  50.690  1.00  0.00    -0.337 N 
HETATM   38  C15 UNL     1      36.951 114.089  50.153  1.00  0.00     0.154 C 
HETATM   39  C16 UNL     1      37.006 111.679  50.666  1.00  0.00     0.154 C 
ENDBRANCH  34  35
ENDBRANCH  12  34
BRANCH  18  40
HETATM   40  O4  UNL     1      45.002 116.310  48.418  1.00  0.00    -0.394 OA
ATOM     41  H4  UNL     1      45.475 117.047  48.051  1.00  0.00     0.210 HD
ENDBRANCH  18  40
BRANCH   1  42
HETATM   42  C2  UNL     1      38.748 118.808  53.444  1.00  0.00    -0.005 C 
HETATM   43  C1  UNL     1      39.915 118.653  54.043  1.00  0.00     0.009 C 
ENDBRANCH   1  42
BRANCH  21  44
HETATM   44  O5  UNL     1      47.875 114.530  49.833  1.00  0.00    -0.392 OA
ATOM     45  H5  UNL     1      48.801 114.370  49.689  1.00  0.00     0.210 HD
ENDBRANCH  21  44
BRANCH  22  46
HETATM   46  O6  UNL     1      49.285 116.518  47.843  1.00  0.00    -0.392 OA
ATOM     47  H6  UNL     1      50.205 116.727  47.953  1.00  0.00     0.210 HD
ENDBRANCH  22  46
TORSDOF 6
ENDMDL
MODEL 5
REMARK VINA RESULT: -7.884219992      3.177      8.636
REMARK  6 active torsions:
REMARK  status: ('A' for Active; 'I' for Inactive)
REMARK    1  A    between atoms: C2_2  and  C3_3 
REMARK    2  A    between atoms: C13_14  and  O2_15 
REMARK    3  A    between atoms: O2_15  and  C14_16 
REMARK       I    between atoms: C14_16  and  N1_18 
REMARK    4  A    between atoms: C22_26  and  O4_27 
REMARK    5  A    between atoms: C25_31  and  O5_32 
REMARK    6  A    between atoms: C26_34  and  O6_35 
ROOT
HETATM    1  C3  UNL     1      34.141 102.345  55.128  1.00  0.00     0.152 C 
HETATM    2  O1  UNL     1      35.376 102.864  55.085  1.00  0.00    -0.375 OA
HETATM    3  C4  UNL     1      35.651 103.525  53.898  1.00  0.00     0.133 C 
HETATM    4  C5  UNL     1      34.488 103.295  53.039  1.00  0.00     0.026 C 
HETATM    5  C6  UNL     1      33.541 104.381  52.810  1.00  0.00     0.009 C 
HETATM    6  C7  UNL     1      34.015 105.770  53.171  1.00  0.00     0.011 C 
HETATM    7  C8  UNL     1      35.552 105.884  53.052  1.00  0.00    -0.029 C 
HETATM    8  C9  UNL     1      35.863 105.354  51.704  1.00  0.00     0.016 C 
HETATM    9  C10 UNL     1      36.049 104.976  54.184  1.00  0.00     0.035 C 
HETATM   10  C11 UNL     1      37.372 105.187  54.738  1.00  0.00    -0.003 C 
HETATM   11  C12 UNL     1      37.240 105.332  56.282  1.00  0.00     0.019 C 
HETATM   12  C13 UNL     1      38.438 104.138  54.653  1.00  0.00     0.143 C 
HETATM   13  C17 UNL     1      39.154 104.290  53.336  1.00  0.00     0.034 C 
HETATM   14  C18 UNL     1      39.117 105.803  53.177  1.00  0.00     0.013 C 
HETATM   15  C19 UNL     1      38.166 106.368  54.185  1.00  0.00    -0.027 C 
HETATM   16  C20 UNL     1      39.076 106.869  55.324  1.00  0.00     0.016 C 
HETATM   17  C21 UNL     1      37.359 107.545  53.722  1.00  0.00     0.033 C 
HETATM   18  C22 UNL     1      38.214 108.401  52.848  1.00  0.00     0.135 C 
HETATM   19  C23 UNL     1      38.014 109.877  52.943  1.00  0.00     0.015 C 
HETATM   20  C24 UNL     1      37.861 110.502  54.251  1.00  0.00     0.021 C 
HETATM   21  C25 UNL     1      39.210 110.574  52.263  1.00  0.00     0.158 C 
HETATM   22  C26 UNL     1      38.575 111.922  51.921  1.00  0.00     0.155 C 
HETATM   23  C27 UNL     1      37.084 111.682  51.771  1.00  0.00    -0.015 C 
HETATM   24  C28 UNL     1      36.245 112.554  52.627  1.00  0.00     0.018 C 
HETATM   25  C29 UNL     1      36.739 112.040  50.315  1.00  0.00     0.018 C 
HETATM   26  C30 UNL     1      36.963 110.236  51.928  1.00  0.00     0.009 C 
HETATM   27  C31 UNL     1      35.661 109.669  52.376  1.00  0.00     0.007 C 
HETATM   28  C32 UNL     1      35.505 108.211  52.159  1.00  0.00     0.011 C 
HETATM   29  C33 UNL     1      35.953 107.321  53.314  1.00  0.00    -0.029 C 
HETATM   30  C34 UNL     1      34.952 107.780  54.404  1.00  0.00     0.016 C 
HETATM   31  C35 UNL     1      33.784 102.098  53.709  1.00  0.00    -0.012 C 
HETATM   32  C36 UNL     1      32.346 101.993  53.386  1.00  0.00     0.018 C 
HETATM   33  C37 UNL     1      34.453 100.789  53.290  1.00  0.00     0.018 C 
ENDROOT
BRANCH  12  34
HETATM   34  O2  UNL     1      38.215 102.861  55.055  1.00  0.00    -0.298 OA
BRANCH  34  35
HETATM   35  C14 UNL     1      38.915 102.182  55.988  1.00  0.00     0.362 C 
HETATM   36  O3  UNL     1      40.021 102.657  56.383  1.00  0.00    -0.238 OA
HETATM   37  N1  UNL     1      38.493 100.941  56.573  1.00  0.00    -0.337 N 
HETATM   38  C15 UNL     1      37.252 100.291  56.209  1.00  0.00     0.154 C 
HETATM   39  C16 UNL     1      39.306 100.279  57.571  1.00  0.00     0.154 C 
ENDBRANCH  34  35
ENDBRANCH  12  34
BRANCH  18  40
HETATM   40  O4  UNL     1      38.234 108.148  51.493  1.00  0.00    -0.394 OA
ATOM     41  H4  UNL     1      38.814 107.470  51.166  1.00  0.00     0.210 HD
ENDBRANCH  18  40
BRANCH   1  42
HETATM   42  C2  UNL     1      33.148 103.116  55.901  1.00  0.00    -0.005 C 
HETATM   43  C1  UNL     1      33.466 104.080  56.746  1.00  0.00     0.009 C 
ENDBRANCH   1  42
BRANCH  21  44
HETATM   44  O5  UNL     1      40.195 110.719  53.218  1.00  0.00    -0.392 OA
ATOM     45  H5  UNL     1      40.770 111.415  52.925  1.00  0.00     0.210 HD
ENDBRANCH  21  44
BRANCH  22  46
HETATM   46  O6  UNL     1      39.172 112.296  50.694  1.00  0.00    -0.392 OA
ATOM     47  H6  UNL     1      38.440 112.507  50.126  1.00  0.00     0.210 HD
ENDBRANCH  22  46
TORSDOF 6
ENDMDL
