MODEL 1
REMARK VINA RESULT: -9.526148283      0.000      0.000
REMARK  8 active torsions:
REMARK  status: ('A' for Active; 'I' for Inactive)
REMARK    1  A    between atoms: C2_2  and  O1_3 
REMARK    2  A    between atoms: C2_2  and  C15_23 
REMARK    3  A    between atoms: O1_3  and  C3_4 
REMARK    4  A    between atoms: C3_4  and  C4_6 
REMARK       I    between atoms: C4_6  and  N1_8 
REMARK    5  A    between atoms: N2_11  and  S1_12 
REMARK    6  A    between atoms: S1_12  and  C7_15 
REMARK       I    between atoms: C15_23  and  N3_25 
REMARK    7  A    between atoms: N3_25  and  C16_27 
REMARK    8  A    between atoms: C16_27  and  C17_28 
ROOT
HETATM    1  C4  UNL     1      -3.476  11.408  22.532  1.00  0.00     0.319 C 
HETATM    2  O3  UNL     1      -3.443  10.519  23.423  1.00  0.00    -0.262 OA
HETATM    3  N1  UNL     1      -4.030  11.085  21.280  1.00  0.00    -0.340 N 
HETATM    4  C5  UNL     1      -4.559   9.735  21.007  1.00  0.00     0.147 C 
HETATM    5  C6  UNL     1      -5.970   9.966  20.462  1.00  0.00     0.155 C 
HETATM    6  N2  UNL     1      -5.934  10.656  19.211  1.00  0.00    -0.304 N 
HETATM    7  C13 UNL     1      -4.710  11.345  18.943  1.00  0.00     0.155 C 
HETATM    8  C14 UNL     1      -4.135  12.012  20.177  1.00  0.00     0.147 C 
ENDROOT
BRANCH   1   9
HETATM    9  C3  UNL     1      -2.952  12.717  22.805  1.00  0.00     0.352 C 
HETATM   10  O2  UNL     1      -3.573  13.555  23.484  1.00  0.00    -0.254 OA
BRANCH   9  11
HETATM   11  O1  UNL     1      -1.704  13.119  22.319  1.00  0.00    -0.299 OA
BRANCH  11  12
HETATM   12  C2  UNL     1      -0.499  12.894  22.992  1.00  0.00     0.220 C 
HETATM   13  C1  UNL     1       0.634  13.481  22.209  1.00  0.00     0.050 C 
BRANCH  12  14
HETATM   14  C15 UNL     1      -0.278  11.431  23.193  1.00  0.00     0.247 C 
HETATM   15  O6  UNL     1      -0.015  10.728  22.186  1.00  0.00    -0.271 OA
HETATM   16  N3  UNL     1      -0.359  10.843  24.477  1.00  0.00    -0.355 N 
ATOM     17  H3  UNL     1      -0.574  11.454  25.265  1.00  0.00     0.162 HD
BRANCH  16  18
HETATM   18  C16 UNL     1      -0.160   9.445  24.752  1.00  0.00     0.161 C 
BRANCH  18  19
HETATM   19  C17 UNL     1      -0.992   8.998  25.885  1.00  0.00    -0.041 A 
HETATM   20  C18 UNL     1      -1.995   9.742  26.442  1.00  0.00     0.009 A 
HETATM   21  C19 UNL     1      -2.728   9.225  27.511  1.00  0.00     0.001 A 
HETATM   22  C20 UNL     1      -2.477   7.971  28.037  1.00  0.00     0.000 A 
HETATM   23  C21 UNL     1      -1.456   7.233  27.459  1.00  0.00     0.001 A 
HETATM   24  C22 UNL     1      -0.718   7.727  26.399  1.00  0.00     0.009 A 
ENDBRANCH  18  19
ENDBRANCH  16  18
ENDBRANCH  12  14
ENDBRANCH  11  12
ENDBRANCH   9  11
ENDBRANCH   1   9
BRANCH   6  25
HETATM   25  S1  UNL     1      -6.665   9.897  17.897  1.00  0.00     0.260 S 
HETATM   26  O4  UNL     1      -8.123  10.228  17.750  1.00  0.00    -0.200 OA
HETATM   27  O5  UNL     1      -5.980  10.337  16.611  1.00  0.00    -0.200 OA
BRANCH  25  28
HETATM   28  C7  UNL     1      -6.416   8.168  18.002  1.00  0.00     0.079 A 
HETATM   29  C8  UNL     1      -7.473   7.298  18.214  1.00  0.00     0.025 A 
HETATM   30  C9  UNL     1      -7.232   5.924  18.292  1.00  0.00     0.002 A 
HETATM   31  C10 UNL     1      -5.981   5.397  18.166  1.00  0.00     0.000 A 
HETATM   32  C11 UNL     1      -4.925   6.266  17.954  1.00  0.00     0.002 A 
HETATM   33  C12 UNL     1      -5.153   7.631  17.876  1.00  0.00     0.025 A 
ENDBRANCH  25  28
ENDBRANCH   6  25
TORSDOF 8
ENDMDL
MODEL 2
REMARK VINA RESULT: -9.452654986      1.545      2.509
REMARK  8 active torsions:
REMARK  status: ('A' for Active; 'I' for Inactive)
REMARK    1  A    between atoms: C2_2  and  O1_3 
REMARK    2  A    between atoms: C2_2  and  C15_23 
REMARK    3  A    between atoms: O1_3  and  C3_4 
REMARK    4  A    between atoms: C3_4  and  C4_6 
REMARK       I    between atoms: C4_6  and  N1_8 
REMARK    5  A    between atoms: N2_11  and  S1_12 
REMARK    6  A    between atoms: S1_12  and  C7_15 
REMARK       I    between atoms: C15_23  and  N3_25 
REMARK    7  A    between atoms: N3_25  and  C16_27 
REMARK    8  A    between atoms: C16_27  and  C17_28 
ROOT
HETATM    1  C4  UNL     1      -0.912  11.287  20.608  1.00  0.00     0.319 C 
HETATM    2  O3  UNL     1      -0.345  10.485  21.397  1.00  0.00    -0.262 OA
HETATM    3  N1  UNL     1      -2.190  10.960  20.121  1.00  0.00    -0.340 N 
HETATM    4  C5  UNL     1      -2.858   9.705  20.515  1.00  0.00     0.147 C 
HETATM    5  C6  UNL     1      -4.242  10.132  21.008  1.00  0.00     0.155 C 
HETATM    6  N2  UNL     1      -5.016  10.696  19.947  1.00  0.00    -0.304 N 
HETATM    7  C13 UNL     1      -4.256  11.135  18.819  1.00  0.00     0.155 C 
HETATM    8  C14 UNL     1      -2.950  11.794  19.218  1.00  0.00     0.147 C 
ENDROOT
BRANCH   1   9
HETATM    9  C3  UNL     1      -0.250  12.503  20.224  1.00  0.00     0.352 C 
HETATM   10  O2  UNL     1       0.667  12.525  19.383  1.00  0.00    -0.254 OA
BRANCH   9  11
HETATM   11  O1  UNL     1      -0.609  13.734  20.780  1.00  0.00    -0.299 OA
BRANCH  11  12
HETATM   12  C2  UNL     1      -0.502  14.034  22.141  1.00  0.00     0.220 C 
HETATM   13  C1  UNL     1       0.799  13.515  22.671  1.00  0.00     0.050 C 
BRANCH  12  14
HETATM   14  C15 UNL     1      -1.638  13.432  22.900  1.00  0.00     0.247 C 
HETATM   15  O6  UNL     1      -2.778  13.938  22.759  1.00  0.00    -0.271 OA
HETATM   16  N3  UNL     1      -1.447  12.323  23.756  1.00  0.00    -0.355 N 
ATOM     17  H3  UNL     1      -0.503  11.945  23.838  1.00  0.00     0.162 HD
BRANCH  16  18
HETATM   18  C16 UNL     1      -2.488  11.688  24.521  1.00  0.00     0.161 C 
BRANCH  18  19
HETATM   19  C17 UNL     1      -1.965  10.542  25.289  1.00  0.00    -0.041 A 
HETATM   20  C18 UNL     1      -2.449  10.149  26.506  1.00  0.00     0.009 A 
HETATM   21  C19 UNL     1      -1.887   9.047  27.151  1.00  0.00     0.001 A 
HETATM   22  C20 UNL     1      -0.845   8.325  26.599  1.00  0.00     0.000 A 
HETATM   23  C21 UNL     1      -0.368   8.739  25.365  1.00  0.00     0.001 A 
HETATM   24  C22 UNL     1      -0.912   9.829  24.710  1.00  0.00     0.009 A 
ENDBRANCH  18  19
ENDBRANCH  16  18
ENDBRANCH  12  14
ENDBRANCH  11  12
ENDBRANCH   9  11
ENDBRANCH   1   9
BRANCH   6  25
HETATM   25  S1  UNL     1      -6.497   9.967  19.610  1.00  0.00     0.260 S 
HETATM   26  O4  UNL     1      -7.452   9.988  20.769  1.00  0.00    -0.200 OA
HETATM   27  O5  UNL     1      -7.176  10.705  18.465  1.00  0.00    -0.200 OA
BRANCH  25  28
HETATM   28  C7  UNL     1      -6.234   8.336  19.037  1.00  0.00     0.079 A 
HETATM   29  C8  UNL     1      -5.025   7.951  18.481  1.00  0.00     0.025 A 
HETATM   30  C9  UNL     1      -4.856   6.638  18.034  1.00  0.00     0.002 A 
HETATM   31  C10 UNL     1      -5.847   5.706  18.126  1.00  0.00     0.000 A 
HETATM   32  C11 UNL     1      -7.054   6.089  18.682  1.00  0.00     0.002 A 
HETATM   33  C12 UNL     1      -7.232   7.389  19.127  1.00  0.00     0.025 A 
ENDBRANCH  25  28
ENDBRANCH   6  25
TORSDOF 8
ENDMDL
MODEL 3
REMARK VINA RESULT: -9.224637374      3.029      5.865
REMARK  8 active torsions:
REMARK  status: ('A' for Active; 'I' for Inactive)
REMARK    1  A    between atoms: C2_2  and  O1_3 
REMARK    2  A    between atoms: C2_2  and  C15_23 
REMARK    3  A    between atoms: O1_3  and  C3_4 
REMARK    4  A    between atoms: C3_4  and  C4_6 
REMARK       I    between atoms: C4_6  and  N1_8 
REMARK    5  A    between atoms: N2_11  and  S1_12 
REMARK    6  A    between atoms: S1_12  and  C7_15 
REMARK       I    between atoms: C15_23  and  N3_25 
REMARK    7  A    between atoms: N3_25  and  C16_27 
REMARK    8  A    between atoms: C16_27  and  C17_28 
ROOT
HETATM    1  C4  UNL     1      -1.919  12.369  22.995  1.00  0.00     0.319 C 
HETATM    2  O3  UNL     1      -2.179  13.500  23.483  1.00  0.00    -0.262 OA
HETATM    3  N1  UNL     1      -2.968  11.624  22.427  1.00  0.00    -0.340 N 
HETATM    4  C5  UNL     1      -4.348  12.145  22.406  1.00  0.00     0.147 C 
HETATM    5  C6  UNL     1      -4.796  12.020  20.949  1.00  0.00     0.155 C 
HETATM    6  N2  UNL     1      -4.866  10.651  20.546  1.00  0.00    -0.304 N 
HETATM    7  C13 UNL     1      -4.131   9.745  21.373  1.00  0.00     0.155 C 
HETATM    8  C14 UNL     1      -2.804  10.319  21.828  1.00  0.00     0.147 C 
ENDROOT
BRANCH   1   9
HETATM    9  C3  UNL     1      -0.573  11.867  23.027  1.00  0.00     0.352 C 
HETATM   10  O2  UNL     1      -0.090  11.320  24.035  1.00  0.00    -0.254 OA
BRANCH   9  11
HETATM   11  O1  UNL     1       0.268  11.965  21.914  1.00  0.00    -0.299 OA
BRANCH  11  12
HETATM   12  C2  UNL     1       0.216  13.014  20.992  1.00  0.00     0.220 C 
HETATM   13  C1  UNL     1      -0.341  12.517  19.693  1.00  0.00     0.050 C 
BRANCH  12  14
HETATM   14  C15 UNL     1       1.577  13.589  20.777  1.00  0.00     0.247 C 
HETATM   15  O6  UNL     1       2.534  12.796  20.602  1.00  0.00    -0.271 OA
HETATM   16  N3  UNL     1       1.793  14.987  20.769  1.00  0.00    -0.355 N 
ATOM     17  H3  UNL     1       0.985  15.592  20.914  1.00  0.00     0.162 HD
BRANCH  16  18
HETATM   18  C16 UNL     1       3.071  15.618  20.570  1.00  0.00     0.161 C 
BRANCH  18  19
HETATM   19  C17 UNL     1       3.163  16.888  21.314  1.00  0.00    -0.041 A 
HETATM   20  C18 UNL     1       3.304  18.115  20.726  1.00  0.00     0.009 A 
HETATM   21  C19 UNL     1       3.378  19.259  21.520  1.00  0.00     0.001 A 
HETATM   22  C20 UNL     1       3.313  19.201  22.900  1.00  0.00     0.000 A 
HETATM   23  C21 UNL     1       3.170  17.949  23.478  1.00  0.00     0.001 A 
HETATM   24  C22 UNL     1       3.095  16.803  22.707  1.00  0.00     0.009 A 
ENDBRANCH  18  19
ENDBRANCH  16  18
ENDBRANCH  12  14
ENDBRANCH  11  12
ENDBRANCH   9  11
ENDBRANCH   1   9
BRANCH   6  25
HETATM   25  S1  UNL     1      -6.349  10.098  19.971  1.00  0.00     0.260 S 
HETATM   26  O4  UNL     1      -7.437  10.115  21.007  1.00  0.00    -0.200 OA
HETATM   27  O5  UNL     1      -6.814  10.989  18.828  1.00  0.00    -0.200 OA
BRANCH  25  28
HETATM   28  C7  UNL     1      -6.157   8.501  19.283  1.00  0.00     0.079 A 
HETATM   29  C8  UNL     1      -7.192   7.580  19.294  1.00  0.00     0.025 A 
HETATM   30  C9  UNL     1      -6.997   6.314  18.735  1.00  0.00     0.002 A 
HETATM   31  C10 UNL     1      -5.813   5.944  18.169  1.00  0.00     0.000 A 
HETATM   32  C11 UNL     1      -4.779   6.863  18.157  1.00  0.00     0.002 A 
HETATM   33  C12 UNL     1      -4.962   8.121  18.710  1.00  0.00     0.025 A 
ENDBRANCH  25  28
ENDBRANCH   6  25
TORSDOF 8
ENDMDL
MODEL 4
REMARK VINA RESULT: -9.161801605      1.227      2.171
REMARK  8 active torsions:
REMARK  status: ('A' for Active; 'I' for Inactive)
REMARK    1  A    between atoms: C2_2  and  O1_3 
REMARK    2  A    between atoms: C2_2  and  C15_23 
REMARK    3  A    between atoms: O1_3  and  C3_4 
REMARK    4  A    between atoms: C3_4  and  C4_6 
REMARK       I    between atoms: C4_6  and  N1_8 
REMARK    5  A    between atoms: N2_11  and  S1_12 
REMARK    6  A    between atoms: S1_12  and  C7_15 
REMARK       I    between atoms: C15_23  and  N3_25 
REMARK    7  A    between atoms: N3_25  and  C16_27 
REMARK    8  A    between atoms: C16_27  and  C17_28 
ROOT
HETATM    1  C4  UNL     1      -1.348  10.742  21.693  1.00  0.00     0.319 C 
HETATM    2  O3  UNL     1      -1.161   9.762  22.463  1.00  0.00    -0.262 OA
HETATM    3  N1  UNL     1      -2.322  10.630  20.686  1.00  0.00    -0.340 N 
HETATM    4  C5  UNL     1      -3.110   9.393  20.521  1.00  0.00     0.147 C 
HETATM    5  C6  UNL     1      -4.569   9.853  20.502  1.00  0.00     0.155 C 
HETATM    6  N2  UNL     1      -4.838  10.669  19.360  1.00  0.00    -0.304 N 
HETATM    7  C13 UNL     1      -3.679  11.229  18.738  1.00  0.00     0.155 C 
HETATM    8  C14 UNL     1      -2.639  11.680  19.745  1.00  0.00     0.147 C 
ENDROOT
BRANCH   1   9
HETATM    9  C3  UNL     1      -0.571  11.939  21.857  1.00  0.00     0.352 C 
HETATM   10  O2  UNL     1       0.549  12.083  21.332  1.00  0.00    -0.254 OA
BRANCH   9  11
HETATM   11  O1  UNL     1      -1.039  13.013  22.618  1.00  0.00    -0.299 OA
BRANCH  11  12
HETATM   12  C2  UNL     1      -2.394  13.285  22.828  1.00  0.00     0.220 C 
HETATM   13  C1  UNL     1      -2.668  14.732  22.554  1.00  0.00     0.050 C 
BRANCH  12  14
HETATM   14  C15 UNL     1      -2.785  12.948  24.229  1.00  0.00     0.247 C 
HETATM   15  O6  UNL     1      -3.440  13.796  24.881  1.00  0.00    -0.271 OA
HETATM   16  N3  UNL     1      -2.431  11.710  24.815  1.00  0.00    -0.355 N 
ATOM     17  H3  UNL     1      -1.898  11.051  24.246  1.00  0.00     0.162 HD
BRANCH  16  18
HETATM   18  C16 UNL     1      -2.768  11.311  26.156  1.00  0.00     0.161 C 
BRANCH  18  19
HETATM   19  C17 UNL     1      -2.196   9.991  26.482  1.00  0.00    -0.041 A 
HETATM   20  C18 UNL     1      -2.672   9.170  27.467  1.00  0.00     0.009 A 
HETATM   21  C19 UNL     1      -2.062   7.936  27.694  1.00  0.00     0.001 A 
HETATM   22  C20 UNL     1      -0.978   7.505  26.951  1.00  0.00     0.000 A 
HETATM   23  C21 UNL     1      -0.510   8.351  25.959  1.00  0.00     0.001 A 
HETATM   24  C22 UNL     1      -1.101   9.578  25.718  1.00  0.00     0.009 A 
ENDBRANCH  18  19
ENDBRANCH  16  18
ENDBRANCH  12  14
ENDBRANCH  11  12
ENDBRANCH   9  11
ENDBRANCH   1   9
BRANCH   6  25
HETATM   25  S1  UNL     1      -6.064  10.155  18.326  1.00  0.00     0.260 S 
HETATM   26  O4  UNL     1      -7.409  10.736  18.657  1.00  0.00    -0.200 OA
HETATM   27  O5  UNL     1      -5.738  10.582  16.901  1.00  0.00    -0.200 OA
BRANCH  25  28
HETATM   28  C7  UNL     1      -6.119   8.407  18.299  1.00  0.00     0.079 A 
HETATM   29  C8  UNL     1      -7.253   7.714  18.690  1.00  0.00     0.025 A 
HETATM   30  C9  UNL     1      -7.255   6.317  18.654  1.00  0.00     0.002 A 
HETATM   31  C10 UNL     1      -6.172   5.598  18.243  1.00  0.00     0.000 A 
HETATM   32  C11 UNL     1      -5.039   6.290  17.852  1.00  0.00     0.002 A 
HETATM   33  C12 UNL     1      -5.026   7.676  17.885  1.00  0.00     0.025 A 
ENDBRANCH  25  28
ENDBRANCH   6  25
TORSDOF 8
ENDMDL
MODEL 5
REMARK VINA RESULT: -9.138476633      3.111      6.247
REMARK  8 active torsions:
REMARK  status: ('A' for Active; 'I' for Inactive)
REMARK    1  A    between atoms: C2_2  and  O1_3 
REMARK    2  A    between atoms: C2_2  and  C15_23 
REMARK    3  A    between atoms: O1_3  and  C3_4 
REMARK    4  A    between atoms: C3_4  and  C4_6 
REMARK       I    between atoms: C4_6  and  N1_8 
REMARK    5  A    between atoms: N2_11  and  S1_12 
REMARK    6  A    between atoms: S1_12  and  C7_15 
REMARK       I    between atoms: C15_23  and  N3_25 
REMARK    7  A    between atoms: N3_25  and  C16_27 
REMARK    8  A    between atoms: C16_27  and  C17_28 
ROOT
HETATM    1  C4  UNL     1      -2.115  12.295  23.086  1.00  0.00     0.319 C 
HETATM    2  O3  UNL     1      -2.381  13.450  23.511  1.00  0.00    -0.262 OA
HETATM    3  N1  UNL     1      -3.129  11.568  22.436  1.00  0.00    -0.340 N 
HETATM    4  C5  UNL     1      -4.479  12.136  22.257  1.00  0.00     0.147 C 
HETATM    5  C6  UNL     1      -4.779  11.978  20.765  1.00  0.00     0.155 C 
HETATM    6  N2  UNL     1      -4.860  10.599  20.398  1.00  0.00    -0.304 N 
HETATM    7  C13 UNL     1      -4.249   9.697  21.324  1.00  0.00     0.155 C 
HETATM    8  C14 UNL     1      -2.954  10.239  21.896  1.00  0.00     0.147 C 
ENDROOT
BRANCH   1   9
HETATM    9  C3  UNL     1      -0.800  11.747  23.272  1.00  0.00     0.352 C 
HETATM   10  O2  UNL     1      -0.501  11.056  24.262  1.00  0.00    -0.254 OA
BRANCH   9  11
HETATM   11  O1  UNL     1       0.218  11.964  22.339  1.00  0.00    -0.299 OA
BRANCH  11  12
HETATM   12  C2  UNL     1       0.395  13.166  21.647  1.00  0.00     0.220 C 
HETATM   13  C1  UNL     1       0.704  12.881  20.210  1.00  0.00     0.050 C 
BRANCH  12  14
HETATM   14  C15 UNL     1       1.500  13.962  22.258  1.00  0.00     0.247 C 
HETATM   15  O6  UNL     1       2.272  13.385  23.062  1.00  0.00    -0.271 OA
HETATM   16  N3  UNL     1       1.681  15.331  21.948  1.00  0.00    -0.355 N 
ATOM     17  H3  UNL     1       1.029  15.757  21.289  1.00  0.00     0.162 HD
BRANCH  16  18
HETATM   18  C16 UNL     1       2.718  16.165  22.494  1.00  0.00     0.161 C 
BRANCH  18  19
HETATM   19  C17 UNL     1       3.158  17.181  21.519  1.00  0.00    -0.041 A 
HETATM   20  C18 UNL     1       3.381  16.929  20.194  1.00  0.00     0.009 A 
HETATM   21  C19 UNL     1       3.792  17.962  19.352  1.00  0.00     0.001 A 
HETATM   22  C20 UNL     1       3.984  19.252  19.811  1.00  0.00     0.000 A 
HETATM   23  C21 UNL     1       3.753  19.488  21.158  1.00  0.00     0.001 A 
HETATM   24  C22 UNL     1       3.346  18.477  22.008  1.00  0.00     0.009 A 
ENDBRANCH  18  19
ENDBRANCH  16  18
ENDBRANCH  12  14
ENDBRANCH  11  12
ENDBRANCH   9  11
ENDBRANCH   1   9
BRANCH   6  25
HETATM   25  S1  UNL     1      -6.297  10.079  19.690  1.00  0.00     0.260 S 
HETATM   26  O4  UNL     1      -7.488  10.197  20.597  1.00  0.00    -0.200 OA
HETATM   27  O5  UNL     1      -6.592  10.927  18.460  1.00  0.00    -0.200 OA
BRANCH  25  28
HETATM   28  C7  UNL     1      -6.107   8.441  19.105  1.00  0.00     0.079 A 
HETATM   29  C8  UNL     1      -4.911   8.001  18.563  1.00  0.00     0.025 A 
HETATM   30  C9  UNL     1      -4.801   6.685  18.107  1.00  0.00     0.002 A 
HETATM   31  C10 UNL     1      -5.839   5.804  18.175  1.00  0.00     0.000 A 
HETATM   32  C11 UNL     1      -7.035   6.242  18.715  1.00  0.00     0.002 A 
HETATM   33  C12 UNL     1      -7.154   7.546  19.170  1.00  0.00     0.025 A 
ENDBRANCH  25  28
ENDBRANCH   6  25
TORSDOF 8
ENDMDL
