MODEL 1
REMARK VINA RESULT: -8.435570948      0.000      0.000
REMARK  6 active torsions:
REMARK  status: ('A' for Active; 'I' for Inactive)
REMARK    1  A    between atoms: N1_2  and  C2_3 
REMARK    2  A    between atoms: N1_2  and  S2_18 
REMARK    3  A    between atoms: C2_3  and  C3_4 
REMARK       I    between atoms: C3_4  and  N2_6 
REMARK    4  A    between atoms: N2_6  and  C4_8 
REMARK    5  A    between atoms: C7_11  and  S1_12 
REMARK    6  A    between atoms: S2_18  and  C11_21 
ROOT
HETATM    1  C3  UNL     1      -4.136  11.435  21.513  1.00  0.00     0.240 C 
HETATM    2  O1  UNL     1      -3.987  11.896  20.357  1.00  0.00    -0.271 OA
HETATM    3  N2  UNL     1      -4.770  10.212  21.738  1.00  0.00    -0.326 N 
ATOM      4  H2  UNL     1      -4.844   9.928  22.716  1.00  0.00     0.169 HD
ENDROOT
BRANCH   1   5
HETATM    5  C2  UNL     1      -3.600  12.263  22.650  1.00  0.00     0.237 C 
BRANCH   5   6
HETATM    6  N1  UNL     1      -2.387  12.937  22.325  1.00  0.00    -0.302 N 
HETATM    7  C1  UNL     1      -2.331  14.326  22.636  1.00  0.00     0.163 C 
BRANCH   6   8
HETATM    8  S2  UNL     1      -0.997  12.042  22.713  1.00  0.00     0.260 S 
HETATM    9  O4  UNL     1      -0.711  11.096  21.555  1.00  0.00    -0.200 OA
HETATM   10  O5  UNL     1       0.191  12.915  22.917  1.00  0.00    -0.200 OA
BRANCH   8  11
HETATM   11  C11 UNL     1      -1.259  10.982  24.102  1.00  0.00     0.079 A 
HETATM   12  C12 UNL     1      -2.233  11.256  25.039  1.00  0.00     0.026 A 
HETATM   13  C13 UNL     1      -2.456  10.440  26.134  1.00  0.00     0.020 A 
HETATM   14  C14 UNL     1      -1.692   9.306  26.318  1.00  0.00     0.011 A 
HETATM   15 BR1  UNL     1      -1.984   8.165  27.823  1.00  0.00    -0.051 Br
HETATM   16  C15 UNL     1      -0.713   9.022  25.384  1.00  0.00     0.020 A 
HETATM   17  C16 UNL     1      -0.493   9.850  24.281  1.00  0.00     0.026 A 
ENDBRANCH   8  11
ENDBRANCH   6   8
ENDBRANCH   5   6
ENDBRANCH   1   5
BRANCH   3  18
HETATM   18  C4  UNL     1      -5.319   9.322  20.808  1.00  0.00     0.034 A 
HETATM   19  C5  UNL     1      -6.610   8.878  20.809  1.00  0.00     0.031 A 
HETATM   20  C6  UNL     1      -7.117   7.971  19.859  1.00  0.00     0.025 A 
HETATM   21  C7  UNL     1      -6.291   7.499  18.881  1.00  0.00     0.059 A 
HETATM   22  C9  UNL     1      -4.983   7.920  18.842  1.00  0.00     0.025 A 
HETATM   23  C10 UNL     1      -4.509   8.807  19.780  1.00  0.00     0.031 A 
BRANCH  21  24
HETATM   24  S1  UNL     1      -6.857   6.379  17.681  1.00  0.00     0.171 S 
HETATM   25  C8  UNL     1      -8.238   7.074  16.784  1.00  0.00     0.167 C 
HETATM   26  O2  UNL     1      -5.719   6.116  16.710  1.00  0.00    -0.223 OA
HETATM   27  O3  UNL     1      -7.231   5.055  18.266  1.00  0.00    -0.223 OA
ENDBRANCH  21  24
ENDBRANCH   3  18
TORSDOF 6
ENDMDL
MODEL 2
REMARK VINA RESULT: -8.385133405      0.776      1.334
REMARK  6 active torsions:
REMARK  status: ('A' for Active; 'I' for Inactive)
REMARK    1  A    between atoms: N1_2  and  C2_3 
REMARK    2  A    between atoms: N1_2  and  S2_18 
REMARK    3  A    between atoms: C2_3  and  C3_4 
REMARK       I    between atoms: C3_4  and  N2_6 
REMARK    4  A    between atoms: N2_6  and  C4_8 
REMARK    5  A    between atoms: C7_11  and  S1_12 
REMARK    6  A    between atoms: S2_18  and  C11_21 
ROOT
HETATM    1  C3  UNL     1      -4.384  11.410  21.644  1.00  0.00     0.240 C 
HETATM    2  O1  UNL     1      -4.319  11.962  20.521  1.00  0.00    -0.271 OA
HETATM    3  N2  UNL     1      -4.898  10.122  21.800  1.00  0.00    -0.326 N 
ATOM      4  H2  UNL     1      -4.910   9.766  22.756  1.00  0.00     0.169 HD
ENDROOT
BRANCH   1   5
HETATM    5  C2  UNL     1      -3.881  12.203  22.821  1.00  0.00     0.237 C 
BRANCH   5   6
HETATM    6  N1  UNL     1      -2.692  12.934  22.534  1.00  0.00    -0.302 N 
HETATM    7  C1  UNL     1      -2.649  14.281  22.995  1.00  0.00     0.163 C 
BRANCH   6   8
HETATM    8  S2  UNL     1      -1.273  12.031  22.773  1.00  0.00     0.260 S 
HETATM    9  O4  UNL     1      -1.100  11.107  21.576  1.00  0.00    -0.200 OA
HETATM   10  O5  UNL     1      -0.070  12.900  22.881  1.00  0.00    -0.200 OA
BRANCH   8  11
HETATM   11  C11 UNL     1      -1.407  10.945  24.161  1.00  0.00     0.079 A 
HETATM   12  C12 UNL     1      -0.576   9.853  24.299  1.00  0.00     0.026 A 
HETATM   13  C13 UNL     1      -0.662   8.990  25.376  1.00  0.00     0.020 A 
HETATM   14  C14 UNL     1      -1.604   9.207  26.362  1.00  0.00     0.011 A 
HETATM   15 BR1  UNL     1      -1.740   8.027  27.860  1.00  0.00    -0.051 Br
HETATM   16  C15 UNL     1      -2.442  10.300  26.232  1.00  0.00     0.020 A 
HETATM   17  C16 UNL     1      -2.349  11.167  25.142  1.00  0.00     0.026 A 
ENDBRANCH   8  11
ENDBRANCH   6   8
ENDBRANCH   5   6
ENDBRANCH   1   5
BRANCH   3  18
HETATM   18  C4  UNL     1      -5.400   9.252  20.825  1.00  0.00     0.034 A 
HETATM   19  C5  UNL     1      -6.683   8.788  20.769  1.00  0.00     0.031 A 
HETATM   20  C6  UNL     1      -7.142   7.902  19.776  1.00  0.00     0.025 A 
HETATM   21  C7  UNL     1      -6.276   7.474  18.812  1.00  0.00     0.059 A 
HETATM   22  C9  UNL     1      -4.975   7.917  18.831  1.00  0.00     0.025 A 
HETATM   23  C10 UNL     1      -4.547   8.782  19.810  1.00  0.00     0.031 A 
BRANCH  21  24
HETATM   24  S1  UNL     1      -6.782   6.382  17.561  1.00  0.00     0.171 S 
HETATM   25  C8  UNL     1      -6.996   4.735  18.224  1.00  0.00     0.167 C 
HETATM   26  O2  UNL     1      -8.113   6.873  17.019  1.00  0.00    -0.223 OA
HETATM   27  O3  UNL     1      -5.835   6.357  16.405  1.00  0.00    -0.223 OA
ENDBRANCH  21  24
ENDBRANCH   3  18
TORSDOF 6
ENDMDL
MODEL 3
REMARK VINA RESULT: -8.181673531      1.688      2.026
REMARK  6 active torsions:
REMARK  status: ('A' for Active; 'I' for Inactive)
REMARK    1  A    between atoms: N1_2  and  C2_3 
REMARK    2  A    between atoms: N1_2  and  S2_18 
REMARK    3  A    between atoms: C2_3  and  C3_4 
REMARK       I    between atoms: C3_4  and  N2_6 
REMARK    4  A    between atoms: N2_6  and  C4_8 
REMARK    5  A    between atoms: C7_11  and  S1_12 
REMARK    6  A    between atoms: S2_18  and  C11_21 
ROOT
HETATM    1  C3  UNL     1      -4.448  11.756  21.597  1.00  0.00     0.240 C 
HETATM    2  O1  UNL     1      -4.531  12.293  20.468  1.00  0.00    -0.271 OA
HETATM    3  N2  UNL     1      -4.834  10.431  21.809  1.00  0.00    -0.326 N 
ATOM      4  H2  UNL     1      -4.731  10.091  22.765  1.00  0.00     0.169 HD
ENDROOT
BRANCH   1   5
HETATM    5  C2  UNL     1      -3.913  12.607  22.718  1.00  0.00     0.237 C 
BRANCH   5   6
HETATM    6  N1  UNL     1      -2.932  11.939  23.506  1.00  0.00    -0.302 N 
HETATM    7  C1  UNL     1      -1.575  12.303  23.272  1.00  0.00     0.163 C 
BRANCH   6   8
HETATM    8  S2  UNL     1      -3.378  11.776  25.137  1.00  0.00     0.260 S 
HETATM    9  O4  UNL     1      -2.821  12.972  25.896  1.00  0.00    -0.200 OA
HETATM   10  O5  UNL     1      -4.856  11.749  25.311  1.00  0.00    -0.200 OA
BRANCH   8  11
HETATM   11  C11 UNL     1      -2.617  10.372  25.894  1.00  0.00     0.079 A 
HETATM   12  C12 UNL     1      -3.129   9.814  27.046  1.00  0.00     0.026 A 
HETATM   13  C13 UNL     1      -2.551   8.716  27.656  1.00  0.00     0.020 A 
HETATM   14  C14 UNL     1      -1.421   8.138  27.112  1.00  0.00     0.011 A 
HETATM   15 BR1  UNL     1      -0.605   6.620  27.938  1.00  0.00    -0.051 Br
HETATM   16  C15 UNL     1      -0.900   8.691  25.956  1.00  0.00     0.020 A 
HETATM   17  C16 UNL     1      -1.490   9.800  25.346  1.00  0.00     0.026 A 
ENDBRANCH   8  11
ENDBRANCH   6   8
ENDBRANCH   5   6
ENDBRANCH   1   5
BRANCH   3  18
HETATM   18  C4  UNL     1      -5.344   9.507  20.890  1.00  0.00     0.034 A 
HETATM   19  C5  UNL     1      -6.629   9.044  20.868  1.00  0.00     0.031 A 
HETATM   20  C6  UNL     1      -7.095   8.103  19.932  1.00  0.00     0.025 A 
HETATM   21  C7  UNL     1      -6.235   7.615  18.991  1.00  0.00     0.059 A 
HETATM   22  C9  UNL     1      -4.933   8.054  18.977  1.00  0.00     0.025 A 
HETATM   23  C10 UNL     1      -4.497   8.974  19.901  1.00  0.00     0.031 A 
BRANCH  21  24
HETATM   24  S1  UNL     1      -6.751   6.452  17.810  1.00  0.00     0.171 S 
HETATM   25  C8  UNL     1      -8.160   7.073  16.900  1.00  0.00     0.167 C 
HETATM   26  O2  UNL     1      -5.603   6.222  16.843  1.00  0.00    -0.223 OA
HETATM   27  O3  UNL     1      -7.070   5.123  18.416  1.00  0.00    -0.223 OA
ENDBRANCH  21  24
ENDBRANCH   3  18
TORSDOF 6
ENDMDL
MODEL 4
REMARK VINA RESULT: -8.030505947      3.726      7.683
REMARK  6 active torsions:
REMARK  status: ('A' for Active; 'I' for Inactive)
REMARK    1  A    between atoms: N1_2  and  C2_3 
REMARK    2  A    between atoms: N1_2  and  S2_18 
REMARK    3  A    between atoms: C2_3  and  C3_4 
REMARK       I    between atoms: C3_4  and  N2_6 
REMARK    4  A    between atoms: N2_6  and  C4_8 
REMARK    5  A    between atoms: C7_11  and  S1_12 
REMARK    6  A    between atoms: S2_18  and  C11_21 
ROOT
HETATM    1  C3  UNL     1      -2.413  11.973  20.912  1.00  0.00     0.240 C 
HETATM    2  O1  UNL     1      -1.754  11.023  20.428  1.00  0.00    -0.271 OA
HETATM    3  N2  UNL     1      -2.634  12.088  22.285  1.00  0.00    -0.326 N 
ATOM      4  H2  UNL     1      -3.186  12.896  22.576  1.00  0.00     0.169 HD
ENDROOT
BRANCH   1   5
HETATM    5  C2  UNL     1      -2.957  12.987  19.941  1.00  0.00     0.237 C 
BRANCH   5   6
HETATM    6  N1  UNL     1      -4.328  12.771  19.619  1.00  0.00    -0.302 N 
HETATM    7  C1  UNL     1      -5.237  13.801  19.996  1.00  0.00     0.163 C 
BRANCH   6   8
HETATM    8  S2  UNL     1      -4.559  12.120  18.067  1.00  0.00     0.260 S 
HETATM    9  O4  UNL     1      -5.798  12.771  17.467  1.00  0.00    -0.200 OA
HETATM   10  O5  UNL     1      -3.401  12.388  17.172  1.00  0.00    -0.200 OA
BRANCH   8  11
HETATM   11  C11 UNL     1      -4.942  10.396  18.124  1.00  0.00     0.079 A 
HETATM   12  C12 UNL     1      -5.450   9.739  17.023  1.00  0.00     0.026 A 
HETATM   13  C13 UNL     1      -5.757   8.390  17.044  1.00  0.00     0.020 A 
HETATM   14  C14 UNL     1      -5.557   7.654  18.193  1.00  0.00     0.011 A 
HETATM   15 BR1  UNL     1      -5.973   5.789  18.245  1.00  0.00    -0.051 Br
HETATM   16  C15 UNL     1      -5.047   8.304  19.303  1.00  0.00     0.020 A 
HETATM   17  C16 UNL     1      -4.740   9.666  19.274  1.00  0.00     0.026 A 
ENDBRANCH   8  11
ENDBRANCH   6   8
ENDBRANCH   5   6
ENDBRANCH   1   5
BRANCH   3  18
HETATM   18  C4  UNL     1      -2.204  11.247  23.318  1.00  0.00     0.034 A 
HETATM   19  C5  UNL     1      -1.053  10.512  23.308  1.00  0.00     0.031 A 
HETATM   20  C6  UNL     1      -0.666   9.668  24.365  1.00  0.00     0.025 A 
HETATM   21  C7  UNL     1      -1.467   9.566  25.465  1.00  0.00     0.059 A 
HETATM   22  C9  UNL     1      -2.635  10.289  25.517  1.00  0.00     0.025 A 
HETATM   23  C10 UNL     1      -2.995  11.107  24.473  1.00  0.00     0.031 A 
BRANCH  21  24
HETATM   24  S1  UNL     1      -1.043   8.541  26.801  1.00  0.00     0.171 S 
HETATM   25  C8  UNL     1      -2.431   8.366  27.915  1.00  0.00     0.167 C 
HETATM   26  O2  UNL     1      -0.679   7.174  26.248  1.00  0.00    -0.223 OA
HETATM   27  O3  UNL     1       0.158   9.034  27.542  1.00  0.00    -0.223 OA
ENDBRANCH  21  24
ENDBRANCH   3  18
TORSDOF 6
ENDMDL
MODEL 5
REMARK VINA RESULT: -7.942346578      1.958      2.159
REMARK  6 active torsions:
REMARK  status: ('A' for Active; 'I' for Inactive)
REMARK    1  A    between atoms: N1_2  and  C2_3 
REMARK    2  A    between atoms: N1_2  and  S2_18 
REMARK    3  A    between atoms: C2_3  and  C3_4 
REMARK       I    between atoms: C3_4  and  N2_6 
REMARK    4  A    between atoms: N2_6  and  C4_8 
REMARK    5  A    between atoms: C7_11  and  S1_12 
REMARK    6  A    between atoms: S2_18  and  C11_21 
ROOT
HETATM    1  C3  UNL     1      -6.348  11.693  21.711  1.00  0.00     0.240 C 
HETATM    2  O1  UNL     1      -7.360  11.984  21.032  1.00  0.00    -0.271 OA
HETATM    3  N2  UNL     1      -5.679  10.478  21.549  1.00  0.00    -0.326 N 
ATOM      4  H2  UNL     1      -4.869  10.338  22.153  1.00  0.00     0.169 HD
ENDROOT
BRANCH   1   5
HETATM    5  C2  UNL     1      -5.885  12.716  22.715  1.00  0.00     0.237 C 
BRANCH   5   6
HETATM    6  N1  UNL     1      -4.757  13.463  22.269  1.00  0.00    -0.302 N 
HETATM    7  C1  UNL     1      -5.009  14.472  21.295  1.00  0.00     0.163 C 
BRANCH   6   8
HETATM    8  S2  UNL     1      -3.704  13.904  23.527  1.00  0.00     0.260 S 
HETATM    9  O4  UNL     1      -2.550  14.689  22.918  1.00  0.00    -0.200 OA
HETATM   10  O5  UNL     1      -4.375  14.760  24.543  1.00  0.00    -0.200 OA
BRANCH   8  11
HETATM   11  C11 UNL     1      -2.942  12.497  24.276  1.00  0.00     0.079 A 
HETATM   12  C12 UNL     1      -3.433  11.953  25.444  1.00  0.00     0.026 A 
HETATM   13  C13 UNL     1      -2.853  10.852  26.048  1.00  0.00     0.020 A 
HETATM   14  C14 UNL     1      -1.745  10.257  25.482  1.00  0.00     0.011 A 
HETATM   15 BR1  UNL     1      -0.928   8.734  26.298  1.00  0.00    -0.051 Br
HETATM   16  C15 UNL     1      -1.245  10.794  24.309  1.00  0.00     0.020 A 
HETATM   17  C16 UNL     1      -1.836  11.906  23.705  1.00  0.00     0.026 A 
ENDBRANCH   8  11
ENDBRANCH   6   8
ENDBRANCH   5   6
ENDBRANCH   1   5
BRANCH   3  18
HETATM   18  C4  UNL     1      -5.968   9.427  20.671  1.00  0.00     0.034 A 
HETATM   19  C5  UNL     1      -7.141   8.729  20.636  1.00  0.00     0.031 A 
HETATM   20  C6  UNL     1      -7.383   7.669  19.743  1.00  0.00     0.025 A 
HETATM   21  C7  UNL     1      -6.409   7.305  18.860  1.00  0.00     0.059 A 
HETATM   22  C9  UNL     1      -5.212   7.980  18.860  1.00  0.00     0.025 A 
HETATM   23  C10 UNL     1      -4.996   9.014  19.742  1.00  0.00     0.031 A 
BRANCH  21  24
HETATM   24  S1  UNL     1      -6.648   6.005  17.734  1.00  0.00     0.171 S 
HETATM   25  C8  UNL     1      -8.118   6.292  16.756  1.00  0.00     0.167 C 
HETATM   26  O2  UNL     1      -5.443   5.955  16.811  1.00  0.00    -0.223 OA
HETATM   27  O3  UNL     1      -6.725   4.671  18.406  1.00  0.00    -0.223 OA
ENDBRANCH  21  24
ENDBRANCH   3  18
TORSDOF 6
ENDMDL
