MODEL 1
REMARK VINA RESULT: -10.226742174      0.000      0.000
REMARK  6 active torsions:
REMARK  status: ('A' for Active; 'I' for Inactive)
REMARK       I    between atoms: C1_2  and  N1_3 
REMARK    1  A    between atoms: C1_2  and  C20_30 
REMARK    2  A    between atoms: N1_3  and  C2_5 
REMARK    3  A    between atoms: C2_5  and  C3_6 
REMARK    4  A    between atoms: C2_5  and  C9_15 
REMARK    5  A    between atoms: C3_6  and  C4_7 
REMARK       I    between atoms: C4_7  and  N2_9 
REMARK       I    between atoms: C9_15  and  N3_17 
REMARK    6  A    between atoms: N4_20  and  C12_21 
ROOT
HETATM    1  C2  UNL     1      -4.597  11.793  20.876  1.00  0.00     0.185 C 
ENDROOT
BRANCH   1   2
HETATM    2  N1  UNL     1      -4.752  10.377  20.523  1.00  0.00    -0.343 N 
HETATM    3  C1  UNL     1      -5.821   9.980  19.718  1.00  0.00     0.252 C 
HETATM    4  O1  UNL     1      -6.639  10.850  19.307  1.00  0.00    -0.268 OA
ATOM      5  H1  UNL     1      -4.083   9.687  20.865  1.00  0.00     0.163 HD
BRANCH   3   6
HETATM    6  C20 UNL     1      -6.029   8.594  19.334  1.00  0.00     0.032 A 
HETATM    7  C21 UNL     1      -7.251   7.976  19.407  1.00  0.00     0.017 A 
HETATM    8  C22 UNL     1      -7.401   6.640  19.024  1.00  0.00     0.001 A 
HETATM    9  C23 UNL     1      -6.338   5.896  18.561  1.00  0.00     0.000 A 
HETATM   10  C24 UNL     1      -5.110   6.515  18.486  1.00  0.00     0.001 A 
HETATM   11  C25 UNL     1      -4.973   7.832  18.867  1.00  0.00     0.017 A 
ENDBRANCH   3   6
ENDBRANCH   1   2
BRANCH   1  12
HETATM   12  C3  UNL     1      -3.178  12.226  20.561  1.00  0.00     0.138 C 
BRANCH  12  13
HETATM   13  C4  UNL     1      -2.958  12.686  19.192  1.00  0.00     0.222 C 
HETATM   14  O2  UNL     1      -3.593  12.260  18.197  1.00  0.00    -0.273 OA
HETATM   15  N2  UNL     1      -1.947  13.688  19.011  1.00  0.00    -0.348 N 
HETATM   16  C5  UNL     1      -1.182  14.217  20.118  1.00  0.00     0.152 C 
HETATM   17  C8  UNL     1      -1.686  14.178  17.705  1.00  0.00     0.152 C 
HETATM   18  C6  UNL     1      -0.984  15.692  19.812  1.00  0.00     0.187 C 
HETATM   19  O3  UNL     1      -0.158  15.767  18.713  1.00  0.00    -0.388 OA
HETATM   20  C7  UNL     1      -0.639  15.199  17.574  1.00  0.00     0.187 C 
ENDBRANCH  12  13
ENDBRANCH   1  12
BRANCH   1  21
HETATM   21  C9  UNL     1      -4.953  11.988  22.290  1.00  0.00     0.243 C 
HETATM   22  O4  UNL     1      -6.196  11.984  22.602  1.00  0.00    -0.271 OA
HETATM   23  N3  UNL     1      -4.008  12.181  23.312  1.00  0.00    -0.347 N 
HETATM   24  C10 UNL     1      -2.577  12.273  23.146  1.00  0.00     0.145 C 
HETATM   25  C19 UNL     1      -4.525  12.303  24.695  1.00  0.00     0.145 C 
HETATM   26  C11 UNL     1      -1.945  11.123  23.915  1.00  0.00     0.143 C 
HETATM   27  N4  UNL     1      -2.510  11.093  25.258  1.00  0.00    -0.378 N 
HETATM   28  C18 UNL     1      -3.341  12.202  25.630  1.00  0.00     0.143 C 
BRANCH  27  29
HETATM   29  C12 UNL     1      -2.210   9.995  26.101  1.00  0.00     0.030 A 
HETATM   30  C13 UNL     1      -1.083   9.198  25.837  1.00  0.00     0.032 A 
HETATM   31  C14 UNL     1      -0.735   8.121  26.613  1.00  0.00     0.044 A 
HETATM   32  C15 UNL     1      -1.488   7.762  27.709  1.00  0.00     0.116 A 
HETATM   33  F1  UNL     1      -1.142   6.688  28.482  1.00  0.00    -0.206 F 
HETATM   34  C16 UNL     1      -2.595   8.525  27.988  1.00  0.00     0.044 A 
HETATM   35  C17 UNL     1      -2.948   9.619  27.200  1.00  0.00     0.032 A 
ENDBRANCH  27  29
ENDBRANCH   1  21
TORSDOF 6
ENDMDL
MODEL 2
REMARK VINA RESULT: -10.217199605      3.558      8.528
REMARK  6 active torsions:
REMARK  status: ('A' for Active; 'I' for Inactive)
REMARK       I    between atoms: C1_2  and  N1_3 
REMARK    1  A    between atoms: C1_2  and  C20_30 
REMARK    2  A    between atoms: N1_3  and  C2_5 
REMARK    3  A    between atoms: C2_5  and  C3_6 
REMARK    4  A    between atoms: C2_5  and  C9_15 
REMARK    5  A    between atoms: C3_6  and  C4_7 
REMARK       I    between atoms: C4_7  and  N2_9 
REMARK       I    between atoms: C9_15  and  N3_17 
REMARK    6  A    between atoms: N4_20  and  C12_21 
ROOT
HETATM    1  C2  UNL     1      -3.871  12.490  23.160  1.00  0.00     0.185 C 
ENDROOT
BRANCH   1   2
HETATM    2  N1  UNL     1      -3.999  13.941  23.344  1.00  0.00    -0.343 N 
HETATM    3  C1  UNL     1      -5.147  14.461  23.944  1.00  0.00     0.252 C 
HETATM    4  O1  UNL     1      -6.058  13.670  24.317  1.00  0.00    -0.268 OA
ATOM      5  H1  UNL     1      -3.253  14.565  23.036  1.00  0.00     0.163 HD
BRANCH   3   6
HETATM    6  C20 UNL     1      -5.333  15.886  24.155  1.00  0.00     0.032 A 
HETATM    7  C21 UNL     1      -5.182  16.813  23.155  1.00  0.00     0.017 A 
HETATM    8  C22 UNL     1      -5.374  18.175  23.407  1.00  0.00     0.001 A 
HETATM    9  C23 UNL     1      -5.721  18.637  24.658  1.00  0.00     0.000 A 
HETATM   10  C24 UNL     1      -5.874  17.708  25.663  1.00  0.00     0.001 A 
HETATM   11  C25 UNL     1      -5.681  16.369  25.403  1.00  0.00     0.017 A 
ENDBRANCH   3   6
ENDBRANCH   1   2
BRANCH   1  12
HETATM   12  C3  UNL     1      -2.772  11.974  24.069  1.00  0.00     0.138 C 
BRANCH  12  13
HETATM   13  C4  UNL     1      -3.233  11.239  25.246  1.00  0.00     0.222 C 
HETATM   14  O2  UNL     1      -4.388  11.336  25.726  1.00  0.00    -0.273 OA
HETATM   15  N2  UNL     1      -2.280  10.363  25.863  1.00  0.00    -0.348 N 
HETATM   16  C5  UNL     1      -0.934  10.210  25.356  1.00  0.00     0.152 C 
HETATM   17  C8  UNL     1      -2.666   9.620  27.009  1.00  0.00     0.152 C 
HETATM   18  C6  UNL     1      -0.588   8.743  25.546  1.00  0.00     0.187 C 
HETATM   19  O3  UNL     1      -0.508   8.521  26.902  1.00  0.00    -0.388 OA
HETATM   20  C7  UNL     1      -1.652   8.741  27.605  1.00  0.00     0.187 C 
ENDBRANCH  12  13
ENDBRANCH   1  12
BRANCH   1  21
HETATM   21  C9  UNL     1      -3.621  12.197  21.740  1.00  0.00     0.243 C 
HETATM   22  O4  UNL     1      -2.416  12.283  21.313  1.00  0.00    -0.271 OA
HETATM   23  N3  UNL     1      -4.627  11.833  20.830  1.00  0.00    -0.347 N 
HETATM   24  C10 UNL     1      -6.040  11.741  21.112  1.00  0.00     0.145 C 
HETATM   25  C19 UNL     1      -4.204  11.512  19.447  1.00  0.00     0.145 C 
HETATM   26  C11 UNL     1      -6.467  10.299  20.883  1.00  0.00     0.143 C 
HETATM   27  N4  UNL     1      -5.964   9.862  19.587  1.00  0.00    -0.378 N 
HETATM   28  C18 UNL     1      -5.384  10.873  18.750  1.00  0.00     0.143 C 
BRANCH  27  29
HETATM   29  C12 UNL     1      -6.079   8.495  19.235  1.00  0.00     0.030 A 
HETATM   30  C13 UNL     1      -7.331   7.860  19.293  1.00  0.00     0.032 A 
HETATM   31  C14 UNL     1      -7.512   6.540  18.966  1.00  0.00     0.044 A 
HETATM   32  C15 UNL     1      -6.455   5.758  18.557  1.00  0.00     0.116 A 
HETATM   33  F1  UNL     1      -6.634   4.442  18.231  1.00  0.00    -0.206 F 
HETATM   34  C16 UNL     1      -5.219   6.355  18.492  1.00  0.00     0.044 A 
HETATM   35  C17 UNL     1      -5.036   7.696  18.824  1.00  0.00     0.032 A 
ENDBRANCH  27  29
ENDBRANCH   1  21
TORSDOF 6
ENDMDL
MODEL 3
REMARK VINA RESULT: -10.071766565      0.879      1.229
REMARK  6 active torsions:
REMARK  status: ('A' for Active; 'I' for Inactive)
REMARK       I    between atoms: C1_2  and  N1_3 
REMARK    1  A    between atoms: C1_2  and  C20_30 
REMARK    2  A    between atoms: N1_3  and  C2_5 
REMARK    3  A    between atoms: C2_5  and  C3_6 
REMARK    4  A    between atoms: C2_5  and  C9_15 
REMARK    5  A    between atoms: C3_6  and  C4_7 
REMARK       I    between atoms: C4_7  and  N2_9 
REMARK       I    between atoms: C9_15  and  N3_17 
REMARK    6  A    between atoms: N4_20  and  C12_21 
ROOT
HETATM    1  C2  UNL     1      -5.310  12.013  20.620  1.00  0.00     0.185 C 
ENDROOT
BRANCH   1   2
HETATM    2  N1  UNL     1      -5.210  10.588  20.279  1.00  0.00    -0.343 N 
HETATM    3  C1  UNL     1      -6.257   9.968  19.594  1.00  0.00     0.252 C 
HETATM    4  O1  UNL     1      -7.275  10.647  19.281  1.00  0.00    -0.268 OA
ATOM      5  H1  UNL     1      -4.381  10.055  20.541  1.00  0.00     0.163 HD
BRANCH   3   6
HETATM    6  C20 UNL     1      -6.218   8.563  19.228  1.00  0.00     0.032 A 
HETATM    7  C21 UNL     1      -5.064   7.920  18.862  1.00  0.00     0.017 A 
HETATM    8  C22 UNL     1      -5.077   6.565  18.520  1.00  0.00     0.001 A 
HETATM    9  C23 UNL     1      -6.240   5.826  18.537  1.00  0.00     0.000 A 
HETATM   10  C24 UNL     1      -7.400   6.470  18.905  1.00  0.00     0.001 A 
HETATM   11  C25 UNL     1      -7.375   7.805  19.239  1.00  0.00     0.017 A 
ENDBRANCH   3   6
ENDBRANCH   1   2
BRANCH   1  12
HETATM   12  C3  UNL     1      -4.051  12.719  20.155  1.00  0.00     0.138 C 
BRANCH  12  13
HETATM   13  C4  UNL     1      -3.948  12.918  18.711  1.00  0.00     0.222 C 
HETATM   14  O2  UNL     1      -4.892  12.730  17.907  1.00  0.00    -0.273 OA
HETATM   15  N2  UNL     1      -2.674  13.357  18.217  1.00  0.00    -0.348 N 
HETATM   16  C5  UNL     1      -1.548  13.590  19.094  1.00  0.00     0.152 C 
HETATM   17  C8  UNL     1      -2.509  13.569  16.824  1.00  0.00     0.152 C 
HETATM   18  C6  UNL     1      -0.825  14.797  18.522  1.00  0.00     0.187 C 
HETATM   19  O3  UNL     1      -0.288  14.410  17.315  1.00  0.00    -0.388 OA
HETATM   20  C7  UNL     1      -1.185  14.014  16.371  1.00  0.00     0.187 C 
ENDBRANCH  12  13
ENDBRANCH   1  12
BRANCH   1  21
HETATM   21  C9  UNL     1      -5.544  12.156  22.065  1.00  0.00     0.243 C 
HETATM   22  O4  UNL     1      -6.741  12.008  22.497  1.00  0.00    -0.271 OA
HETATM   23  N3  UNL     1      -4.530  12.449  22.994  1.00  0.00    -0.347 N 
HETATM   24  C10 UNL     1      -3.142  12.704  22.690  1.00  0.00     0.145 C 
HETATM   25  C19 UNL     1      -4.918  12.500  24.423  1.00  0.00     0.145 C 
HETATM   26  C11 UNL     1      -2.311  11.629  23.374  1.00  0.00     0.143 C 
HETATM   27  N4  UNL     1      -2.734  11.525  24.764  1.00  0.00    -0.378 N 
HETATM   28  C18 UNL     1      -3.643  12.529  25.235  1.00  0.00     0.143 C 
BRANCH  27  29
HETATM   29  C12 UNL     1      -2.230  10.462  25.554  1.00  0.00     0.030 A 
HETATM   30  C13 UNL     1      -1.087   9.761  25.134  1.00  0.00     0.032 A 
HETATM   31  C14 UNL     1      -0.547   8.722  25.850  1.00  0.00     0.044 A 
HETATM   32  C15 UNL     1      -1.108   8.310  27.038  1.00  0.00     0.116 A 
HETATM   33  F1  UNL     1      -0.571   7.275  27.753  1.00  0.00    -0.206 F 
HETATM   34  C16 UNL     1      -2.227   8.980  27.470  1.00  0.00     0.044 A 
HETATM   35  C17 UNL     1      -2.775  10.035  26.743  1.00  0.00     0.032 A 
ENDBRANCH  27  29
ENDBRANCH   1  21
TORSDOF 6
ENDMDL
MODEL 4
REMARK VINA RESULT: -10.064295418      3.248      7.859
REMARK  6 active torsions:
REMARK  status: ('A' for Active; 'I' for Inactive)
REMARK       I    between atoms: C1_2  and  N1_3 
REMARK    1  A    between atoms: C1_2  and  C20_30 
REMARK    2  A    between atoms: N1_3  and  C2_5 
REMARK    3  A    between atoms: C2_5  and  C3_6 
REMARK    4  A    between atoms: C2_5  and  C9_15 
REMARK    5  A    between atoms: C3_6  and  C4_7 
REMARK       I    between atoms: C4_7  and  N2_9 
REMARK       I    between atoms: C9_15  and  N3_17 
REMARK    6  A    between atoms: N4_20  and  C12_21 
ROOT
HETATM    1  C2  UNL     1      -3.893  12.076  23.303  1.00  0.00     0.185 C 
ENDROOT
BRANCH   1   2
HETATM    2  N1  UNL     1      -3.605  10.950  24.201  1.00  0.00    -0.343 N 
HETATM    3  C1  UNL     1      -2.466  10.987  25.008  1.00  0.00     0.252 C 
HETATM    4  O1  UNL     1      -1.702  11.990  24.950  1.00  0.00    -0.268 OA
ATOM      5  H1  UNL     1      -4.232  10.147  24.235  1.00  0.00     0.163 HD
BRANCH   3   6
HETATM    6  C20 UNL     1      -2.126   9.906  25.917  1.00  0.00     0.032 A 
HETATM    7  C21 UNL     1      -1.040   9.090  25.731  1.00  0.00     0.017 A 
HETATM    8  C22 UNL     1      -0.752   8.063  26.635  1.00  0.00     0.001 A 
HETATM    9  C23 UNL     1      -1.542   7.831  27.740  1.00  0.00     0.000 A 
HETATM   10  C24 UNL     1      -2.634   8.649  27.929  1.00  0.00     0.001 A 
HETATM   11  C25 UNL     1      -2.907   9.657  27.031  1.00  0.00     0.017 A 
ENDBRANCH   3   6
ENDBRANCH   1   2
BRANCH   1  12
HETATM   12  C3  UNL     1      -5.356  12.452  23.441  1.00  0.00     0.138 C 
BRANCH  12  13
HETATM   13  C4  UNL     1      -5.678  13.277  24.604  1.00  0.00     0.222 C 
HETATM   14  O2  UNL     1      -5.111  13.172  25.718  1.00  0.00    -0.273 OA
HETATM   15  N2  UNL     1      -6.709  14.257  24.424  1.00  0.00    -0.348 N 
HETATM   16  C5  UNL     1      -7.399  14.425  23.164  1.00  0.00     0.152 C 
HETATM   17  C8  UNL     1      -7.069  15.091  25.515  1.00  0.00     0.152 C 
HETATM   18  C6  UNL     1      -7.635  15.919  23.021  1.00  0.00     0.187 C 
HETATM   19  O3  UNL     1      -8.537  16.280  23.996  1.00  0.00    -0.388 OA
HETATM   20  C7  UNL     1      -8.133  16.074  25.279  1.00  0.00     0.187 C 
ENDBRANCH  12  13
ENDBRANCH   1  12
BRANCH   1  21
HETATM   21  C9  UNL     1      -3.526  11.711  21.926  1.00  0.00     0.243 C 
HETATM   22  O4  UNL     1      -2.279  11.633  21.639  1.00  0.00    -0.271 OA
HETATM   23  N3  UNL     1      -4.462  11.449  20.912  1.00  0.00    -0.347 N 
HETATM   24  C10 UNL     1      -5.898  11.543  21.032  1.00  0.00     0.145 C 
HETATM   25  C19 UNL     1      -3.931  11.035  19.593  1.00  0.00     0.145 C 
HETATM   26  C11 UNL     1      -6.477  10.159  20.779  1.00  0.00     0.143 C 
HETATM   27  N4  UNL     1      -5.893   9.624  19.556  1.00  0.00    -0.378 N 
HETATM   28  C18 UNL     1      -5.098  10.528  18.776  1.00  0.00     0.143 C 
BRANCH  27  29
HETATM   29  C12 UNL     1      -6.141   8.271  19.215  1.00  0.00     0.030 A 
HETATM   30  C13 UNL     1      -5.085   7.457  18.772  1.00  0.00     0.032 A 
HETATM   31  C14 UNL     1      -5.256   6.140  18.427  1.00  0.00     0.044 A 
HETATM   32  C15 UNL     1      -6.494   5.541  18.500  1.00  0.00     0.116 A 
HETATM   33  F1  UNL     1      -6.665   4.228  18.155  1.00  0.00    -0.206 F 
HETATM   34  C16 UNL     1      -7.543   6.316  18.930  1.00  0.00     0.044 A 
HETATM   35  C17 UNL     1      -7.369   7.653  19.281  1.00  0.00     0.032 A 
ENDBRANCH  27  29
ENDBRANCH   1  21
TORSDOF 6
ENDMDL
MODEL 5
REMARK VINA RESULT: -10.037162051      3.236      7.845
REMARK  6 active torsions:
REMARK  status: ('A' for Active; 'I' for Inactive)
REMARK       I    between atoms: C1_2  and  N1_3 
REMARK    1  A    between atoms: C1_2  and  C20_30 
REMARK    2  A    between atoms: N1_3  and  C2_5 
REMARK    3  A    between atoms: C2_5  and  C3_6 
REMARK    4  A    between atoms: C2_5  and  C9_15 
REMARK    5  A    between atoms: C3_6  and  C4_7 
REMARK       I    between atoms: C4_7  and  N2_9 
REMARK       I    between atoms: C9_15  and  N3_17 
REMARK    6  A    between atoms: N4_20  and  C12_21 
ROOT
HETATM    1  C2  UNL     1      -3.910  12.119  23.319  1.00  0.00     0.185 C 
ENDROOT
BRANCH   1   2
HETATM    2  N1  UNL     1      -3.605  10.985  24.200  1.00  0.00    -0.343 N 
HETATM    3  C1  UNL     1      -2.452  11.014  24.987  1.00  0.00     0.252 C 
HETATM    4  O1  UNL     1      -1.690  12.019  24.925  1.00  0.00    -0.268 OA
ATOM      5  H1  UNL     1      -4.232  10.181  24.237  1.00  0.00     0.163 HD
BRANCH   3   6
HETATM    6  C20 UNL     1      -2.095   9.924  25.878  1.00  0.00     0.032 A 
HETATM    7  C21 UNL     1      -2.805   9.627  27.013  1.00  0.00     0.017 A 
HETATM    8  C22 UNL     1      -2.424   8.565  27.840  1.00  0.00     0.001 A 
HETATM    9  C23 UNL     1      -1.328   7.782  27.550  1.00  0.00     0.000 A 
HETATM   10  C24 UNL     1      -0.614   8.078  26.410  1.00  0.00     0.001 A 
HETATM   11  C25 UNL     1      -0.999   9.126  25.604  1.00  0.00     0.017 A 
ENDBRANCH   3   6
ENDBRANCH   1   2
BRANCH   1  12
HETATM   12  C3  UNL     1      -5.380  12.467  23.457  1.00  0.00     0.138 C 
BRANCH  12  13
HETATM   13  C4  UNL     1      -5.713  13.310  24.603  1.00  0.00     0.222 C 
HETATM   14  O2  UNL     1      -5.152  13.229  25.722  1.00  0.00    -0.273 OA
HETATM   15  N2  UNL     1      -6.751  14.280  24.400  1.00  0.00    -0.348 N 
HETATM   16  C5  UNL     1      -7.435  14.421  23.134  1.00  0.00     0.152 C 
HETATM   17  C8  UNL     1      -7.121  15.131  25.475  1.00  0.00     0.152 C 
HETATM   18  C6  UNL     1      -7.680  15.910  22.963  1.00  0.00     0.187 C 
HETATM   19  O3  UNL     1      -8.589  16.282  23.927  1.00  0.00    -0.388 OA
HETATM   20  C7  UNL     1      -8.190  16.103  25.215  1.00  0.00     0.187 C 
ENDBRANCH  12  13
ENDBRANCH   1  12
BRANCH   1  21
HETATM   21  C9  UNL     1      -3.531  11.782  21.938  1.00  0.00     0.243 C 
HETATM   22  O4  UNL     1      -2.283  11.759  21.647  1.00  0.00    -0.271 OA
HETATM   23  N3  UNL     1      -4.459  11.490  20.924  1.00  0.00    -0.347 N 
HETATM   24  C10 UNL     1      -5.897  11.523  21.047  1.00  0.00     0.145 C 
HETATM   25  C19 UNL     1      -3.914  11.112  19.599  1.00  0.00     0.145 C 
HETATM   26  C11 UNL     1      -6.418  10.119  20.783  1.00  0.00     0.143 C 
HETATM   27  N4  UNL     1      -5.815   9.620  19.554  1.00  0.00    -0.378 N 
HETATM   28  C18 UNL     1      -5.061  10.563  18.780  1.00  0.00     0.143 C 
BRANCH  27  29
HETATM   29  C12 UNL     1      -6.007   8.261  19.201  1.00  0.00     0.030 A 
HETATM   30  C13 UNL     1      -7.283   7.684  19.311  1.00  0.00     0.032 A 
HETATM   31  C14 UNL     1      -7.538   6.375  18.986  1.00  0.00     0.044 A 
HETATM   32  C15 UNL     1      -6.537   5.549  18.527  1.00  0.00     0.116 A 
HETATM   33  F1  UNL     1      -6.790   4.244  18.203  1.00  0.00    -0.206 F 
HETATM   34  C16 UNL     1      -5.280   6.090  18.410  1.00  0.00     0.044 A 
HETATM   35  C17 UNL     1      -5.021   7.419  18.740  1.00  0.00     0.032 A 
ENDBRANCH  27  29
ENDBRANCH   1  21
TORSDOF 6
ENDMDL
