MODEL 1
REMARK VINA RESULT: -9.088261049      0.000      0.000
REMARK  9 active torsions:
REMARK  status: ('A' for Active; 'I' for Inactive)
REMARK    1  A    between atoms: C2_2  and  C3_3 
REMARK    2  A    between atoms: C3_3  and  N1_4 
REMARK       I    between atoms: N1_4  and  C4_6 
REMARK       I    between atoms: C4_6  and  N3_10 
REMARK    3  A    between atoms: C8_13  and  C9_14 
REMARK    4  A    between atoms: C9_14  and  O1_15 
REMARK    5  A    between atoms: C9_14  and  N4_17 
REMARK    6  A    between atoms: C15_23  and  C16_24 
REMARK    7  A    between atoms: C16_24  and  O2_25 
REMARK    8  A    between atoms: C16_24  and  N5_27 
REMARK    9  A    between atoms: N5_27  and  C17_29 
ROOT
HETATM    1  N4  UNL     1       7.588   5.268  19.812  1.00  0.00    -0.359 N 
HETATM    2  C10 UNL     1       7.302   5.939  18.522  1.00  0.00     0.130 C 
HETATM    3  C11 UNL     1       7.114   7.392  19.001  1.00  0.00     0.017 C 
HETATM    4  C12 UNL     1       5.905   7.368  19.872  1.00  0.00     0.009 C 
HETATM    5  C13 UNL     1       6.342   6.737  21.174  1.00  0.00     0.026 C 
HETATM    6  C14 UNL     1       7.724   6.261  20.855  1.00  0.00     0.098 C 
HETATM    7  C15 UNL     1       8.259   7.413  19.984  1.00  0.00     0.088 C 
ENDROOT
BRANCH   1   8
HETATM    8  C9  UNL     1       7.721   3.879  19.941  1.00  0.00     0.118 C 
BRANCH   8   9
HETATM    9  C8  UNL     1       8.075   2.851  19.003  1.00  0.00     0.063 C 
HETATM   10  C7  UNL     1       9.336   2.960  18.222  1.00  0.00     0.033 C 
HETATM   11  C6  UNL     1       9.269   1.940  17.082  1.00  0.00     0.142 C 
HETATM   12  N3  UNL     1       8.545   0.755  17.435  1.00  0.00    -0.218 N 
HETATM   13  C4  UNL     1       8.519  -0.296  16.430  1.00  0.00     0.671 C 
HETATM   14  C27 UNL     1       7.850   0.466  18.645  1.00  0.00     0.142 C 
HETATM   15  N1  UNL     1       9.528  -1.304  16.398  1.00  0.00    -0.223 N 
HETATM   16  N2  UNL     1       7.564  -0.272  15.580  1.00  0.00    -0.231 N 
ATOM     17  H1  UNL     1      10.348  -1.214  16.998  1.00  0.00     0.178 HD
HETATM   18  C5  UNL     1       6.512   0.711  15.551  1.00  0.00     0.165 C 
ATOM     19  H2  UNL     1       7.546  -1.004  14.870  1.00  0.00     0.177 HD
HETATM   20  C26 UNL     1       8.141   1.488  19.710  1.00  0.00     0.033 C 
BRANCH  15  21
HETATM   21  C3  UNL     1       9.405  -2.436  15.537  1.00  0.00     0.164 C 
BRANCH  21  22
HETATM   22  C2  UNL     1      10.063  -3.659  16.010  1.00  0.00    -0.017 C 
HETATM   23  C1  UNL     1       9.565  -4.878  15.943  1.00  0.00     0.008 C 
ENDBRANCH  21  22
ENDBRANCH  15  21
ENDBRANCH   8   9
BRANCH   8  24
HETATM   24  O1  UNL     1       7.480   3.443  21.162  1.00  0.00    -0.349 OA
ATOM     25  H1  UNL     1       6.902   2.691  21.202  1.00  0.00     0.219 HD
ENDBRANCH   8  24
ENDBRANCH   1   8
BRANCH   7  26
HETATM   26  C16 UNL     1       8.589   8.637  20.638  1.00  0.00     0.118 C 
BRANCH  26  27
HETATM   27  O2  UNL     1       9.712   9.187  20.243  1.00  0.00    -0.349 OA
ATOM     28  H2  UNL     1       9.610   9.998  19.760  1.00  0.00     0.219 HD
ENDBRANCH  26  27
BRANCH  26  29
HETATM   29  N5  UNL     1       7.951   9.385  21.630  1.00  0.00    -0.369 N 
ATOM     30  H5  UNL     1       7.205  10.019  21.343  1.00  0.00     0.161 HD
BRANCH  29  31
HETATM   31  C17 UNL     1       8.280   9.320  23.043  1.00  0.00     0.084 C 
HETATM   32  C18 UNL     1       9.224  10.408  23.486  1.00  0.00     0.026 C 
HETATM   33  C19 UNL     1       9.573   9.890  24.892  1.00  0.00     0.012 C 
HETATM   34  C20 UNL     1       9.917   8.446  24.577  1.00  0.00    -0.036 C 
HETATM   35  C21 UNL     1      11.393   8.363  24.359  1.00  0.00     0.012 C 
HETATM   36  C24 UNL     1       9.642   7.521  25.744  1.00  0.00     0.046 C 
HETATM   37  C25 UNL     1       9.090   8.076  23.374  1.00  0.00     0.034 C 
HETATM   38  C22 UNL     1      11.910   8.293  25.801  1.00  0.00     0.038 C 
HETATM   39  C23 UNL     1      10.966   7.272  26.399  1.00  0.00     0.171 C 
HETATM   40  F1  UNL     1      10.914   7.411  27.780  1.00  0.00    -0.249 F 
ENDBRANCH  29  31
ENDBRANCH  26  29
ENDBRANCH   7  26
TORSDOF 9
ENDMDL
MODEL 2
REMARK VINA RESULT: -9.059660141      3.446      9.535
REMARK  9 active torsions:
REMARK  status: ('A' for Active; 'I' for Inactive)
REMARK    1  A    between atoms: C2_2  and  C3_3 
REMARK    2  A    between atoms: C3_3  and  N1_4 
REMARK       I    between atoms: N1_4  and  C4_6 
REMARK       I    between atoms: C4_6  and  N3_10 
REMARK    3  A    between atoms: C8_13  and  C9_14 
REMARK    4  A    between atoms: C9_14  and  O1_15 
REMARK    5  A    between atoms: C9_14  and  N4_17 
REMARK    6  A    between atoms: C15_23  and  C16_24 
REMARK    7  A    between atoms: C16_24  and  O2_25 
REMARK    8  A    between atoms: C16_24  and  N5_27 
REMARK    9  A    between atoms: N5_27  and  C17_29 
ROOT
HETATM    1  N4  UNL     1       6.160   6.726  17.788  1.00  0.00    -0.359 N 
HETATM    2  C10 UNL     1       5.361   6.779  16.542  1.00  0.00     0.130 C 
HETATM    3  C11 UNL     1       5.221   5.275  16.238  1.00  0.00     0.017 C 
HETATM    4  C12 UNL     1       6.607   4.796  15.965  1.00  0.00     0.009 C 
HETATM    5  C13 UNL     1       7.290   4.711  17.311  1.00  0.00     0.026 C 
HETATM    6  C14 UNL     1       6.292   5.353  18.223  1.00  0.00     0.098 C 
HETATM    7  C15 UNL     1       4.963   4.822  17.654  1.00  0.00     0.088 C 
ENDROOT
BRANCH   1   8
HETATM    8  C9  UNL     1       6.668   7.868  18.422  1.00  0.00     0.118 C 
BRANCH   8   9
HETATM    9  C8  UNL     1       7.167   8.095  19.749  1.00  0.00     0.063 C 
HETATM   10  C7  UNL     1       6.447   7.529  20.921  1.00  0.00     0.033 C 
HETATM   11  C6  UNL     1       6.987   8.217  22.178  1.00  0.00     0.142 C 
HETATM   12  N3  UNL     1       8.374   8.564  22.073  1.00  0.00    -0.218 N 
HETATM   13  C4  UNL     1       8.976   9.139  23.265  1.00  0.00     0.671 C 
HETATM   14  C27 UNL     1       9.244   8.416  20.953  1.00  0.00     0.142 C 
HETATM   15  N1  UNL     1       9.586   8.307  24.250  1.00  0.00    -0.223 N 
HETATM   16  N2  UNL     1       8.929  10.410  23.392  1.00  0.00    -0.231 N 
ATOM     17  H1  UNL     1       9.483   7.295  24.189  1.00  0.00     0.178 HD
HETATM   18  C5  UNL     1       8.333  11.311  22.440  1.00  0.00     0.165 C 
ATOM     19  H2  UNL     1       9.346  10.816  24.230  1.00  0.00     0.177 HD
HETATM   20  C26 UNL     1       8.614   7.590  19.866  1.00  0.00     0.033 C 
BRANCH  15  21
HETATM   21  C3  UNL     1      10.339   8.875  25.323  1.00  0.00     0.164 C 
BRANCH  21  22
HETATM   22  C2  UNL     1      11.366   8.001  25.901  1.00  0.00    -0.017 C 
HETATM   23  C1  UNL     1      11.227   7.259  26.982  1.00  0.00     0.008 C 
ENDBRANCH  21  22
ENDBRANCH  15  21
ENDBRANCH   8   9
BRANCH   8  24
HETATM   24  O1  UNL     1       6.695   8.930  17.641  1.00  0.00    -0.349 OA
ATOM     25  H1  UNL     1       6.045   8.924  16.948  1.00  0.00     0.219 HD
ENDBRANCH   8  24
ENDBRANCH   1   8
BRANCH   7  26
HETATM   26  C16 UNL     1       4.640   3.453  17.897  1.00  0.00     0.118 C 
BRANCH  26  27
HETATM   27  O2  UNL     1       3.989   2.860  16.926  1.00  0.00    -0.349 OA
ATOM     28  H2  UNL     1       3.274   2.302  17.208  1.00  0.00     0.219 HD
ENDBRANCH  26  27
BRANCH  26  29
HETATM   29  N5  UNL     1       4.879   2.599  18.976  1.00  0.00    -0.369 N 
ATOM     30  H5  UNL     1       4.302   2.712  19.810  1.00  0.00     0.161 HD
BRANCH  29  31
HETATM   31  C17 UNL     1       5.896   1.563  18.989  1.00  0.00     0.084 C 
HETATM   32  C18 UNL     1       6.932   1.758  20.066  1.00  0.00     0.026 C 
HETATM   33  C19 UNL     1       7.963   0.704  19.626  1.00  0.00     0.012 C 
HETATM   34  C20 UNL     1       8.093   1.042  18.152  1.00  0.00    -0.036 C 
HETATM   35  C21 UNL     1       9.239   1.988  17.998  1.00  0.00     0.012 C 
HETATM   36  C24 UNL     1       8.466  -0.163  17.316  1.00  0.00     0.046 C 
HETATM   37  C25 UNL     1       6.761   1.608  17.739  1.00  0.00     0.034 C 
HETATM   38  C22 UNL     1      10.432   1.024  18.002  1.00  0.00     0.038 C 
HETATM   39  C23 UNL     1       9.938  -0.051  17.058  1.00  0.00     0.171 C 
HETATM   40  F1  UNL     1      10.613  -1.243  17.288  1.00  0.00    -0.249 F 
ENDBRANCH  29  31
ENDBRANCH  26  29
ENDBRANCH   7  26
TORSDOF 9
ENDMDL
MODEL 3
REMARK VINA RESULT: -8.978348543      3.955      9.252
REMARK  9 active torsions:
REMARK  status: ('A' for Active; 'I' for Inactive)
REMARK    1  A    between atoms: C2_2  and  C3_3 
REMARK    2  A    between atoms: C3_3  and  N1_4 
REMARK       I    between atoms: N1_4  and  C4_6 
REMARK       I    between atoms: C4_6  and  N3_10 
REMARK    3  A    between atoms: C8_13  and  C9_14 
REMARK    4  A    between atoms: C9_14  and  O1_15 
REMARK    5  A    between atoms: C9_14  and  N4_17 
REMARK    6  A    between atoms: C15_23  and  C16_24 
REMARK    7  A    between atoms: C16_24  and  O2_25 
REMARK    8  A    between atoms: C16_24  and  N5_27 
REMARK    9  A    between atoms: N5_27  and  C17_29 
ROOT
HETATM    1  N4  UNL     1       6.216  10.111  19.102  1.00  0.00    -0.359 N 
HETATM    2  C10 UNL     1       4.828  10.545  18.820  1.00  0.00     0.130 C 
HETATM    3  C11 UNL     1       4.630   9.946  17.414  1.00  0.00     0.017 C 
HETATM    4  C12 UNL     1       5.603  10.660  16.539  1.00  0.00     0.009 C 
HETATM    5  C13 UNL     1       6.960  10.079  16.864  1.00  0.00     0.026 C 
HETATM    6  C14 UNL     1       6.669   9.221  18.055  1.00  0.00     0.098 C 
HETATM    7  C15 UNL     1       5.301   8.620  17.681  1.00  0.00     0.088 C 
ENDROOT
BRANCH   1   8
HETATM    8  C9  UNL     1       6.929  10.512  20.240  1.00  0.00     0.118 C 
BRANCH   8   9
HETATM    9  C8  UNL     1       7.533   9.773  21.313  1.00  0.00     0.063 C 
HETATM   10  C7  UNL     1       8.621   8.800  21.024  1.00  0.00     0.033 C 
HETATM   11  C6  UNL     1       8.810   7.929  22.269  1.00  0.00     0.142 C 
HETATM   12  N3  UNL     1       8.554   8.636  23.489  1.00  0.00    -0.218 N 
HETATM   13  C4  UNL     1       8.803   7.895  24.716  1.00  0.00     0.671 C 
HETATM   14  C27 UNL     1       8.091   9.972  23.661  1.00  0.00     0.142 C 
HETATM   15  N1  UNL     1      10.086   7.923  25.340  1.00  0.00    -0.223 N 
HETATM   16  N2  UNL     1       7.833   7.218  25.201  1.00  0.00    -0.231 N 
ATOM     17  H1  UNL     1      10.872   8.355  24.856  1.00  0.00     0.178 HD
HETATM   18  C5  UNL     1       6.514   7.144  24.628  1.00  0.00     0.165 C 
ATOM     19  H2  UNL     1       8.006   6.693  26.058  1.00  0.00     0.177 HD
HETATM   20  C26 UNL     1       8.105  10.736  22.365  1.00  0.00     0.033 C 
BRANCH  15  21
HETATM   21  C3  UNL     1      10.282   7.354  26.635  1.00  0.00     0.164 C 
BRANCH  21  22
HETATM   22  C2  UNL     1      11.681   7.184  27.041  1.00  0.00    -0.017 C 
HETATM   23  C1  UNL     1      12.737   7.416  26.286  1.00  0.00     0.008 C 
ENDBRANCH  21  22
ENDBRANCH  15  21
ENDBRANCH   8   9
BRANCH   8  24
HETATM   24  O1  UNL     1       7.073  11.820  20.332  1.00  0.00    -0.349 OA
ATOM     25  H1  UNL     1       6.535  12.317  19.727  1.00  0.00     0.219 HD
ENDBRANCH   8  24
ENDBRANCH   1   8
BRANCH   7  26
HETATM   26  C16 UNL     1       5.276   7.614  16.670  1.00  0.00     0.118 C 
BRANCH  26  27
HETATM   27  O2  UNL     1       4.310   7.738  15.793  1.00  0.00    -0.349 OA
ATOM     28  H2  UNL     1       4.189   6.988  15.223  1.00  0.00     0.219 HD
ENDBRANCH  26  27
BRANCH  26  29
HETATM   29  N5  UNL     1       6.084   6.503  16.417  1.00  0.00    -0.369 N 
ATOM     30  H5  UNL     1       6.552   6.451  15.511  1.00  0.00     0.161 HD
BRANCH  29  31
HETATM   31  C17 UNL     1       6.301   5.418  17.357  1.00  0.00     0.084 C 
HETATM   32  C18 UNL     1       7.409   5.695  18.340  1.00  0.00     0.026 C 
HETATM   33  C19 UNL     1       7.558   4.295  18.962  1.00  0.00     0.012 C 
HETATM   34  C20 UNL     1       7.632   3.443  17.709  1.00  0.00    -0.036 C 
HETATM   35  C21 UNL     1       9.075   3.262  17.362  1.00  0.00     0.012 C 
HETATM   36  C24 UNL     1       7.106   2.042  17.934  1.00  0.00     0.046 C 
HETATM   37  C25 UNL     1       6.829   4.172  16.664  1.00  0.00     0.034 C 
HETATM   38  C22 UNL     1       9.473   2.120  18.304  1.00  0.00     0.038 C 
HETATM   39  C23 UNL     1       8.311   1.168  18.114  1.00  0.00     0.171 C 
HETATM   40  F1  UNL     1       8.198   0.319  19.207  1.00  0.00    -0.249 F 
ENDBRANCH  29  31
ENDBRANCH  26  29
ENDBRANCH   7  26
TORSDOF 9
ENDMDL
MODEL 4
REMARK VINA RESULT: -8.921814822      3.988      9.700
REMARK  9 active torsions:
REMARK  status: ('A' for Active; 'I' for Inactive)
REMARK    1  A    between atoms: C2_2  and  C3_3 
REMARK    2  A    between atoms: C3_3  and  N1_4 
REMARK       I    between atoms: N1_4  and  C4_6 
REMARK       I    between atoms: C4_6  and  N3_10 
REMARK    3  A    between atoms: C8_13  and  C9_14 
REMARK    4  A    between atoms: C9_14  and  O1_15 
REMARK    5  A    between atoms: C9_14  and  N4_17 
REMARK    6  A    between atoms: C15_23  and  C16_24 
REMARK    7  A    between atoms: C16_24  and  O2_25 
REMARK    8  A    between atoms: C16_24  and  N5_27 
REMARK    9  A    between atoms: N5_27  and  C17_29 
ROOT
HETATM    1  N4  UNL     1       3.332   6.209  22.656  1.00  0.00    -0.359 N 
HETATM    2  C10 UNL     1       2.008   5.678  23.057  1.00  0.00     0.130 C 
HETATM    3  C11 UNL     1       1.998   4.345  22.284  1.00  0.00     0.017 C 
HETATM    4  C12 UNL     1       2.009   4.723  20.842  1.00  0.00     0.009 C 
HETATM    5  C13 UNL     1       3.421   5.170  20.540  1.00  0.00     0.026 C 
HETATM    6  C14 UNL     1       4.048   5.206  21.898  1.00  0.00     0.098 C 
HETATM    7  C15 UNL     1       3.432   3.959  22.560  1.00  0.00     0.088 C 
ENDROOT
BRANCH   1   8
HETATM    8  C9  UNL     1       3.783   7.489  23.006  1.00  0.00     0.118 C 
BRANCH   8   9
HETATM    9  C8  UNL     1       5.089   8.004  23.307  1.00  0.00     0.063 C 
HETATM   10  C7  UNL     1       5.258   9.440  23.659  1.00  0.00     0.033 C 
HETATM   11  C6  UNL     1       6.751   9.768  23.574  1.00  0.00     0.142 C 
HETATM   12  N3  UNL     1       7.588   8.663  23.936  1.00  0.00    -0.218 N 
HETATM   13  C4  UNL     1       9.017   8.932  23.965  1.00  0.00     0.671 C 
HETATM   14  C27 UNL     1       7.205   7.333  24.276  1.00  0.00     0.142 C 
HETATM   15  N1  UNL     1       9.650   9.391  25.158  1.00  0.00    -0.223 N 
HETATM   16  N2  UNL     1       9.672   8.746  22.883  1.00  0.00    -0.231 N 
ATOM     17  H1  UNL     1       9.081   9.663  25.958  1.00  0.00     0.178 HD
HETATM   18  C5  UNL     1       9.101   8.283  21.645  1.00  0.00     0.165 C 
ATOM     19  H2  UNL     1      10.673   8.939  22.899  1.00  0.00     0.177 HD
HETATM   20  C26 UNL     1       5.717   7.215  24.467  1.00  0.00     0.033 C 
BRANCH  15  21
HETATM   21  C3  UNL     1      11.073   9.476  25.244  1.00  0.00     0.164 C 
BRANCH  21  22
HETATM   22  C2  UNL     1      11.750   8.254  25.691  1.00  0.00    -0.017 C 
HETATM   23  C1  UNL     1      11.345   7.460  26.663  1.00  0.00     0.008 C 
ENDBRANCH  21  22
ENDBRANCH  15  21
ENDBRANCH   8   9
BRANCH   8  24
HETATM   24  O1  UNL     1       2.817   8.385  23.061  1.00  0.00    -0.349 OA
ATOM     25  H1  UNL     1       1.986   8.048  23.373  1.00  0.00     0.219 HD
ENDBRANCH   8  24
ENDBRANCH   1   8
BRANCH   7  26
HETATM   26  C16 UNL     1       3.902   2.683  22.130  1.00  0.00     0.118 C 
BRANCH  26  27
HETATM   27  O2  UNL     1       2.970   1.771  21.991  1.00  0.00    -0.349 OA
ATOM     28  H2  UNL     1       3.157   0.942  22.415  1.00  0.00     0.219 HD
ENDBRANCH  26  27
BRANCH  26  29
HETATM   29  N5  UNL     1       5.173   2.195  21.821  1.00  0.00    -0.369 N 
ATOM     30  H5  UNL     1       5.669   1.667  22.539  1.00  0.00     0.161 HD
BRANCH  29  31
HETATM   31  C17 UNL     1       5.836   2.392  20.543  1.00  0.00     0.084 C 
HETATM   32  C18 UNL     1       5.555   1.292  19.551  1.00  0.00     0.026 C 
HETATM   33  C19 UNL     1       6.593   1.647  18.472  1.00  0.00     0.012 C 
HETATM   34  C20 UNL     1       7.834   1.818  19.328  1.00  0.00    -0.036 C 
HETATM   35  C21 UNL     1       8.555   0.509  19.358  1.00  0.00     0.012 C 
HETATM   36  C24 UNL     1       8.821   2.794  18.723  1.00  0.00     0.046 C 
HETATM   37  C25 UNL     1       7.348   2.289  20.673  1.00  0.00     0.034 C 
HETATM   38  C22 UNL     1       9.322   0.555  18.030  1.00  0.00     0.038 C 
HETATM   39  C23 UNL     1       9.880   1.961  18.066  1.00  0.00     0.171 C 
HETATM   40  F1  UNL     1      10.179   2.395  16.781  1.00  0.00    -0.249 F 
ENDBRANCH  29  31
ENDBRANCH  26  29
ENDBRANCH   7  26
TORSDOF 9
ENDMDL
MODEL 5
REMARK VINA RESULT: -8.862030086      2.036      2.805
REMARK  9 active torsions:
REMARK  status: ('A' for Active; 'I' for Inactive)
REMARK    1  A    between atoms: C2_2  and  C3_3 
REMARK    2  A    between atoms: C3_3  and  N1_4 
REMARK       I    between atoms: N1_4  and  C4_6 
REMARK       I    between atoms: C4_6  and  N3_10 
REMARK    3  A    between atoms: C8_13  and  C9_14 
REMARK    4  A    between atoms: C9_14  and  O1_15 
REMARK    5  A    between atoms: C9_14  and  N4_17 
REMARK    6  A    between atoms: C15_23  and  C16_24 
REMARK    7  A    between atoms: C16_24  and  O2_25 
REMARK    8  A    between atoms: C16_24  and  N5_27 
REMARK    9  A    between atoms: N5_27  and  C17_29 
ROOT
HETATM    1  N4  UNL     1       7.765   5.342  19.862  1.00  0.00    -0.359 N 
HETATM    2  C10 UNL     1       7.727   6.064  18.569  1.00  0.00     0.130 C 
HETATM    3  C11 UNL     1       7.584   7.515  19.065  1.00  0.00     0.017 C 
HETATM    4  C12 UNL     1       6.260   7.571  19.749  1.00  0.00     0.009 C 
HETATM    5  C13 UNL     1       6.449   6.876  21.078  1.00  0.00     0.026 C 
HETATM    6  C14 UNL     1       7.822   6.295  20.948  1.00  0.00     0.098 C 
HETATM    7  C15 UNL     1       8.568   7.420  20.206  1.00  0.00     0.088 C 
ENDROOT
BRANCH   1   8
HETATM    8  C9  UNL     1       7.770   3.944  19.960  1.00  0.00     0.118 C 
BRANCH   8   9
HETATM    9  C8  UNL     1       8.112   2.910  19.024  1.00  0.00     0.063 C 
HETATM   10  C7  UNL     1       9.381   2.997  18.253  1.00  0.00     0.033 C 
HETATM   11  C6  UNL     1       9.303   1.979  17.111  1.00  0.00     0.142 C 
HETATM   12  N3  UNL     1       8.555   0.807  17.457  1.00  0.00    -0.218 N 
HETATM   13  C4  UNL     1       8.517  -0.242  16.450  1.00  0.00     0.671 C 
HETATM   14  C27 UNL     1       7.845   0.530  18.662  1.00  0.00     0.142 C 
HETATM   15  N1  UNL     1       9.508  -1.268  16.426  1.00  0.00    -0.223 N 
HETATM   16  N2  UNL     1       7.569  -0.199  15.593  1.00  0.00    -0.231 N 
ATOM     17  H1  UNL     1      10.324  -1.195  17.031  1.00  0.00     0.178 HD
HETATM   18  C5  UNL     1       6.536   0.803  15.558  1.00  0.00     0.165 C 
ATOM     19  H2  UNL     1       7.543  -0.930  14.882  1.00  0.00     0.177 HD
HETATM   20  C26 UNL     1       8.147   1.545  19.730  1.00  0.00     0.033 C 
BRANCH  15  21
HETATM   21  C3  UNL     1       9.369  -2.397  15.562  1.00  0.00     0.164 C 
BRANCH  21  22
HETATM   22  C2  UNL     1      10.048  -3.618  16.012  1.00  0.00    -0.017 C 
HETATM   23  C1  UNL     1       9.542  -4.835  15.986  1.00  0.00     0.008 C 
ENDBRANCH  21  22
ENDBRANCH  15  21
ENDBRANCH   8   9
BRANCH   8  24
HETATM   24  O1  UNL     1       7.393   3.503  21.145  1.00  0.00    -0.349 OA
ATOM     25  H1  UNL     1       6.524   3.782  21.409  1.00  0.00     0.219 HD
ENDBRANCH   8  24
ENDBRANCH   1   8
BRANCH   7  26
HETATM   26  C16 UNL     1       8.891   8.598  20.943  1.00  0.00     0.118 C 
BRANCH  26  27
HETATM   27  O2  UNL     1       8.736   9.720  20.284  1.00  0.00    -0.349 OA
ATOM     28  H2  UNL     1       8.779  10.505  20.818  1.00  0.00     0.219 HD
ENDBRANCH  26  27
BRANCH  26  29
HETATM   29  N5  UNL     1       9.346   8.805  22.247  1.00  0.00    -0.369 N 
ATOM     30  H5  UNL     1      10.354   8.787  22.409  1.00  0.00     0.161 HD
BRANCH  29  31
HETATM   31  C17 UNL     1       8.480   9.044  23.388  1.00  0.00     0.084 C 
HETATM   32  C18 UNL     1       8.426   7.883  24.348  1.00  0.00     0.026 C 
HETATM   33  C19 UNL     1       7.252   8.336  25.234  1.00  0.00     0.012 C 
HETATM   34  C20 UNL     1       6.230   8.701  24.173  1.00  0.00    -0.036 C 
HETATM   35  C21 UNL     1       5.371   7.501  23.932  1.00  0.00     0.012 C 
HETATM   36  C24 UNL     1       5.274   9.777  24.641  1.00  0.00     0.046 C 
HETATM   37  C25 UNL     1       7.020   9.149  22.973  1.00  0.00     0.034 C 
HETATM   38  C22 UNL     1       4.375   7.603  25.094  1.00  0.00     0.038 C 
HETATM   39  C23 UNL     1       4.014   9.071  25.039  1.00  0.00     0.171 C 
HETATM   40  F1  UNL     1       3.528   9.496  26.269  1.00  0.00    -0.249 F 
ENDBRANCH  29  31
ENDBRANCH  26  29
ENDBRANCH   7  26
TORSDOF 9
ENDMDL
