MODEL 1
REMARK VINA RESULT: -8.902822742      0.000      0.000
REMARK  5 active torsions:
REMARK  status: ('A' for Active; 'I' for Inactive)
REMARK       I    between atoms: N1_2  and  C2_4 
REMARK    1  A    between atoms: C2_4  and  C3_6 
REMARK    2  A    between atoms: C3_6  and  C4_7 
REMARK       I    between atoms: N2_11  and  C7_12 
REMARK       I    between atoms: C7_12  and  N3_14 
REMARK    3  A    between atoms: N3_14  and  C8_16 
REMARK    4  A    between atoms: C16_24  and  C17_25 
REMARK    5  A    between atoms: C17_25  and  N4_26 
ROOT
HETATM    1  C3  UNL     1       8.061   8.967  21.492  1.00  0.00     0.053 C 
HETATM    2  C5  UNL     1       6.812   8.105  21.506  1.00  0.00     0.040 C 
HETATM    3  C6  UNL     1       6.530   7.517  20.131  1.00  0.00     0.129 C 
HETATM    4  N2  UNL     1       7.646   6.685  19.733  1.00  0.00    -0.334 N 
HETATM    5  C7  UNL     1       7.468   5.363  19.274  1.00  0.00     0.318 C 
HETATM    6  O2  UNL     1       6.289   4.934  19.224  1.00  0.00    -0.247 OA
HETATM    7  N3  UNL     1       8.517   4.514  18.875  1.00  0.00    -0.333 N 
ATOM      8  H3  UNL     1       9.458   4.905  18.928  1.00  0.00     0.165 HD
HETATM    9  C22 UNL     1       8.968   7.308  19.843  1.00  0.00     0.129 C 
HETATM   10  C23 UNL     1       8.820   8.765  20.198  1.00  0.00     0.040 C 
ENDROOT
BRANCH   7  11
HETATM   11  C8  UNL     1       8.418   3.169  18.405  1.00  0.00     0.041 C 
HETATM   12  C9  UNL     1       8.017   2.311  19.600  1.00  0.00     0.036 C 
HETATM   13  C10 UNL     1       8.073   0.816  19.264  1.00  0.00    -0.012 C 
HETATM   14  C11 UNL     1       9.419   0.408  18.763  1.00  0.00     0.009 C 
HETATM   15  C15 UNL     1       7.030   0.610  18.195  1.00  0.00     0.010 C 
HETATM   16  C12 UNL     1       9.801   1.284  17.559  1.00  0.00    -0.012 C 
HETATM   17  C13 UNL     1       8.780   0.986  16.506  1.00  0.00     0.010 C 
HETATM   18  C21 UNL     1       9.816   2.693  18.051  1.00  0.00     0.036 C 
HETATM   19  C14 UNL     1       7.432   1.424  17.011  1.00  0.00    -0.006 C 
HETATM   20  C16 UNL     1       7.423   2.921  17.326  1.00  0.00     0.046 C 
BRANCH  20  21
HETATM   21  C17 UNL     1       7.597   3.626  16.053  1.00  0.00     0.279 C 
BRANCH  21  22
HETATM   22  N4  UNL     1       6.712   4.686  15.713  1.00  0.00     0.089 N 
HETATM   23  C18 UNL     1       6.716   5.036  14.279  1.00  0.00     0.274 C 
HETATM   24  C19 UNL     1       5.742   3.943  14.007  1.00  0.00     0.060 C 
HETATM   25  C20 UNL     1       5.350   4.174  15.449  1.00  0.00     0.274 C 
ENDBRANCH  21  22
ENDBRANCH  20  21
ENDBRANCH   7  11
BRANCH   1  26
HETATM   26  C2  UNL     1       7.645  10.380  21.576  1.00  0.00     0.227 C 
HETATM   27  N1  UNL     1       8.229  11.409  20.804  1.00  0.00    -0.365 N 
HETATM   28  C1  UNL     1       7.763  12.797  20.931  1.00  0.00     0.149 C 
ATOM     29  H1  UNL     1       8.982  11.187  20.152  1.00  0.00     0.161 HD
HETATM   30  O1  UNL     1       6.709  10.718  22.379  1.00  0.00    -0.273 OA
ENDBRANCH   1  26
BRANCH   1  31
HETATM   31  C4  UNL     1       8.958   8.548  22.610  1.00  0.00     0.104 C 
HETATM   32 BR1  UNL     1       8.088   7.746  24.107  1.00  0.00    -0.095 Br
ENDBRANCH   1  31
TORSDOF 5
ENDMDL
MODEL 2
REMARK VINA RESULT: -8.420217055      1.610      2.994
REMARK  5 active torsions:
REMARK  status: ('A' for Active; 'I' for Inactive)
REMARK       I    between atoms: N1_2  and  C2_4 
REMARK    1  A    between atoms: C2_4  and  C3_6 
REMARK    2  A    between atoms: C3_6  and  C4_7 
REMARK       I    between atoms: N2_11  and  C7_12 
REMARK       I    between atoms: C7_12  and  N3_14 
REMARK    3  A    between atoms: N3_14  and  C8_16 
REMARK    4  A    between atoms: C16_24  and  C17_25 
REMARK    5  A    between atoms: C17_25  and  N4_26 
ROOT
HETATM    1  C3  UNL     1       7.382   9.315  21.018  1.00  0.00     0.053 C 
HETATM    2  C5  UNL     1       6.243   8.704  20.223  1.00  0.00     0.040 C 
HETATM    3  C6  UNL     1       6.744   8.083  18.927  1.00  0.00     0.129 C 
HETATM    4  N2  UNL     1       7.689   7.033  19.239  1.00  0.00    -0.334 N 
HETATM    5  C7  UNL     1       7.576   5.737  18.689  1.00  0.00     0.318 C 
HETATM    6  O2  UNL     1       6.613   5.534  17.910  1.00  0.00    -0.247 OA
HETATM    7  N3  UNL     1       8.467   4.682  18.958  1.00  0.00    -0.333 N 
ATOM      8  H3  UNL     1       9.237   4.893  19.593  1.00  0.00     0.165 HD
HETATM    9  C22 UNL     1       8.764   7.403  20.163  1.00  0.00     0.129 C 
HETATM   10  C23 UNL     1       8.713   8.884  20.439  1.00  0.00     0.040 C 
ENDROOT
BRANCH   7  11
HETATM   11  C8  UNL     1       8.418   3.350  18.447  1.00  0.00     0.041 C 
HETATM   12  C9  UNL     1       9.857   2.850  18.375  1.00  0.00     0.036 C 
HETATM   13  C10 UNL     1       9.949   1.500  17.653  1.00  0.00    -0.012 C 
HETATM   14  C11 UNL     1       9.352   1.558  16.286  1.00  0.00     0.009 C 
HETATM   15  C15 UNL     1       9.182   0.533  18.519  1.00  0.00     0.010 C 
HETATM   16  C12 UNL     1       7.903   2.062  16.383  1.00  0.00    -0.012 C 
HETATM   17  C13 UNL     1       7.174   1.032  17.189  1.00  0.00     0.010 C 
HETATM   18  C21 UNL     1       7.969   3.421  16.998  1.00  0.00     0.036 C 
HETATM   19  C14 UNL     1       7.766   1.000  18.571  1.00  0.00    -0.006 C 
HETATM   20  C16 UNL     1       7.645   2.364  19.252  1.00  0.00     0.046 C 
BRANCH  20  21
HETATM   21  C17 UNL     1       6.217   2.613  19.460  1.00  0.00     0.279 C 
BRANCH  21  22
HETATM   22  N4  UNL     1       5.741   2.920  20.764  1.00  0.00     0.089 N 
HETATM   23  C18 UNL     1       4.298   2.674  20.951  1.00  0.00     0.274 C 
HETATM   24  C19 UNL     1       4.577   1.238  21.235  1.00  0.00     0.060 C 
HETATM   25  C20 UNL     1       5.921   1.770  21.677  1.00  0.00     0.274 C 
ENDBRANCH  21  22
ENDBRANCH  20  21
ENDBRANCH   7  11
BRANCH   1  26
HETATM   26  C2  UNL     1       7.279  10.783  20.915  1.00  0.00     0.227 C 
HETATM   27  N1  UNL     1       8.379  11.620  20.621  1.00  0.00    -0.365 N 
HETATM   28  C1  UNL     1       8.207  13.076  20.526  1.00  0.00     0.149 C 
ATOM     29  H1  UNL     1       9.301  11.210  20.473  1.00  0.00     0.161 HD
HETATM   30  O1  UNL     1       6.149  11.353  21.095  1.00  0.00    -0.273 OA
ENDBRANCH   1  26
BRANCH   1  31
HETATM   31  C4  UNL     1       7.320   8.816  22.425  1.00  0.00     0.104 C 
HETATM   32 BR1  UNL     1       8.618   9.550  23.616  1.00  0.00    -0.095 Br
ENDBRANCH   1  31
TORSDOF 5
ENDMDL
MODEL 3
REMARK VINA RESULT: -8.109237781      2.209      2.580
REMARK  5 active torsions:
REMARK  status: ('A' for Active; 'I' for Inactive)
REMARK       I    between atoms: N1_2  and  C2_4 
REMARK    1  A    between atoms: C2_4  and  C3_6 
REMARK    2  A    between atoms: C3_6  and  C4_7 
REMARK       I    between atoms: N2_11  and  C7_12 
REMARK       I    between atoms: C7_12  and  N3_14 
REMARK    3  A    between atoms: N3_14  and  C8_16 
REMARK    4  A    between atoms: C16_24  and  C17_25 
REMARK    5  A    between atoms: C17_25  and  N4_26 
ROOT
HETATM    1  C3  UNL     1       5.844   7.612  23.434  1.00  0.00     0.053 C 
HETATM    2  C5  UNL     1       5.035   6.338  23.280  1.00  0.00     0.040 C 
HETATM    3  C6  UNL     1       4.762   6.029  21.816  1.00  0.00     0.129 C 
HETATM    4  N2  UNL     1       6.022   5.847  21.127  1.00  0.00    -0.334 N 
HETATM    5  C7  UNL     1       6.277   4.717  20.321  1.00  0.00     0.318 C 
HETATM    6  O2  UNL     1       5.356   3.869  20.225  1.00  0.00    -0.247 OA
HETATM    7  N3  UNL     1       7.482   4.492  19.630  1.00  0.00    -0.333 N 
ATOM      8  H3  UNL     1       8.201   5.209  19.733  1.00  0.00     0.165 HD
HETATM    9  C22 UNL     1       7.010   6.910  21.326  1.00  0.00     0.129 C 
HETATM   10  C23 UNL     1       6.388   8.050  22.091  1.00  0.00     0.040 C 
ENDROOT
BRANCH   7  11
HETATM   11  C8  UNL     1       7.817   3.377  18.803  1.00  0.00     0.041 C 
HETATM   12  C9  UNL     1       7.710   2.131  19.675  1.00  0.00     0.036 C 
HETATM   13  C10 UNL     1       8.239   0.888  18.949  1.00  0.00    -0.012 C 
HETATM   14  C11 UNL     1       9.645   1.073  18.481  1.00  0.00     0.009 C 
HETATM   15  C15 UNL     1       7.316   0.692  17.773  1.00  0.00     0.010 C 
HETATM   16  C12 UNL     1       9.729   2.332  17.604  1.00  0.00    -0.012 C 
HETATM   17  C13 UNL     1       8.855   2.055  16.421  1.00  0.00     0.010 C 
HETATM   18  C21 UNL     1       9.293   3.474  18.462  1.00  0.00     0.036 C 
HETATM   19  C14 UNL     1       7.438   1.896  16.900  1.00  0.00    -0.006 C 
HETATM   20  C16 UNL     1       6.953   3.161  17.610  1.00  0.00     0.046 C 
BRANCH  20  21
HETATM   21  C17 UNL     1       6.893   4.221  16.601  1.00  0.00     0.279 C 
BRANCH  21  22
HETATM   22  N4  UNL     1       5.846   4.215  15.639  1.00  0.00     0.089 N 
HETATM   23  C18 UNL     1       5.341   5.556  15.289  1.00  0.00     0.274 C 
HETATM   24  C19 UNL     1       6.444   5.716  14.301  1.00  0.00     0.060 C 
HETATM   25  C20 UNL     1       6.391   4.206  14.264  1.00  0.00     0.274 C 
ENDBRANCH  21  22
ENDBRANCH  20  21
ENDBRANCH   7  11
BRANCH   1  26
HETATM   26  C2  UNL     1       4.949   8.667  23.945  1.00  0.00     0.227 C 
HETATM   27  N1  UNL     1       4.212   8.548  25.145  1.00  0.00    -0.365 N 
HETATM   28  C1  UNL     1       3.343   9.641  25.600  1.00  0.00     0.149 C 
ATOM     29  H1  UNL     1       4.284   7.695  25.699  1.00  0.00     0.161 HD
HETATM   30  O1  UNL     1       4.817   9.757  23.289  1.00  0.00    -0.273 OA
ENDBRANCH   1  26
BRANCH   1  31
HETATM   31  C4  UNL     1       7.012   7.345  24.327  1.00  0.00     0.104 C 
HETATM   32 BR1  UNL     1       8.122   8.852  24.702  1.00  0.00    -0.095 Br
ENDBRANCH   1  31
TORSDOF 5
ENDMDL
MODEL 4
REMARK VINA RESULT: -7.770842861      2.134      3.492
REMARK  5 active torsions:
REMARK  status: ('A' for Active; 'I' for Inactive)
REMARK       I    between atoms: N1_2  and  C2_4 
REMARK    1  A    between atoms: C2_4  and  C3_6 
REMARK    2  A    between atoms: C3_6  and  C4_7 
REMARK       I    between atoms: N2_11  and  C7_12 
REMARK       I    between atoms: C7_12  and  N3_14 
REMARK    3  A    between atoms: N3_14  and  C8_16 
REMARK    4  A    between atoms: C16_24  and  C17_25 
REMARK    5  A    between atoms: C17_25  and  N4_26 
ROOT
HETATM    1  C3  UNL     1       7.329   9.477  21.397  1.00  0.00     0.053 C 
HETATM    2  C5  UNL     1       6.714   9.208  20.036  1.00  0.00     0.040 C 
HETATM    3  C6  UNL     1       7.654   8.400  19.154  1.00  0.00     0.129 C 
HETATM    4  N2  UNL     1       7.920   7.126  19.787  1.00  0.00    -0.334 N 
HETATM    5  C7  UNL     1       7.774   5.903  19.096  1.00  0.00     0.318 C 
HETATM    6  O2  UNL     1       7.401   5.969  17.900  1.00  0.00    -0.247 OA
HETATM    7  N3  UNL     1       8.019   4.639  19.663  1.00  0.00    -0.333 N 
ATOM      8  H3  UNL     1       8.324   4.634  20.637  1.00  0.00     0.165 HD
HETATM    9  C22 UNL     1       8.345   7.192  21.187  1.00  0.00     0.129 C 
HETATM   10  C23 UNL     1       8.569   8.628  21.586  1.00  0.00     0.040 C 
ENDROOT
BRANCH   7  11
HETATM   11  C8  UNL     1       7.890   3.363  19.035  1.00  0.00     0.041 C 
HETATM   12  C9  UNL     1       9.292   2.932  18.618  1.00  0.00     0.036 C 
HETATM   13  C10 UNL     1       9.258   1.665  17.755  1.00  0.00    -0.012 C 
HETATM   14  C11 UNL     1       8.390   1.835  16.552  1.00  0.00     0.009 C 
HETATM   15  C15 UNL     1       8.706   0.587  18.652  1.00  0.00     0.010 C 
HETATM   16  C12 UNL     1       6.983   2.268  16.995  1.00  0.00    -0.012 C 
HETATM   17  C13 UNL     1       6.456   1.135  17.819  1.00  0.00     0.010 C 
HETATM   18  C21 UNL     1       7.150   3.560  17.723  1.00  0.00     0.036 C 
HETATM   19  C14 UNL     1       7.322   0.989  19.040  1.00  0.00    -0.006 C 
HETATM   20  C16 UNL     1       7.319   2.273  19.872  1.00  0.00     0.046 C 
BRANCH  20  21
HETATM   21  C17 UNL     1       5.960   2.442  20.391  1.00  0.00     0.279 C 
BRANCH  21  22
HETATM   22  N4  UNL     1       5.686   2.132  21.752  1.00  0.00     0.089 N 
HETATM   23  C18 UNL     1       4.538   2.867  22.317  1.00  0.00     0.274 C 
HETATM   24  C19 UNL     1       3.606   1.854  21.748  1.00  0.00     0.060 C 
HETATM   25  C20 UNL     1       4.809   0.945  21.858  1.00  0.00     0.274 C 
ENDBRANCH  21  22
ENDBRANCH  20  21
ENDBRANCH   7  11
BRANCH   1  26
HETATM   26  C2  UNL     1       7.722  10.898  21.453  1.00  0.00     0.227 C 
HETATM   27  N1  UNL     1       7.264  11.867  20.532  1.00  0.00    -0.365 N 
HETATM   28  C1  UNL     1       7.689  13.269  20.648  1.00  0.00     0.149 C 
ATOM     29  H1  UNL     1       6.634  11.592  19.779  1.00  0.00     0.161 HD
HETATM   30  O1  UNL     1       8.514  11.301  22.372  1.00  0.00    -0.273 OA
ENDBRANCH   1  26
BRANCH   1  31
HETATM   31  C4  UNL     1       6.354   9.092  22.460  1.00  0.00     0.104 C 
HETATM   32 BR1  UNL     1       4.542   9.596  22.136  1.00  0.00    -0.095 Br
ENDBRANCH   1  31
TORSDOF 5
ENDMDL
MODEL 5
REMARK VINA RESULT: -7.765930635      1.266      1.319
REMARK  5 active torsions:
REMARK  status: ('A' for Active; 'I' for Inactive)
REMARK       I    between atoms: N1_2  and  C2_4 
REMARK    1  A    between atoms: C2_4  and  C3_6 
REMARK    2  A    between atoms: C3_6  and  C4_7 
REMARK       I    between atoms: N2_11  and  C7_12 
REMARK       I    between atoms: C7_12  and  N3_14 
REMARK    3  A    between atoms: N3_14  and  C8_16 
REMARK    4  A    between atoms: C16_24  and  C17_25 
REMARK    5  A    between atoms: C17_25  and  N4_26 
ROOT
HETATM    1  C3  UNL     1       6.265   8.739  21.147  1.00  0.00     0.053 C 
HETATM    2  C5  UNL     1       5.217   7.651  21.002  1.00  0.00     0.040 C 
HETATM    3  C6  UNL     1       5.244   7.038  19.610  1.00  0.00     0.129 C 
HETATM    4  N2  UNL     1       6.543   6.445  19.378  1.00  0.00    -0.334 N 
HETATM    5  C7  UNL     1       6.688   5.119  18.915  1.00  0.00     0.318 C 
HETATM    6  O2  UNL     1       5.632   4.471  18.711  1.00  0.00    -0.247 OA
HETATM    7  N3  UNL     1       7.925   4.495  18.673  1.00  0.00    -0.333 N 
ATOM      8  H3  UNL     1       8.757   5.060  18.849  1.00  0.00     0.165 HD
HETATM    9  C22 UNL     1       7.692   7.309  19.658  1.00  0.00     0.129 C 
HETATM   10  C23 UNL     1       7.217   8.705  19.970  1.00  0.00     0.040 C 
ENDROOT
BRANCH   7  11
HETATM   11  C8  UNL     1       8.153   3.163  18.212  1.00  0.00     0.041 C 
HETATM   12  C9  UNL     1       7.728   2.226  19.337  1.00  0.00     0.036 C 
HETATM   13  C10 UNL     1       8.112   0.772  19.035  1.00  0.00    -0.012 C 
HETATM   14  C11 UNL     1       9.574   0.627  18.766  1.00  0.00     0.009 C 
HETATM   15  C15 UNL     1       7.313   0.396  17.813  1.00  0.00     0.010 C 
HETATM   16  C12 UNL     1       9.979   1.578  17.628  1.00  0.00    -0.012 C 
HETATM   17  C13 UNL     1       9.215   1.116  16.427  1.00  0.00     0.010 C 
HETATM   18  C21 UNL     1       9.654   2.958  18.097  1.00  0.00     0.036 C 
HETATM   19  C14 UNL     1       7.746   1.290  16.700  1.00  0.00    -0.006 C 
HETATM   20  C16 UNL     1       7.411   2.754  16.988  1.00  0.00     0.046 C 
BRANCH  20  21
HETATM   21  C17 UNL     1       7.656   3.501  15.752  1.00  0.00     0.279 C 
BRANCH  21  22
HETATM   22  N4  UNL     1       6.735   4.504  15.344  1.00  0.00     0.089 N 
HETATM   23  C18 UNL     1       6.786   4.818  13.903  1.00  0.00     0.274 C 
HETATM   24  C19 UNL     1       5.882   3.669  13.619  1.00  0.00     0.060 C 
HETATM   25  C20 UNL     1       5.414   3.915  15.034  1.00  0.00     0.274 C 
ENDBRANCH  21  22
ENDBRANCH  20  21
ENDBRANCH   7  11
BRANCH   1  26
HETATM   26  C2  UNL     1       5.576  10.043  21.155  1.00  0.00     0.227 C 
HETATM   27  N1  UNL     1       5.730  11.010  20.136  1.00  0.00    -0.365 N 
HETATM   28  C1  UNL     1       5.009  12.288  20.201  1.00  0.00     0.149 C 
ATOM     29  H1  UNL     1       6.348  10.819  19.347  1.00  0.00     0.161 HD
HETATM   30  O1  UNL     1       4.793  10.340  22.121  1.00  0.00    -0.273 OA
ENDBRANCH   1  26
BRANCH   1  31
HETATM   31  C4  UNL     1       7.066   8.486  22.382  1.00  0.00     0.104 C 
HETATM   32 BR1  UNL     1       8.202   9.917  22.933  1.00  0.00    -0.095 Br
ENDBRANCH   1  31
TORSDOF 5
ENDMDL
