MODEL 1
REMARK VINA RESULT: -8.219797925      0.000      0.000
REMARK  5 active torsions:
REMARK  status: ('A' for Active; 'I' for Inactive)
REMARK    1  A    between atoms: C4_4  and  C5_5 
REMARK       I    between atoms: C5_5  and  N1_7 
REMARK    2  A    between atoms: C11_13  and  C12_14 
REMARK    3  A    between atoms: C12_14  and  N2_15 
REMARK       I    between atoms: N2_15  and  C13_17 
REMARK    4  A    between atoms: C13_17  and  C14_19 
REMARK    5  A    between atoms: N4_31  and  C21_32 
ROOT
HETATM    1  C1  UNL     1       5.240   7.592  17.172  1.00  0.00     0.014 C 
HETATM    2  C2  UNL     1       5.654   6.656  17.790  1.00  0.00    -0.095 C 
HETATM    3  C3  UNL     1       6.137   5.516  18.531  1.00  0.00     0.169 C 
HETATM    4  C4  UNL     1       7.554   5.736  19.042  1.00  0.00     0.131 C 
HETATM    5  C19 UNL     1       8.196   4.425  19.442  1.00  0.00     0.105 C 
HETATM    6  C20 UNL     1       8.933   3.742  18.333  1.00  0.00     0.034 C 
HETATM    7  N3  UNL     1       7.235   3.511  20.086  1.00  0.00    -0.301 N 
ATOM      8  H3  UNL     1       7.234   3.223  21.064  1.00  0.00     0.173 HD
HETATM    9  S1  UNL     1       6.094   3.012  18.854  1.00  0.00     0.300 S 
HETATM   10  O3  UNL     1       6.505   1.731  18.253  1.00  0.00    -0.188 OA
HETATM   11  O4  UNL     1       4.754   2.952  19.542  1.00  0.00    -0.188 OA
HETATM   12  N4  UNL     1       6.130   4.341  17.722  1.00  0.00    -0.173 NA
ENDROOT
BRANCH   4  13
HETATM   13  C5  UNL     1       7.539   6.614  20.231  1.00  0.00     0.229 C 
HETATM   14  O1  UNL     1       7.080   6.089  21.304  1.00  0.00    -0.273 OA
HETATM   15  N1  UNL     1       7.999   7.947  20.209  1.00  0.00    -0.342 N 
HETATM   16  C6  UNL     1       8.496   8.638  19.064  1.00  0.00     0.127 C 
HETATM   17  C11 UNL     1       7.977   8.694  21.504  1.00  0.00     0.126 C 
HETATM   18  C7  UNL     1       7.609   9.847  18.797  1.00  0.00     0.024 C 
HETATM   19  C8  UNL     1       7.499  10.690  20.034  1.00  0.00    -0.015 C 
HETATM   20  C9  UNL     1       6.415  11.727  19.850  1.00  0.00     0.010 C 
HETATM   21  C10 UNL     1       7.117   9.859  21.242  1.00  0.00     0.035 C 
BRANCH  17  22
HETATM   22  C12 UNL     1       9.353   8.828  21.989  1.00  0.00     0.089 C 
BRANCH  22  23
HETATM   23  N2  UNL     1       9.669   8.593  23.334  1.00  0.00    -0.338 N 
HETATM   24  C13 UNL     1      10.352   9.359  24.272  1.00  0.00     0.225 C 
HETATM   25  O2  UNL     1      10.878  10.478  24.105  1.00  0.00    -0.273 OA
ATOM     26  H2  UNL     1       9.339   7.696  23.689  1.00  0.00     0.167 HD
BRANCH  24  27
HETATM   27  C14 UNL     1      10.505   8.823  25.680  1.00  0.00     0.078 C 
HETATM   28  C15 UNL     1      11.824   8.145  25.882  1.00  0.00     0.014 C 
HETATM   29  C16 UNL     1      11.534   6.982  26.811  1.00  0.00     0.001 C 
HETATM   30  C17 UNL     1      10.081   7.079  27.191  1.00  0.00     0.001 C 
HETATM   31  C18 UNL     1       9.484   7.744  25.952  1.00  0.00     0.014 C 
ENDBRANCH  24  27
ENDBRANCH  22  23
ENDBRANCH  17  22
ENDBRANCH   4  13
BRANCH  12  32
HETATM   32  C21 UNL     1       5.056   4.268  16.774  1.00  0.00     0.069 C 
HETATM   33  C22 UNL     1       5.649   3.685  15.483  1.00  0.00     0.027 C 
HETATM   34  C23 UNL     1       3.928   3.380  17.179  1.00  0.00     0.027 C 
ENDBRANCH  12  32
TORSDOF 5
ENDMDL
MODEL 2
REMARK VINA RESULT: -8.197707818      3.427      7.368
REMARK  5 active torsions:
REMARK  status: ('A' for Active; 'I' for Inactive)
REMARK    1  A    between atoms: C4_4  and  C5_5 
REMARK       I    between atoms: C5_5  and  N1_7 
REMARK    2  A    between atoms: C11_13  and  C12_14 
REMARK    3  A    between atoms: C12_14  and  N2_15 
REMARK       I    between atoms: N2_15  and  C13_17 
REMARK    4  A    between atoms: C13_17  and  C14_19 
REMARK    5  A    between atoms: N4_31  and  C21_32 
ROOT
HETATM    1  C1  UNL     1       3.538   9.588  21.280  1.00  0.00     0.014 C 
HETATM    2  C2  UNL     1       4.606   9.117  21.021  1.00  0.00    -0.095 C 
HETATM    3  C3  UNL     1       5.899   8.563  20.696  1.00  0.00     0.169 C 
HETATM    4  C4  UNL     1       6.238   7.370  21.577  1.00  0.00     0.131 C 
HETATM    5  C19 UNL     1       7.718   7.061  21.526  1.00  0.00     0.105 C 
HETATM    6  C20 UNL     1       8.528   7.780  22.560  1.00  0.00     0.034 C 
HETATM    7  N3  UNL     1       8.280   7.259  20.177  1.00  0.00    -0.301 N 
ATOM      8  H3  UNL     1       8.626   6.531  19.552  1.00  0.00     0.173 HD
HETATM    9  S1  UNL     1       8.240   8.979  19.849  1.00  0.00     0.300 S 
HETATM   10  O3  UNL     1       9.532   9.602  20.189  1.00  0.00    -0.188 OA
HETATM   11  O4  UNL     1       7.875   9.107  18.392  1.00  0.00    -0.188 OA
HETATM   12  N4  UNL     1       6.926   9.542  20.851  1.00  0.00    -0.173 NA
ENDROOT
BRANCH   4  13
HETATM   13  C5  UNL     1       5.509   6.170  21.115  1.00  0.00     0.229 C 
HETATM   14  O1  UNL     1       5.676   5.857  19.886  1.00  0.00    -0.273 OA
HETATM   15  N1  UNL     1       4.681   5.400  21.958  1.00  0.00    -0.342 N 
HETATM   16  C6  UNL     1       4.400   5.678  23.329  1.00  0.00     0.127 C 
HETATM   17  C11 UNL     1       4.056   4.179  21.365  1.00  0.00     0.126 C 
HETATM   18  C7  UNL     1       2.900   5.895  23.489  1.00  0.00     0.024 C 
HETATM   19  C8  UNL     1       2.147   4.727  22.923  1.00  0.00    -0.015 C 
HETATM   20  C9  UNL     1       0.676   5.063  22.837  1.00  0.00     0.010 C 
HETATM   21  C10 UNL     1       2.608   4.394  21.519  1.00  0.00     0.035 C 
BRANCH  17  22
HETATM   22  C12 UNL     1       4.734   2.998  21.904  1.00  0.00     0.089 C 
BRANCH  22  23
HETATM   23  N2  UNL     1       5.979   2.590  21.404  1.00  0.00    -0.338 N 
HETATM   24  C13 UNL     1       6.425   2.357  20.108  1.00  0.00     0.225 C 
HETATM   25  O2  UNL     1       5.771   2.446  19.050  1.00  0.00    -0.273 OA
ATOM     26  H2  UNL     1       6.686   2.435  22.122  1.00  0.00     0.167 HD
BRANCH  24  27
HETATM   27  C14 UNL     1       7.866   1.943  19.896  1.00  0.00     0.078 C 
HETATM   28  C15 UNL     1       8.622   2.945  19.080  1.00  0.00     0.014 C 
HETATM   29  C16 UNL     1       9.571   2.127  18.226  1.00  0.00     0.001 C 
HETATM   30  C17 UNL     1       9.402   0.690  18.641  1.00  0.00     0.001 C 
HETATM   31  C18 UNL     1       7.942   0.670  19.088  1.00  0.00     0.014 C 
ENDBRANCH  24  27
ENDBRANCH  22  23
ENDBRANCH  17  22
ENDBRANCH   4  13
BRANCH  12  32
HETATM   32  C21 UNL     1       6.537  10.882  20.523  1.00  0.00     0.069 C 
HETATM   33  C22 UNL     1       7.453  11.815  21.329  1.00  0.00     0.027 C 
HETATM   34  C23 UNL     1       6.699  11.244  19.085  1.00  0.00     0.027 C 
ENDBRANCH  12  32
TORSDOF 5
ENDMDL
MODEL 3
REMARK VINA RESULT: -8.154075606      3.341      7.935
REMARK  5 active torsions:
REMARK  status: ('A' for Active; 'I' for Inactive)
REMARK    1  A    between atoms: C4_4  and  C5_5 
REMARK       I    between atoms: C5_5  and  N1_7 
REMARK    2  A    between atoms: C11_13  and  C12_14 
REMARK    3  A    between atoms: C12_14  and  N2_15 
REMARK       I    between atoms: N2_15  and  C13_17 
REMARK    4  A    between atoms: C13_17  and  C14_19 
REMARK    5  A    between atoms: N4_31  and  C21_32 
ROOT
HETATM    1  C1  UNL     1       4.877   8.866  17.719  1.00  0.00     0.014 C 
HETATM    2  C2  UNL     1       5.723   9.037  18.546  1.00  0.00    -0.095 C 
HETATM    3  C3  UNL     1       6.747   9.263  19.538  1.00  0.00     0.169 C 
HETATM    4  C4  UNL     1       6.910   8.064  20.462  1.00  0.00     0.131 C 
HETATM    5  C19 UNL     1       7.659   8.446  21.719  1.00  0.00     0.105 C 
HETATM    6  C20 UNL     1       6.779   8.913  22.837  1.00  0.00     0.034 C 
HETATM    7  N3  UNL     1       8.738   9.414  21.449  1.00  0.00    -0.301 N 
ATOM      8  H3  UNL     1       9.741   9.239  21.517  1.00  0.00     0.173 HD
HETATM    9  S1  UNL     1       7.974  10.922  20.992  1.00  0.00     0.300 S 
HETATM   10  O3  UNL     1       7.832  11.809  22.160  1.00  0.00    -0.188 OA
HETATM   11  O4  UNL     1       8.838  11.500  19.900  1.00  0.00    -0.188 OA
HETATM   12  N4  UNL     1       6.441  10.405  20.336  1.00  0.00    -0.173 NA
ENDROOT
BRANCH   4  13
HETATM   13  C5  UNL     1       7.677   6.997  19.784  1.00  0.00     0.229 C 
HETATM   14  O1  UNL     1       8.930   7.216  19.644  1.00  0.00    -0.273 OA
HETATM   15  N1  UNL     1       7.088   5.803  19.317  1.00  0.00    -0.342 N 
HETATM   16  C6  UNL     1       5.702   5.475  19.391  1.00  0.00     0.127 C 
HETATM   17  C11 UNL     1       8.001   4.790  18.706  1.00  0.00     0.126 C 
HETATM   18  C7  UNL     1       5.168   5.278  17.978  1.00  0.00     0.024 C 
HETATM   19  C8  UNL     1       6.009   4.274  17.244  1.00  0.00    -0.015 C 
HETATM   20  C9  UNL     1       5.648   4.282  15.777  1.00  0.00     0.010 C 
HETATM   21  C10 UNL     1       7.483   4.605  17.340  1.00  0.00     0.035 C 
BRANCH  17  22
HETATM   22  C12 UNL     1       8.156   3.676  19.643  1.00  0.00     0.089 C 
BRANCH  22  23
HETATM   23  N2  UNL     1       8.360   2.368  19.181  1.00  0.00    -0.338 N 
HETATM   24  C13 UNL     1       9.385   1.800  18.433  1.00  0.00     0.225 C 
HETATM   25  O2  UNL     1      10.392   2.367  17.966  1.00  0.00    -0.273 OA
ATOM     26  H2  UNL     1       7.622   1.714  19.441  1.00  0.00     0.167 HD
BRANCH  24  27
HETATM   27  C14 UNL     1       9.323   0.319  18.116  1.00  0.00     0.078 C 
HETATM   28  C15 UNL     1      10.687  -0.286  17.999  1.00  0.00     0.014 C 
HETATM   29  C16 UNL     1      10.568  -1.321  16.898  1.00  0.00     0.001 C 
HETATM   30  C17 UNL     1       9.123  -1.348  16.478  1.00  0.00     0.001 C 
HETATM   31  C18 UNL     1       8.695   0.090  16.763  1.00  0.00     0.014 C 
ENDBRANCH  24  27
ENDBRANCH  22  23
ENDBRANCH  17  22
ENDBRANCH   4  13
BRANCH  12  32
HETATM   32  C21 UNL     1       5.769  11.464  19.641  1.00  0.00     0.069 C 
HETATM   33  C22 UNL     1       4.345  11.529  20.211  1.00  0.00     0.027 C 
HETATM   34  C23 UNL     1       6.377  12.814  19.826  1.00  0.00     0.027 C 
ENDBRANCH  12  32
TORSDOF 5
ENDMDL
MODEL 4
REMARK VINA RESULT: -8.122561790      3.300      7.395
REMARK  5 active torsions:
REMARK  status: ('A' for Active; 'I' for Inactive)
REMARK    1  A    between atoms: C4_4  and  C5_5 
REMARK       I    between atoms: C5_5  and  N1_7 
REMARK    2  A    between atoms: C11_13  and  C12_14 
REMARK    3  A    between atoms: C12_14  and  N2_15 
REMARK       I    between atoms: N2_15  and  C13_17 
REMARK    4  A    between atoms: C13_17  and  C14_19 
REMARK    5  A    between atoms: N4_31  and  C21_32 
ROOT
HETATM    1  C1  UNL     1       3.313   9.272  20.853  1.00  0.00     0.014 C 
HETATM    2  C2  UNL     1       4.400   8.823  20.636  1.00  0.00    -0.095 C 
HETATM    3  C3  UNL     1       5.716   8.297  20.362  1.00  0.00     0.169 C 
HETATM    4  C4  UNL     1       5.991   7.027  21.154  1.00  0.00     0.131 C 
HETATM    5  C19 UNL     1       7.472   6.720  21.190  1.00  0.00     0.105 C 
HETATM    6  C20 UNL     1       8.197   7.340  22.343  1.00  0.00     0.034 C 
HETATM    7  N3  UNL     1       8.135   7.038  19.911  1.00  0.00    -0.301 N 
ATOM      8  H3  UNL     1       8.531   6.368  19.251  1.00  0.00     0.173 HD
HETATM    9  S1  UNL     1       8.114   8.780  19.739  1.00  0.00     0.300 S 
HETATM   10  O3  UNL     1       9.373   9.366  20.232  1.00  0.00    -0.188 OA
HETATM   11  O4  UNL     1       7.861   9.041  18.275  1.00  0.00    -0.188 OA
HETATM   12  N4  UNL     1       6.724   9.254  20.683  1.00  0.00    -0.173 NA
ENDROOT
BRANCH   4  13
HETATM   13  C5  UNL     1       5.304   5.876  20.532  1.00  0.00     0.229 C 
HETATM   14  O1  UNL     1       5.357   5.823  19.254  1.00  0.00    -0.273 OA
HETATM   15  N1  UNL     1       4.631   4.886  21.276  1.00  0.00    -0.342 N 
HETATM   16  C6  UNL     1       4.483   4.868  22.695  1.00  0.00     0.127 C 
HETATM   17  C11 UNL     1       4.035   3.749  20.511  1.00  0.00     0.126 C 
HETATM   18  C7  UNL     1       2.998   4.911  23.034  1.00  0.00     0.024 C 
HETATM   19  C8  UNL     1       2.273   3.809  22.318  1.00  0.00    -0.015 C 
HETATM   20  C9  UNL     1       0.782   4.019  22.439  1.00  0.00     0.010 C 
HETATM   21  C10 UNL     1       2.601   3.797  20.840  1.00  0.00     0.035 C 
BRANCH  17  22
HETATM   22  C12 UNL     1       4.851   2.555  20.736  1.00  0.00     0.089 C 
BRANCH  22  23
HETATM   23  N2  UNL     1       5.863   2.192  19.836  1.00  0.00    -0.338 N 
HETATM   24  C13 UNL     1       7.208   2.537  19.766  1.00  0.00     0.225 C 
HETATM   25  O2  UNL     1       7.837   3.304  20.521  1.00  0.00    -0.273 OA
ATOM     26  H2  UNL     1       5.556   1.559  19.098  1.00  0.00     0.167 HD
BRANCH  24  27
HETATM   27  C14 UNL     1       8.058   1.940  18.664  1.00  0.00     0.078 C 
HETATM   28  C15 UNL     1       8.602   0.598  19.041  1.00  0.00     0.014 C 
HETATM   29  C16 UNL     1       9.987   0.544  18.426  1.00  0.00     0.001 C 
HETATM   30  C17 UNL     1      10.164   1.814  17.637  1.00  0.00     0.001 C 
HETATM   31  C18 UNL     1       9.285   2.786  18.421  1.00  0.00     0.014 C 
ENDBRANCH  24  27
ENDBRANCH  22  23
ENDBRANCH  17  22
ENDBRANCH   4  13
BRANCH  12  32
HETATM   32  C21 UNL     1       6.356  10.620  20.449  1.00  0.00     0.069 C 
HETATM   33  C22 UNL     1       7.126  11.464  21.476  1.00  0.00     0.027 C 
HETATM   34  C23 UNL     1       6.716  11.139  19.097  1.00  0.00     0.027 C 
ENDBRANCH  12  32
TORSDOF 5
ENDMDL
MODEL 5
REMARK VINA RESULT: -8.075145682      4.537      5.841
REMARK  5 active torsions:
REMARK  status: ('A' for Active; 'I' for Inactive)
REMARK    1  A    between atoms: C4_4  and  C5_5 
REMARK       I    between atoms: C5_5  and  N1_7 
REMARK    2  A    between atoms: C11_13  and  C12_14 
REMARK    3  A    between atoms: C12_14  and  N2_15 
REMARK       I    between atoms: N2_15  and  C13_17 
REMARK    4  A    between atoms: C13_17  and  C14_19 
REMARK    5  A    between atoms: N4_31  and  C21_32 
ROOT
HETATM    1  C1  UNL     1       2.681   9.930  20.246  1.00  0.00     0.014 C 
HETATM    2  C2  UNL     1       2.816   9.635  21.396  1.00  0.00    -0.095 C 
HETATM    3  C3  UNL     1       2.964   9.291  22.790  1.00  0.00     0.169 C 
HETATM    4  C4  UNL     1       4.032   8.226  22.997  1.00  0.00     0.131 C 
HETATM    5  C19 UNL     1       3.898   7.580  24.359  1.00  0.00     0.105 C 
HETATM    6  C20 UNL     1       3.003   6.381  24.381  1.00  0.00     0.034 C 
HETATM    7  N3  UNL     1       3.511   8.553  25.398  1.00  0.00    -0.301 N 
ATOM      8  H3  UNL     1       4.091   8.876  26.172  1.00  0.00     0.173 HD
HETATM    9  S1  UNL     1       1.868   9.051  25.052  1.00  0.00     0.300 S 
HETATM   10  O3  UNL     1       0.907   8.244  25.825  1.00  0.00    -0.188 OA
HETATM   11  O4  UNL     1       1.813  10.523  25.372  1.00  0.00    -0.188 OA
HETATM   12  N4  UNL     1       1.735   8.804  23.328  1.00  0.00    -0.173 NA
ENDROOT
BRANCH   4  13
HETATM   13  C5  UNL     1       5.379   8.828  22.911  1.00  0.00     0.229 C 
HETATM   14  O1  UNL     1       5.698   9.613  23.870  1.00  0.00    -0.273 OA
HETATM   15  N1  UNL     1       6.274   8.567  21.853  1.00  0.00    -0.342 N 
HETATM   16  C6  UNL     1       6.006   7.739  20.722  1.00  0.00     0.127 C 
HETATM   17  C11 UNL     1       7.624   9.202  21.933  1.00  0.00     0.126 C 
HETATM   18  C7  UNL     1       6.111   8.585  19.459  1.00  0.00     0.024 C 
HETATM   19  C8  UNL     1       7.436   9.288  19.418  1.00  0.00    -0.015 C 
HETATM   20  C9  UNL     1       7.428  10.323  18.317  1.00  0.00     0.010 C 
HETATM   21  C10 UNL     1       7.719  10.019  20.713  1.00  0.00     0.035 C 
BRANCH  17  22
HETATM   22  C12 UNL     1       8.607   8.168  22.263  1.00  0.00     0.089 C 
BRANCH  22  23
HETATM   23  N2  UNL     1       9.192   8.108  23.535  1.00  0.00    -0.338 N 
HETATM   24  C13 UNL     1      10.085   8.954  24.185  1.00  0.00     0.225 C 
HETATM   25  O2  UNL     1      10.603   9.998  23.743  1.00  0.00    -0.273 OA
ATOM     26  H2  UNL     1       8.913   7.296  24.085  1.00  0.00     0.167 HD
BRANCH  24  27
HETATM   27  C14 UNL     1      10.512   8.617  25.598  1.00  0.00     0.078 C 
HETATM   28  C15 UNL     1      11.929   8.138  25.656  1.00  0.00     0.014 C 
HETATM   29  C16 UNL     1      11.943   7.070  26.733  1.00  0.00     0.001 C 
HETATM   30  C17 UNL     1      10.561   7.031  27.326  1.00  0.00     0.001 C 
HETATM   31  C18 UNL     1       9.705   7.460  26.137  1.00  0.00     0.014 C 
ENDBRANCH  24  27
ENDBRANCH  22  23
ENDBRANCH  17  22
ENDBRANCH   4  13
BRANCH  12  32
HETATM   32  C21 UNL     1       0.556   9.415  22.788  1.00  0.00     0.069 C 
HETATM   33  C22 UNL     1      -0.480   8.295  22.618  1.00  0.00     0.027 C 
HETATM   34  C23 UNL     1      -0.062  10.455  23.660  1.00  0.00     0.027 C 
ENDBRANCH  12  32
TORSDOF 5
ENDMDL
