MODEL 1
REMARK VINA RESULT: -6.688257623      0.000      0.000
REMARK  6 active torsions:
REMARK  status: ('A' for Active; 'I' for Inactive)
REMARK    1  A    between atoms: C3_5  and  C4_6 
REMARK    2  A    between atoms: C4_6  and  C5_7 
REMARK    3  A    between atoms: C11_15  and  O1_16 
REMARK    4  A    between atoms: O1_16  and  C12_17 
REMARK    5  A    between atoms: C12_17  and  C13_18 
REMARK    6  A    between atoms: C17_23  and  C18_24 
REMARK       I    between atoms: C18_24  and  N2_26 
ROOT
HETATM    1  C5  UNL     1       6.357   4.399  20.768  1.00  0.00     0.008 A 
HETATM    2  C6  UNL     1       7.268   3.779  19.980  1.00  0.00    -0.032 A 
HETATM    3  C7  UNL     1       8.192   4.566  19.155  1.00  0.00     0.050 C 
HETATM    4  C8  UNL     1       7.366   2.384  19.918  1.00  0.00     0.019 A 
HETATM    5 BR1  UNL     1       8.668   1.571  18.792  1.00  0.00    -0.051 Br
HETATM    6  C9  UNL     1       6.489   1.671  20.699  1.00  0.00     0.041 A 
HETATM    7  C10 UNL     1       5.531   2.279  21.527  1.00  0.00     0.046 A 
HETATM    8 BR2  UNL     1       4.332   1.119  22.471  1.00  0.00    -0.048 Br
HETATM    9  C11 UNL     1       5.472   3.641  21.558  1.00  0.00     0.097 A 
ENDROOT
BRANCH   1  10
HETATM   10  C4  UNL     1       6.274   5.841  20.817  1.00  0.00     0.044 C 
BRANCH  10  11
HETATM   11  C3  UNL     1       6.668   6.557  21.850  1.00  0.00     0.040 A 
HETATM   12  N1  UNL     1       6.127   6.591  23.064  1.00  0.00    -0.356 N 
HETATM   13  C2  UNL     1       6.823   7.463  23.862  1.00  0.00     0.039 A 
ATOM     14  H1  UNL     1       5.315   6.049  23.358  1.00  0.00     0.166 HD
HETATM   15  C1  UNL     1       6.493   7.697  25.122  1.00  0.00     0.044 C 
HETATM   16  C17 UNL     1       7.857   8.010  23.116  1.00  0.00     0.066 A 
HETATM   17  C15 UNL     1       7.754   7.437  21.857  1.00  0.00    -0.017 A 
HETATM   18  C16 UNL     1       8.659   7.693  20.706  1.00  0.00     0.052 C 
BRANCH  16  19
HETATM   19  C18 UNL     1       8.853   8.958  23.609  1.00  0.00     0.254 C 
HETATM   20  O3  UNL     1       8.726  10.189  23.230  1.00  0.00    -0.268 OA
HETATM   21  N2  UNL     1       9.933   8.707  24.440  1.00  0.00    -0.361 N 
HETATM   22  C19 UNL     1      10.820   9.800  24.828  1.00  0.00     0.149 C 
ATOM     23  H2  UNL     1      10.108   7.761  24.781  1.00  0.00     0.162 HD
ENDBRANCH  16  19
ENDBRANCH  10  11
ENDBRANCH   1  10
BRANCH   9  24
HETATM   24  O1  UNL     1       4.558   4.315  22.344  1.00  0.00    -0.346 OA
BRANCH  24  25
HETATM   25  C12 UNL     1       3.255   4.598  22.024  1.00  0.00     0.209 C 
BRANCH  25  26
HETATM   26  C13 UNL     1       2.693   5.956  22.062  1.00  0.00     0.169 A 
HETATM   27  C14 UNL     1       2.080   6.463  23.376  1.00  0.00     0.202 A 
HETATM   28  O2  UNL     1       3.200   7.000  22.791  1.00  0.00    -0.379 OA
ENDBRANCH  25  26
ENDBRANCH  24  25
ENDBRANCH   9  24
TORSDOF 6
ENDMDL
MODEL 2
REMARK VINA RESULT: -6.624521212      3.390      6.714
REMARK  6 active torsions:
REMARK  status: ('A' for Active; 'I' for Inactive)
REMARK    1  A    between atoms: C3_5  and  C4_6 
REMARK    2  A    between atoms: C4_6  and  C5_7 
REMARK    3  A    between atoms: C11_15  and  O1_16 
REMARK    4  A    between atoms: O1_16  and  C12_17 
REMARK    5  A    between atoms: C12_17  and  C13_18 
REMARK    6  A    between atoms: C17_23  and  C18_24 
REMARK       I    between atoms: C18_24  and  N2_26 
ROOT
HETATM    1  C5  UNL     1       5.990   6.948  22.596  1.00  0.00     0.008 A 
HETATM    2  C6  UNL     1       4.936   7.058  23.440  1.00  0.00    -0.032 A 
HETATM    3  C7  UNL     1       3.625   6.515  23.063  1.00  0.00     0.050 C 
HETATM    4  C8  UNL     1       5.048   7.684  24.687  1.00  0.00     0.019 A 
HETATM    5 BR1  UNL     1       3.532   7.806  25.830  1.00  0.00    -0.051 Br
HETATM    6  C9  UNL     1       6.285   8.183  25.014  1.00  0.00     0.041 A 
HETATM    7  C10 UNL     1       7.400   8.089  24.165  1.00  0.00     0.046 A 
HETATM    8 BR2  UNL     1       9.020   8.928  24.754  1.00  0.00    -0.048 Br
HETATM    9  C11 UNL     1       7.246   7.469  22.959  1.00  0.00     0.097 A 
ENDROOT
BRANCH   1  10
HETATM   10  C4  UNL     1       5.851   6.297  21.313  1.00  0.00     0.044 C 
BRANCH  10  11
HETATM   11  C3  UNL     1       6.275   5.074  21.068  1.00  0.00     0.040 A 
HETATM   12  N1  UNL     1       6.146   4.003  21.845  1.00  0.00    -0.356 N 
HETATM   13  C2  UNL     1       6.721   2.914  21.241  1.00  0.00     0.039 A 
ATOM     14  H1  UNL     1       5.687   3.993  22.757  1.00  0.00     0.166 HD
HETATM   15  C1  UNL     1       6.743   1.716  21.801  1.00  0.00     0.044 C 
HETATM   16  C17 UNL     1       7.240   3.315  20.019  1.00  0.00     0.066 A 
HETATM   17  C15 UNL     1       6.956   4.669  19.918  1.00  0.00    -0.017 A 
HETATM   18  C16 UNL     1       7.297   5.547  18.767  1.00  0.00     0.052 C 
BRANCH  16  19
HETATM   19  C18 UNL     1       7.904   2.447  19.050  1.00  0.00     0.254 C 
HETATM   20  O3  UNL     1       7.169   1.561  18.459  1.00  0.00    -0.268 OA
HETATM   21  N2  UNL     1       9.239   2.445  18.679  1.00  0.00    -0.361 N 
HETATM   22  C19 UNL     1       9.713   1.492  17.680  1.00  0.00     0.149 C 
ATOM     23  H2  UNL     1       9.889   3.109  19.102  1.00  0.00     0.162 HD
ENDBRANCH  16  19
ENDBRANCH  10  11
ENDBRANCH   1  10
BRANCH   9  24
HETATM   24  O1  UNL     1       8.291   7.337  22.067  1.00  0.00    -0.346 OA
BRANCH  24  25
HETATM   25  C12 UNL     1       8.838   8.329  21.294  1.00  0.00     0.209 C 
BRANCH  25  26
HETATM   26  C13 UNL     1       8.036   9.365  20.627  1.00  0.00     0.169 A 
HETATM   27  C14 UNL     1       7.694  10.645  21.403  1.00  0.00     0.202 A 
HETATM   28  O2  UNL     1       8.487  10.612  20.283  1.00  0.00    -0.379 OA
ENDBRANCH  25  26
ENDBRANCH  24  25
ENDBRANCH   9  24
TORSDOF 6
ENDMDL
MODEL 3
REMARK VINA RESULT: -6.519258547      1.776      2.045
REMARK  6 active torsions:
REMARK  status: ('A' for Active; 'I' for Inactive)
REMARK    1  A    between atoms: C3_5  and  C4_6 
REMARK    2  A    between atoms: C4_6  and  C5_7 
REMARK    3  A    between atoms: C11_15  and  O1_16 
REMARK    4  A    between atoms: O1_16  and  C12_17 
REMARK    5  A    between atoms: C12_17  and  C13_18 
REMARK    6  A    between atoms: C17_23  and  C18_24 
REMARK       I    between atoms: C18_24  and  N2_26 
ROOT
HETATM    1  C5  UNL     1       6.181   4.110  20.222  1.00  0.00     0.008 A 
HETATM    2  C6  UNL     1       7.175   3.439  19.591  1.00  0.00    -0.032 A 
HETATM    3  C7  UNL     1       8.057   4.137  18.648  1.00  0.00     0.050 C 
HETATM    4  C8  UNL     1       7.400   2.075  19.806  1.00  0.00     0.019 A 
HETATM    5 BR1  UNL     1       8.814   1.188  18.892  1.00  0.00    -0.051 Br
HETATM    6  C9  UNL     1       6.560   1.446  20.692  1.00  0.00     0.041 A 
HETATM    7  C10 UNL     1       5.518   2.107  21.364  1.00  0.00     0.046 A 
HETATM    8 BR2  UNL     1       4.392   1.042  22.491  1.00  0.00    -0.048 Br
HETATM    9  C11 UNL     1       5.336   3.438  21.126  1.00  0.00     0.097 A 
ENDROOT
BRANCH   1  10
HETATM   10  C4  UNL     1       5.966   5.519  19.984  1.00  0.00     0.044 C 
BRANCH  10  11
HETATM   11  C3  UNL     1       6.575   6.471  20.661  1.00  0.00     0.040 A 
HETATM   12  N1  UNL     1       7.166   6.369  21.847  1.00  0.00    -0.356 N 
HETATM   13  C2  UNL     1       7.683   7.584  22.219  1.00  0.00     0.039 A 
ATOM     14  H1  UNL     1       7.226   5.513  22.399  1.00  0.00     0.166 HD
HETATM   15  C1  UNL     1       8.320   7.769  23.364  1.00  0.00     0.044 C 
HETATM   16  C17 UNL     1       7.406   8.503  21.218  1.00  0.00     0.066 A 
HETATM   17  C15 UNL     1       6.712   7.798  20.245  1.00  0.00    -0.017 A 
HETATM   18  C16 UNL     1       6.212   8.351  18.958  1.00  0.00     0.052 C 
BRANCH  16  19
HETATM   19  C18 UNL     1       7.817   9.904  21.211  1.00  0.00     0.254 C 
HETATM   20  O3  UNL     1       8.906  10.191  20.574  1.00  0.00    -0.268 OA
HETATM   21  N2  UNL     1       7.184  10.982  21.809  1.00  0.00    -0.361 N 
HETATM   22  C19 UNL     1       7.756  12.320  21.683  1.00  0.00     0.149 C 
ATOM     23  H2  UNL     1       6.321  10.842  22.336  1.00  0.00     0.162 HD
ENDBRANCH  16  19
ENDBRANCH  10  11
ENDBRANCH   1  10
BRANCH   9  24
HETATM   24  O1  UNL     1       4.334   4.160  21.743  1.00  0.00    -0.346 OA
BRANCH  24  25
HETATM   25  C12 UNL     1       4.317   4.587  23.046  1.00  0.00     0.209 C 
BRANCH  25  26
HETATM   26  C13 UNL     1       3.783   5.893  23.459  1.00  0.00     0.169 A 
HETATM   27  C14 UNL     1       4.634   6.778  24.382  1.00  0.00     0.202 A 
HETATM   28  O2  UNL     1       4.299   7.108  23.092  1.00  0.00    -0.379 OA
ENDBRANCH  25  26
ENDBRANCH  24  25
ENDBRANCH   9  24
TORSDOF 6
ENDMDL
MODEL 4
REMARK VINA RESULT: -6.457593692      3.198      4.287
REMARK  6 active torsions:
REMARK  status: ('A' for Active; 'I' for Inactive)
REMARK    1  A    between atoms: C3_5  and  C4_6 
REMARK    2  A    between atoms: C4_6  and  C5_7 
REMARK    3  A    between atoms: C11_15  and  O1_16 
REMARK    4  A    between atoms: O1_16  and  C12_17 
REMARK    5  A    between atoms: C12_17  and  C13_18 
REMARK    6  A    between atoms: C17_23  and  C18_24 
REMARK       I    between atoms: C18_24  and  N2_26 
ROOT
HETATM    1  C5  UNL     1       6.877   1.314  19.194  1.00  0.00     0.008 A 
HETATM    2  C6  UNL     1       7.831   0.683  18.467  1.00  0.00    -0.032 A 
HETATM    3  C7  UNL     1       9.235   0.727  18.893  1.00  0.00     0.050 C 
HETATM    4  C8  UNL     1       7.525  -0.024  17.300  1.00  0.00     0.019 A 
HETATM    5 BR1  UNL     1       8.909  -0.892  16.323  1.00  0.00    -0.051 Br
HETATM    6  C9  UNL     1       6.204  -0.048  16.924  1.00  0.00     0.041 A 
HETATM    7  C10 UNL     1       5.188   0.595  17.651  1.00  0.00     0.046 A 
HETATM    8 BR2  UNL     1       3.417   0.529  16.919  1.00  0.00    -0.048 Br
HETATM    9  C11 UNL     1       5.531   1.272  18.784  1.00  0.00     0.097 A 
ENDROOT
BRANCH   1  10
HETATM   10  C4  UNL     1       7.215   2.039  20.397  1.00  0.00     0.044 C 
BRANCH  10  11
HETATM   11  C3  UNL     1       6.948   3.317  20.576  1.00  0.00     0.040 A 
HETATM   12  N1  UNL     1       6.111   3.852  21.459  1.00  0.00    -0.356 N 
HETATM   13  C2  UNL     1       6.107   5.218  21.332  1.00  0.00     0.039 A 
ATOM     14  H1  UNL     1       5.554   3.325  22.131  1.00  0.00     0.166 HD
HETATM   15  C1  UNL     1       5.354   6.003  22.085  1.00  0.00     0.044 C 
HETATM   16  C17 UNL     1       6.986   5.566  20.317  1.00  0.00     0.066 A 
HETATM   17  C15 UNL     1       7.510   4.370  19.849  1.00  0.00    -0.017 A 
HETATM   18  C16 UNL     1       8.520   4.225  18.767  1.00  0.00     0.052 C 
BRANCH  16  19
HETATM   19  C18 UNL     1       7.298   6.928  19.892  1.00  0.00     0.254 C 
HETATM   20  O3  UNL     1       6.815   7.310  18.753  1.00  0.00    -0.268 OA
HETATM   21  N2  UNL     1       8.057   7.878  20.557  1.00  0.00    -0.361 N 
HETATM   22  C19 UNL     1       8.251   9.197  19.963  1.00  0.00     0.149 C 
ATOM     23  H2  UNL     1       8.479   7.655  21.459  1.00  0.00     0.162 HD
ENDBRANCH  16  19
ENDBRANCH  10  11
ENDBRANCH   1  10
BRANCH   9  24
HETATM   24  O1  UNL     1       4.592   1.931  19.553  1.00  0.00    -0.346 OA
BRANCH  24  25
HETATM   25  C12 UNL     1       3.619   1.355  20.329  1.00  0.00     0.209 C 
BRANCH  25  26
HETATM   26  C13 UNL     1       3.569   1.494  21.792  1.00  0.00     0.169 A 
HETATM   27  C14 UNL     1       3.953   0.286  22.659  1.00  0.00     0.202 A 
HETATM   28  O2  UNL     1       4.656   1.465  22.625  1.00  0.00    -0.379 OA
ENDBRANCH  25  26
ENDBRANCH  24  25
ENDBRANCH   9  24
TORSDOF 6
ENDMDL
MODEL 5
REMARK VINA RESULT: -6.331194143      0.951      1.266
REMARK  6 active torsions:
REMARK  status: ('A' for Active; 'I' for Inactive)
REMARK    1  A    between atoms: C3_5  and  C4_6 
REMARK    2  A    between atoms: C4_6  and  C5_7 
REMARK    3  A    between atoms: C11_15  and  O1_16 
REMARK    4  A    between atoms: O1_16  and  C12_17 
REMARK    5  A    between atoms: C12_17  and  C13_18 
REMARK    6  A    between atoms: C17_23  and  C18_24 
REMARK       I    between atoms: C18_24  and  N2_26 
ROOT
HETATM    1  C5  UNL     1       6.367   4.365  20.722  1.00  0.00     0.008 A 
HETATM    2  C6  UNL     1       7.279   3.750  19.930  1.00  0.00    -0.032 A 
HETATM    3  C7  UNL     1       8.195   4.544  19.102  1.00  0.00     0.050 C 
HETATM    4  C8  UNL     1       7.385   2.356  19.868  1.00  0.00     0.019 A 
HETATM    5 BR1  UNL     1       8.688   1.552  18.737  1.00  0.00    -0.051 Br
HETATM    6  C9  UNL     1       6.516   1.638  20.651  1.00  0.00     0.041 A 
HETATM    7  C10 UNL     1       5.557   2.239  21.484  1.00  0.00     0.046 A 
HETATM    8 BR2  UNL     1       4.369   1.072  22.432  1.00  0.00    -0.048 Br
HETATM    9  C11 UNL     1       5.489   3.601  21.515  1.00  0.00     0.097 A 
ENDROOT
BRANCH   1  10
HETATM   10  C4  UNL     1       6.274   5.806  20.771  1.00  0.00     0.044 C 
BRANCH  10  11
HETATM   11  C3  UNL     1       6.666   6.525  21.803  1.00  0.00     0.040 A 
HETATM   12  N1  UNL     1       6.122   6.563  23.015  1.00  0.00    -0.356 N 
HETATM   13  C2  UNL     1       6.817   7.436  23.814  1.00  0.00     0.039 A 
ATOM     14  H1  UNL     1       5.308   6.023  23.309  1.00  0.00     0.166 HD
HETATM   15  C1  UNL     1       6.483   7.674  25.071  1.00  0.00     0.044 C 
HETATM   16  C17 UNL     1       7.854   7.979  23.069  1.00  0.00     0.066 A 
HETATM   17  C15 UNL     1       7.753   7.403  21.811  1.00  0.00    -0.017 A 
HETATM   18  C16 UNL     1       8.663   7.655  20.662  1.00  0.00     0.052 C 
BRANCH  16  19
HETATM   19  C18 UNL     1       8.849   8.927  23.562  1.00  0.00     0.254 C 
HETATM   20  O3  UNL     1       8.714  10.161  23.196  1.00  0.00    -0.268 OA
HETATM   21  N2  UNL     1       9.938   8.673  24.382  1.00  0.00    -0.361 N 
HETATM   22  C19 UNL     1      10.823   9.767  24.772  1.00  0.00     0.149 C 
ATOM     23  H2  UNL     1      10.120   7.725  24.712  1.00  0.00     0.162 HD
ENDBRANCH  16  19
ENDBRANCH  10  11
ENDBRANCH   1  10
BRANCH   9  24
HETATM   24  O1  UNL     1       4.574   4.270  22.305  1.00  0.00    -0.346 OA
BRANCH  24  25
HETATM   25  C12 UNL     1       3.244   4.462  22.032  1.00  0.00     0.209 C 
BRANCH  25  26
HETATM   26  C13 UNL     1       2.692   4.454  20.668  1.00  0.00     0.169 A 
HETATM   27  C14 UNL     1       2.008   3.176  20.160  1.00  0.00     0.202 A 
HETATM   28  O2  UNL     1       1.361   4.370  20.357  1.00  0.00    -0.379 OA
ENDBRANCH  25  26
ENDBRANCH  24  25
ENDBRANCH   9  24
TORSDOF 6
ENDMDL
