MODEL 1
REMARK VINA RESULT: -8.106697434      0.000      0.000
REMARK  5 active torsions:
REMARK  status: ('A' for Active; 'I' for Inactive)
REMARK    1  A    between atoms: C2_2  and  N1_4 
REMARK       I    between atoms: N1_4  and  C4_6 
REMARK    2  A    between atoms: C4_6  and  C5_8 
REMARK    3  A    between atoms: C12_15  and  N2_16 
REMARK       I    between atoms: N2_16  and  C13_18 
REMARK    4  A    between atoms: C13_18  and  C14_20 
REMARK    5  A    between atoms: C14_20  and  C15_22 
ROOT
HETATM    1  C5  UNL     1       9.045   0.719  17.333  1.00  0.00     0.042 C 
HETATM    2  C6  UNL     1       7.616   0.540  16.894  1.00  0.00     0.024 C 
HETATM    3  C7  UNL     1       7.704   1.852  16.195  1.00  0.00    -0.012 C 
HETATM    4  C8  UNL     1       7.262   3.049  16.992  1.00  0.00     0.012 C 
HETATM    5  C9  UNL     1       7.360   2.835  18.434  1.00  0.00     0.015 A 
HETATM    6  C10 UNL     1       8.909   2.788  18.665  1.00  0.00     0.016 A 
HETATM    7  C11 UNL     1       9.198   1.357  18.680  1.00  0.00     0.026 C 
HETATM    8  C12 UNL     1       8.018   3.603  19.471  1.00  0.00     0.093 A 
HETATM    9  C19 UNL     1       9.185   1.636  16.157  1.00  0.00     0.024 C 
ENDROOT
BRANCH   8  10
HETATM   10  N2  UNL     1       8.102   5.036  19.375  1.00  0.00    -0.349 N 
HETATM   11  C13 UNL     1       7.399   5.885  20.258  1.00  0.00     0.288 C 
HETATM   12  O2  UNL     1       6.654   5.419  21.183  1.00  0.00    -0.264 OA
ATOM     13  H2  UNL     1       8.686   5.451  18.650  1.00  0.00     0.163 HD
BRANCH  11  14
HETATM   14  C14 UNL     1       7.506   7.338  20.134  1.00  0.00     0.227 C 
HETATM   15  O3  UNL     1       7.503   7.836  18.983  1.00  0.00    -0.286 OA
BRANCH  14  16
HETATM   16  C15 UNL     1       7.617   8.246  21.290  1.00  0.00     0.056 A 
HETATM   17  C16 UNL     1       8.627   7.980  22.363  1.00  0.00     0.026 C 
HETATM   18  C17 UNL     1       7.295   9.740  21.014  1.00  0.00     0.054 A 
HETATM   19  C18 UNL     1       6.340   8.903  21.747  1.00  0.00     0.091 A 
HETATM   20 BR1  UNL     1       6.121   9.305  23.630  1.00  0.00    -0.072 Br
HETATM   21 BR2  UNL     1       4.687   8.381  20.872  1.00  0.00    -0.072 Br
ENDBRANCH  14  16
ENDBRANCH  11  14
ENDBRANCH   8  10
BRANCH   1  22
HETATM   22  C4  UNL     1       9.828  -0.537  17.243  1.00  0.00     0.226 C 
HETATM   23  N1  UNL     1       9.557  -1.549  16.286  1.00  0.00    -0.357 N 
ATOM     24  H1  UNL     1       8.790  -1.412  15.628  1.00  0.00     0.162 HD
HETATM   25  O1  UNL     1      10.777  -0.732  18.042  1.00  0.00    -0.273 OA
BRANCH  23  26
HETATM   26  C2  UNL     1      10.325  -2.759  16.211  1.00  0.00     0.076 C 
HETATM   27  C1  UNL     1       9.954  -3.588  14.985  1.00  0.00     0.032 C 
HETATM   28  C3  UNL     1      11.780  -2.401  16.151  1.00  0.00     0.032 C 
ENDBRANCH  23  26
ENDBRANCH   1  22
TORSDOF 5
ENDMDL
MODEL 2
REMARK VINA RESULT: -8.050287095      1.674      2.406
REMARK  5 active torsions:
REMARK  status: ('A' for Active; 'I' for Inactive)
REMARK    1  A    between atoms: C2_2  and  N1_4 
REMARK       I    between atoms: N1_4  and  C4_6 
REMARK    2  A    between atoms: C4_6  and  C5_8 
REMARK    3  A    between atoms: C12_15  and  N2_16 
REMARK       I    between atoms: N2_16  and  C13_18 
REMARK    4  A    between atoms: C13_18  and  C14_20 
REMARK    5  A    between atoms: C14_20  and  C15_22 
ROOT
HETATM    1  C5  UNL     1       8.389   0.299  17.207  1.00  0.00     0.042 C 
HETATM    2  C6  UNL     1       9.483   1.090  16.543  1.00  0.00     0.024 C 
HETATM    3  C7  UNL     1       9.993   1.453  17.894  1.00  0.00    -0.012 C 
HETATM    4  C8  UNL     1       9.471   2.742  18.466  1.00  0.00     0.012 C 
HETATM    5  C9  UNL     1       8.179   3.128  17.903  1.00  0.00     0.015 A 
HETATM    6  C10 UNL     1       7.214   2.043  18.493  1.00  0.00     0.016 A 
HETATM    7  C11 UNL     1       7.117   1.065  17.414  1.00  0.00     0.026 C 
HETATM    8  C12 UNL     1       6.922   3.464  18.539  1.00  0.00     0.093 A 
HETATM    9  C19 UNL     1       9.303   0.221  18.391  1.00  0.00     0.024 C 
ENDROOT
BRANCH   8  10
HETATM   10  N2  UNL     1       6.904   4.135  19.812  1.00  0.00    -0.349 N 
HETATM   11  C13 UNL     1       7.033   5.538  19.917  1.00  0.00     0.288 C 
HETATM   12  O2  UNL     1       7.173   6.277  18.887  1.00  0.00    -0.264 OA
ATOM     13  H2  UNL     1       6.795   3.582  20.662  1.00  0.00     0.163 HD
BRANCH  11  14
HETATM   14  C14 UNL     1       7.011   6.188  21.227  1.00  0.00     0.227 C 
HETATM   15  O3  UNL     1       7.805   5.776  22.107  1.00  0.00    -0.286 OA
BRANCH  14  16
HETATM   16  C15 UNL     1       6.106   7.301  21.566  1.00  0.00     0.056 A 
HETATM   17  C16 UNL     1       4.656   7.233  21.196  1.00  0.00     0.026 C 
HETATM   18  C17 UNL     1       6.439   8.075  22.870  1.00  0.00     0.054 A 
HETATM   19  C18 UNL     1       6.714   8.680  21.563  1.00  0.00     0.091 A 
HETATM   20 BR1  UNL     1       5.602  10.187  21.068  1.00  0.00    -0.072 Br
HETATM   21 BR2  UNL     1       8.558   8.858  20.982  1.00  0.00    -0.072 Br
ENDBRANCH  14  16
ENDBRANCH  11  14
ENDBRANCH   8  10
BRANCH   1  22
HETATM   22  C4  UNL     1       8.131  -0.994  16.529  1.00  0.00     0.226 C 
HETATM   23  N1  UNL     1       9.161  -1.916  16.208  1.00  0.00    -0.357 N 
ATOM     24  H1  UNL     1      10.124  -1.683  16.452  1.00  0.00     0.162 HD
HETATM   25  O1  UNL     1       6.955  -1.305  16.218  1.00  0.00    -0.273 OA
BRANCH  23  26
HETATM   26  C2  UNL     1       8.895  -3.165  15.553  1.00  0.00     0.076 C 
HETATM   27  C1  UNL     1       9.236  -3.106  14.068  1.00  0.00     0.032 C 
HETATM   28  C3  UNL     1       9.712  -4.236  16.212  1.00  0.00     0.032 C 
ENDBRANCH  23  26
ENDBRANCH   1  22
TORSDOF 5
ENDMDL
MODEL 3
REMARK VINA RESULT: -8.029653991      4.050      5.043
REMARK  5 active torsions:
REMARK  status: ('A' for Active; 'I' for Inactive)
REMARK    1  A    between atoms: C2_2  and  N1_4 
REMARK       I    between atoms: N1_4  and  C4_6 
REMARK    2  A    between atoms: C4_6  and  C5_8 
REMARK    3  A    between atoms: C12_15  and  N2_16 
REMARK       I    between atoms: N2_16  and  C13_18 
REMARK    4  A    between atoms: C13_18  and  C14_20 
REMARK    5  A    between atoms: C14_20  and  C15_22 
ROOT
HETATM    1  C5  UNL     1       9.084  -0.038  17.275  1.00  0.00     0.042 C 
HETATM    2  C6  UNL     1       9.671   1.231  16.718  1.00  0.00     0.024 C 
HETATM    3  C7  UNL     1       9.864   1.713  18.114  1.00  0.00    -0.012 C 
HETATM    4  C8  UNL     1       8.741   2.535  18.683  1.00  0.00     0.012 C 
HETATM    5  C9  UNL     1       7.458   2.265  18.037  1.00  0.00     0.015 A 
HETATM    6  C10 UNL     1       7.134   0.811  18.521  1.00  0.00     0.016 A 
HETATM    7  C11 UNL     1       7.592  -0.017  17.409  1.00  0.00     0.026 C 
HETATM    8  C12 UNL     1       6.171   1.894  18.587  1.00  0.00     0.093 A 
HETATM    9  C19 UNL     1       9.855   0.272  18.522  1.00  0.00     0.024 C 
ENDROOT
BRANCH   8  10
HETATM   10  N2  UNL     1       5.757   2.387  19.874  1.00  0.00    -0.349 N 
HETATM   11  C13 UNL     1       4.567   1.948  20.494  1.00  0.00     0.288 C 
HETATM   12  O2  UNL     1       3.801   1.092  19.941  1.00  0.00    -0.264 OA
ATOM     13  H2  UNL     1       6.341   3.074  20.352  1.00  0.00     0.163 HD
BRANCH  11  14
HETATM   14  C14 UNL     1       4.177   2.470  21.803  1.00  0.00     0.227 C 
HETATM   15  O3  UNL     1       4.434   3.670  22.064  1.00  0.00    -0.286 OA
BRANCH  14  16
HETATM   16  C15 UNL     1       3.497   1.659  22.830  1.00  0.00     0.056 A 
HETATM   17  C16 UNL     1       4.009   0.295  23.175  1.00  0.00     0.026 C 
HETATM   18  C17 UNL     1       2.835   2.451  23.991  1.00  0.00     0.054 A 
HETATM   19  C18 UNL     1       2.006   1.843  22.945  1.00  0.00     0.091 A 
HETATM   20 BR1  UNL     1       0.920   0.332  23.485  1.00  0.00    -0.072 Br
HETATM   21 BR2  UNL     1       1.131   2.999  21.653  1.00  0.00    -0.072 Br
ENDBRANCH  14  16
ENDBRANCH  11  14
ENDBRANCH   8  10
BRANCH   1  22
HETATM   22  C4  UNL     1       9.540  -1.244  16.542  1.00  0.00     0.226 C 
HETATM   23  N1  UNL     1       8.662  -2.070  15.794  1.00  0.00    -0.357 N 
ATOM     24  H1  UNL     1       7.671  -1.828  15.755  1.00  0.00     0.162 HD
HETATM   25  O1  UNL     1      10.753  -1.565  16.574  1.00  0.00    -0.273 OA
BRANCH  23  26
HETATM   26  C2  UNL     1       9.118  -3.234  15.089  1.00  0.00     0.076 C 
HETATM   27  C1  UNL     1       9.145  -4.464  15.990  1.00  0.00     0.032 C 
HETATM   28  C3  UNL     1       8.201  -3.483  13.930  1.00  0.00     0.032 C 
ENDBRANCH  23  26
ENDBRANCH   1  22
TORSDOF 5
ENDMDL
MODEL 4
REMARK VINA RESULT: -8.011986748      2.230      3.170
REMARK  5 active torsions:
REMARK  status: ('A' for Active; 'I' for Inactive)
REMARK    1  A    between atoms: C2_2  and  N1_4 
REMARK       I    between atoms: N1_4  and  C4_6 
REMARK    2  A    between atoms: C4_6  and  C5_8 
REMARK    3  A    between atoms: C12_15  and  N2_16 
REMARK       I    between atoms: N2_16  and  C13_18 
REMARK    4  A    between atoms: C13_18  and  C14_20 
REMARK    5  A    between atoms: C14_20  and  C15_22 
ROOT
HETATM    1  C5  UNL     1       9.071  -0.029  17.267  1.00  0.00     0.042 C 
HETATM    2  C6  UNL     1       9.680   1.197  16.641  1.00  0.00     0.024 C 
HETATM    3  C7  UNL     1       9.959   1.714  18.010  1.00  0.00    -0.012 C 
HETATM    4  C8  UNL     1       8.898   2.599  18.604  1.00  0.00     0.012 C 
HETATM    5  C9  UNL     1       7.576   2.362  18.028  1.00  0.00     0.015 A 
HETATM    6  C10 UNL     1       7.219   0.937  18.575  1.00  0.00     0.016 A 
HETATM    7  C11 UNL     1       7.589   0.057  17.471  1.00  0.00     0.026 C 
HETATM    8  C12 UNL     1       6.303   2.061  18.650  1.00  0.00     0.093 A 
HETATM    9  C19 UNL     1       9.913   0.288  18.464  1.00  0.00     0.024 C 
ENDROOT
BRANCH   8  10
HETATM   10  N2  UNL     1       5.973   2.610  19.939  1.00  0.00    -0.349 N 
HETATM   11  C13 UNL     1       5.142   3.744  20.075  1.00  0.00     0.288 C 
HETATM   12  O2  UNL     1       4.646   4.336  19.061  1.00  0.00    -0.264 OA
ATOM     13  H2  UNL     1       6.349   2.168  20.777  1.00  0.00     0.163 HD
BRANCH  11  14
HETATM   14  C14 UNL     1       4.827   4.277  21.400  1.00  0.00     0.227 C 
HETATM   15  O3  UNL     1       4.806   3.481  22.370  1.00  0.00    -0.286 OA
BRANCH  14  16
HETATM   16  C15 UNL     1       4.532   5.699  21.654  1.00  0.00     0.056 A 
HETATM   17  C16 UNL     1       3.216   6.282  21.242  1.00  0.00     0.026 C 
HETATM   18  C17 UNL     1       5.177   6.308  22.929  1.00  0.00     0.054 A 
HETATM   19  C18 UNL     1       5.707   6.642  21.603  1.00  0.00     0.091 A 
HETATM   20 BR1  UNL     1       5.416   8.460  20.999  1.00  0.00    -0.072 Br
HETATM   21 BR2  UNL     1       7.430   5.920  21.073  1.00  0.00    -0.072 Br
ENDBRANCH  14  16
ENDBRANCH  11  14
ENDBRANCH   8  10
BRANCH   1  22
HETATM   22  C4  UNL     1       9.443  -1.275  16.554  1.00  0.00     0.226 C 
HETATM   23  N1  UNL     1       8.505  -2.063  15.838  1.00  0.00    -0.357 N 
ATOM     24  H1  UNL     1       7.530  -1.764  15.810  1.00  0.00     0.162 HD
HETATM   25  O1  UNL     1      10.635  -1.666  16.573  1.00  0.00    -0.273 OA
BRANCH  23  26
HETATM   26  C2  UNL     1       8.880  -3.266  15.152  1.00  0.00     0.076 C 
HETATM   27  C1  UNL     1       8.939  -4.461  16.099  1.00  0.00     0.032 C 
HETATM   28  C3  UNL     1       7.877  -3.535  14.070  1.00  0.00     0.032 C 
ENDBRANCH  23  26
ENDBRANCH   1  22
TORSDOF 5
ENDMDL
MODEL 5
REMARK VINA RESULT: -7.992844443      2.125      2.975
REMARK  5 active torsions:
REMARK  status: ('A' for Active; 'I' for Inactive)
REMARK    1  A    between atoms: C2_2  and  N1_4 
REMARK       I    between atoms: N1_4  and  C4_6 
REMARK    2  A    between atoms: C4_6  and  C5_8 
REMARK    3  A    between atoms: C12_15  and  N2_16 
REMARK       I    between atoms: N2_16  and  C13_18 
REMARK    4  A    between atoms: C13_18  and  C14_20 
REMARK    5  A    between atoms: C14_20  and  C15_22 
ROOT
HETATM    1  C5  UNL     1       7.914   0.773  17.339  1.00  0.00     0.042 C 
HETATM    2  C6  UNL     1       9.108   1.457  16.730  1.00  0.00     0.024 C 
HETATM    3  C7  UNL     1       9.601   1.744  18.106  1.00  0.00    -0.012 C 
HETATM    4  C8  UNL     1       9.192   3.070  18.685  1.00  0.00     0.012 C 
HETATM    5  C9  UNL     1       7.968   3.596  18.084  1.00  0.00     0.015 A 
HETATM    6  C10 UNL     1       6.876   2.606  18.617  1.00  0.00     0.016 A 
HETATM    7  C11 UNL     1       6.721   1.661  17.516  1.00  0.00     0.026 C 
HETATM    8  C12 UNL     1       6.729   4.048  18.682  1.00  0.00     0.093 A 
HETATM    9  C19 UNL     1       8.770   0.581  18.553  1.00  0.00     0.024 C 
ENDROOT
BRANCH   8  10
HETATM   10  N2  UNL     1       6.732   4.697  19.966  1.00  0.00    -0.349 N 
HETATM   11  C13 UNL     1       7.014   6.074  20.106  1.00  0.00     0.288 C 
HETATM   12  O2  UNL     1       7.279   6.809  19.098  1.00  0.00    -0.264 OA
ATOM     13  H2  UNL     1       6.525   4.146  20.800  1.00  0.00     0.163 HD
BRANCH  11  14
HETATM   14  C14 UNL     1       7.008   6.701  21.427  1.00  0.00     0.227 C 
HETATM   15  O3  UNL     1       7.996   6.513  22.177  1.00  0.00    -0.286 OA
BRANCH  14  16
HETATM   16  C15 UNL     1       5.903   7.543  21.922  1.00  0.00     0.056 A 
HETATM   17  C16 UNL     1       4.482   7.116  21.722  1.00  0.00     0.026 C 
HETATM   18  C17 UNL     1       6.194   8.355  23.213  1.00  0.00     0.054 A 
HETATM   19  C18 UNL     1       6.143   9.031  21.913  1.00  0.00     0.091 A 
HETATM   20 BR1  UNL     1       4.637  10.215  21.623  1.00  0.00    -0.072 Br
HETATM   21 BR2  UNL     1       7.796   9.680  21.128  1.00  0.00    -0.072 Br
ENDBRANCH  14  16
ENDBRANCH  11  14
ENDBRANCH   8  10
BRANCH   1  22
HETATM   22  C4  UNL     1       7.552  -0.477  16.626  1.00  0.00     0.226 C 
HETATM   23  N1  UNL     1       6.257  -0.715  16.097  1.00  0.00    -0.357 N 
ATOM     24  H1  UNL     1       5.539   0.001  16.210  1.00  0.00     0.162 HD
HETATM   25  O1  UNL     1       8.416  -1.374  16.475  1.00  0.00    -0.273 OA
BRANCH  23  26
HETATM   26  C2  UNL     1       5.921  -1.929  15.410  1.00  0.00     0.076 C 
HETATM   27  C1  UNL     1       4.540  -2.439  15.806  1.00  0.00     0.032 C 
HETATM   28  C3  UNL     1       5.954  -1.669  13.934  1.00  0.00     0.032 C 
ENDBRANCH  23  26
ENDBRANCH   1  22
TORSDOF 5
ENDMDL
