MODEL 1
REMARK VINA RESULT: -7.786759353      0.000      0.000
REMARK  15 active torsions:
REMARK  status: ('A' for Active; 'I' for Inactive)
REMARK    1  A    between atoms: C2_2  and  C3_4 
REMARK    2  A    between atoms: C7_8  and  C8_9 
REMARK       I    between atoms: C8_9  and  N1_11 
REMARK    3  A    between atoms: N1_11  and  C9_13 
REMARK    4  A    between atoms: C9_13  and  C10_14 
REMARK    5  A    between atoms: C9_13  and  C14_18 
REMARK    6  A    between atoms: C10_14  and  C11_15 
REMARK    7  A    between atoms: C14_18  and  O3_19 
REMARK    8  A    between atoms: C14_18  and  C15_21 
REMARK       I    between atoms: C15_21  and  N2_23 
REMARK    9  A    between atoms: N2_23  and  C16_25 
REMARK   10  A    between atoms: C16_25  and  C17_26 
REMARK   11  A    between atoms: C16_25  and  C21_30 
REMARK   12  A    between atoms: C17_26  and  C18_27 
REMARK   13  A    between atoms: C21_30  and  C22_32 
REMARK       I    between atoms: C22_32  and  N3_34 
REMARK   14  A    between atoms: N3_34  and  C23_36 
REMARK   15  A    between atoms: C23_36  and  C24_37 
ROOT
HETATM    1  C14 UNL     1      -7.277  28.523   3.215  1.00  0.00     0.134 C 
ENDROOT
BRANCH   1   2
HETATM    2  C9  UNL     1      -8.573  29.203   3.531  1.00  0.00     0.147 C 
BRANCH   2   3
HETATM    3  N1  UNL     1      -8.325  30.629   3.662  1.00  0.00    -0.350 N 
HETATM    4  C8  UNL     1      -8.308  31.534   2.576  1.00  0.00     0.223 C 
HETATM    5  O2  UNL     1      -8.516  31.125   1.416  1.00  0.00    -0.273 OA
ATOM      6  H1  UNL     1      -8.153  31.000   4.597  1.00  0.00     0.163 HD
BRANCH   4   7
HETATM    7  C7  UNL     1      -8.047  32.957   2.824  1.00  0.00     0.089 C 
HETATM    8  C3  UNL     1      -6.746  33.474   2.317  1.00  0.00     0.068 C 
HETATM    9  C4  UNL     1      -6.538  34.725   3.157  1.00  0.00     0.013 C 
HETATM   10  C5  UNL     1      -7.294  34.528   4.444  1.00  0.00     0.002 C 
HETATM   11  C6  UNL     1      -8.093  33.259   4.310  1.00  0.00     0.015 C 
BRANCH   8  12
HETATM   12  C2  UNL     1      -5.607  32.557   2.400  1.00  0.00     0.128 C 
HETATM   13  C1  UNL     1      -5.084  32.111   3.711  1.00  0.00     0.091 C 
HETATM   14  O1  UNL     1      -5.075  32.149   1.386  1.00  0.00    -0.298 OA
ENDBRANCH   8  12
ENDBRANCH   4   7
ENDBRANCH   2   3
BRANCH   2  15
HETATM   15  C10 UNL     1      -9.315  28.542   4.604  1.00  0.00     0.036 C 
BRANCH  15  16
HETATM   16  C11 UNL     1     -10.806  28.717   4.632  1.00  0.00    -0.020 C 
HETATM   17  C12 UNL     1     -11.545  27.836   5.594  1.00  0.00     0.009 C 
HETATM   18  C13 UNL     1     -11.311  28.369   3.222  1.00  0.00     0.009 C 
ENDBRANCH  15  16
ENDBRANCH   2  15
ENDBRANCH   1   2
BRANCH   1  19
HETATM   19  O3  UNL     1      -6.404  28.484   4.181  1.00  0.00    -0.358 OA
ATOM     20  H3  UNL     1      -5.805  27.747   4.169  1.00  0.00     0.217 HD
ENDBRANCH   1  19
BRANCH   1  21
HETATM   21  C15 UNL     1      -6.876  27.908   1.991  1.00  0.00     0.273 C 
HETATM   22  O4  UNL     1      -7.523  28.057   0.933  1.00  0.00    -0.266 OA
HETATM   23  N2  UNL     1      -5.716  27.093   1.930  1.00  0.00    -0.344 N 
ATOM     24  H2  UNL     1      -5.162  26.954   2.775  1.00  0.00     0.163 HD
BRANCH  23  25
HETATM   25  C16 UNL     1      -5.287  26.435   0.665  1.00  0.00     0.165 C 
BRANCH  25  26
HETATM   26  C17 UNL     1      -3.810  26.290   0.839  1.00  0.00     0.037 C 
BRANCH  26  27
HETATM   27  C18 UNL     1      -2.993  25.701  -0.208  1.00  0.00    -0.020 C 
HETATM   28  C19 UNL     1      -3.428  25.706  -1.609  1.00  0.00     0.009 C 
HETATM   29  C20 UNL     1      -2.686  24.237   0.170  1.00  0.00     0.009 C 
ENDBRANCH  26  27
ENDBRANCH  25  26
BRANCH  25  30
HETATM   30  C21 UNL     1      -6.041  25.164   0.680  1.00  0.00     0.239 C 
HETATM   31  O5  UNL     1      -6.020  24.415   1.672  1.00  0.00    -0.285 OA
BRANCH  30  32
HETATM   32  C22 UNL     1      -6.845  24.755  -0.483  1.00  0.00     0.293 C 
HETATM   33  O6  UNL     1      -7.115  23.525  -0.576  1.00  0.00    -0.264 OA
HETATM   34  N3  UNL     1      -7.263  25.724  -1.414  1.00  0.00    -0.333 N 
ATOM     35  H3  UNL     1      -6.970  26.672  -1.174  1.00  0.00     0.168 HD
BRANCH  34  36
HETATM   36  C23 UNL     1      -8.002  25.653  -2.608  1.00  0.00     0.072 C 
BRANCH  36  37
HETATM   37  C24 UNL     1      -7.366  25.995  -3.905  1.00  0.00    -0.019 C 
HETATM   38  C25 UNL     1      -8.204  25.324  -5.027  1.00  0.00     0.020 C 
HETATM   39  C26 UNL     1      -7.447  27.497  -4.195  1.00  0.00     0.020 C 
HETATM   40  C27 UNL     1      -5.983  25.480  -4.111  1.00  0.00     0.020 C 
ENDBRANCH  36  37
ENDBRANCH  34  36
ENDBRANCH  30  32
ENDBRANCH  25  30
ENDBRANCH  23  25
ENDBRANCH   1  21
TORSDOF 15
ENDMDL
MODEL 2
REMARK VINA RESULT: -7.626306917      1.412      2.264
REMARK  15 active torsions:
REMARK  status: ('A' for Active; 'I' for Inactive)
REMARK    1  A    between atoms: C2_2  and  C3_4 
REMARK    2  A    between atoms: C7_8  and  C8_9 
REMARK       I    between atoms: C8_9  and  N1_11 
REMARK    3  A    between atoms: N1_11  and  C9_13 
REMARK    4  A    between atoms: C9_13  and  C10_14 
REMARK    5  A    between atoms: C9_13  and  C14_18 
REMARK    6  A    between atoms: C10_14  and  C11_15 
REMARK    7  A    between atoms: C14_18  and  O3_19 
REMARK    8  A    between atoms: C14_18  and  C15_21 
REMARK       I    between atoms: C15_21  and  N2_23 
REMARK    9  A    between atoms: N2_23  and  C16_25 
REMARK   10  A    between atoms: C16_25  and  C17_26 
REMARK   11  A    between atoms: C16_25  and  C21_30 
REMARK   12  A    between atoms: C17_26  and  C18_27 
REMARK   13  A    between atoms: C21_30  and  C22_32 
REMARK       I    between atoms: C22_32  and  N3_34 
REMARK   14  A    between atoms: N3_34  and  C23_36 
REMARK   15  A    between atoms: C23_36  and  C24_37 
ROOT
HETATM    1  C14 UNL     1      -6.915  27.375   3.009  1.00  0.00     0.134 C 
ENDROOT
BRANCH   1   2
HETATM    2  C9  UNL     1      -7.879  28.468   3.353  1.00  0.00     0.147 C 
BRANCH   2   3
HETATM    3  N1  UNL     1      -7.164  29.733   3.345  1.00  0.00    -0.350 N 
HETATM    4  C8  UNL     1      -7.244  30.682   2.301  1.00  0.00     0.223 C 
HETATM    5  O2  UNL     1      -7.963  30.460   1.306  1.00  0.00    -0.273 OA
ATOM      6  H1  UNL     1      -6.567  29.949   4.143  1.00  0.00     0.163 HD
BRANCH   4   7
HETATM    7  C7  UNL     1      -6.477  31.930   2.397  1.00  0.00     0.089 C 
HETATM    8  C3  UNL     1      -6.963  32.912   3.405  1.00  0.00     0.068 C 
HETATM    9  C4  UNL     1      -6.363  34.219   2.908  1.00  0.00     0.013 C 
HETATM   10  C5  UNL     1      -6.154  34.077   1.424  1.00  0.00     0.002 C 
HETATM   11  C6  UNL     1      -6.450  32.647   1.060  1.00  0.00     0.015 C 
BRANCH   8  12
HETATM   12  C2  UNL     1      -8.415  33.000   3.577  1.00  0.00     0.128 C 
HETATM   13  C1  UNL     1      -9.193  34.083   2.935  1.00  0.00     0.091 C 
HETATM   14  O1  UNL     1      -9.001  32.178   4.254  1.00  0.00    -0.298 OA
ENDBRANCH   8  12
ENDBRANCH   4   7
ENDBRANCH   2   3
BRANCH   2  15
HETATM   15  C10 UNL     1      -8.695  28.156   4.526  1.00  0.00     0.036 C 
BRANCH  15  16
HETATM   16  C11 UNL     1     -10.079  28.737   4.587  1.00  0.00    -0.020 C 
HETATM   17  C12 UNL     1     -11.013  28.087   5.563  1.00  0.00     0.009 C 
HETATM   18  C13 UNL     1     -10.689  28.552   3.187  1.00  0.00     0.009 C 
ENDBRANCH  15  16
ENDBRANCH   2  15
ENDBRANCH   1   2
BRANCH   1  19
HETATM   19  O3  UNL     1      -6.489  26.656   4.009  1.00  0.00    -0.358 OA
ATOM     20  H3  UNL     1      -7.109  26.028   4.361  1.00  0.00     0.217 HD
ENDBRANCH   1  19
BRANCH   1  21
HETATM   21  C15 UNL     1      -6.403  27.018   1.726  1.00  0.00     0.273 C 
HETATM   22  O4  UNL     1      -5.755  27.823   1.024  1.00  0.00    -0.266 OA
HETATM   23  N2  UNL     1      -6.615  25.721   1.190  1.00  0.00    -0.344 N 
ATOM     24  H2  UNL     1      -7.136  25.037   1.740  1.00  0.00     0.163 HD
BRANCH  23  25
HETATM   25  C16 UNL     1      -6.099  25.332  -0.150  1.00  0.00     0.165 C 
BRANCH  25  26
HETATM   26  C17 UNL     1      -4.881  24.528   0.172  1.00  0.00     0.037 C 
BRANCH  26  27
HETATM   27  C18 UNL     1      -3.561  24.985  -0.229  1.00  0.00    -0.020 C 
HETATM   28  C19 UNL     1      -2.755  25.847   0.643  1.00  0.00     0.009 C 
HETATM   29  C20 UNL     1      -3.677  25.695  -1.593  1.00  0.00     0.009 C 
ENDBRANCH  26  27
ENDBRANCH  25  26
BRANCH  25  30
HETATM   30  C21 UNL     1      -7.219  24.559  -0.727  1.00  0.00     0.239 C 
HETATM   31  O5  UNL     1      -7.309  23.331  -0.553  1.00  0.00    -0.285 OA
BRANCH  30  32
HETATM   32  C22 UNL     1      -8.263  25.227  -1.519  1.00  0.00     0.293 C 
HETATM   33  O6  UNL     1      -9.457  24.921  -1.248  1.00  0.00    -0.264 OA
HETATM   34  N3  UNL     1      -7.895  26.150  -2.516  1.00  0.00    -0.333 N 
ATOM     35  H3  UNL     1      -6.887  26.290  -2.588  1.00  0.00     0.168 HD
BRANCH  34  36
HETATM   36  C23 UNL     1      -8.633  26.918  -3.433  1.00  0.00     0.072 C 
BRANCH  36  37
HETATM   37  C24 UNL     1      -7.936  27.774  -4.426  1.00  0.00    -0.019 C 
HETATM   38  C25 UNL     1      -6.441  27.354  -4.438  1.00  0.00     0.020 C 
HETATM   39  C26 UNL     1      -8.433  27.506  -5.850  1.00  0.00     0.020 C 
HETATM   40  C27 UNL     1      -7.914  29.234  -4.128  1.00  0.00     0.020 C 
ENDBRANCH  36  37
ENDBRANCH  34  36
ENDBRANCH  30  32
ENDBRANCH  25  30
ENDBRANCH  23  25
ENDBRANCH   1  21
TORSDOF 15
ENDMDL
MODEL 3
REMARK VINA RESULT: -7.480243971      2.258      4.776
REMARK  15 active torsions:
REMARK  status: ('A' for Active; 'I' for Inactive)
REMARK    1  A    between atoms: C2_2  and  C3_4 
REMARK    2  A    between atoms: C7_8  and  C8_9 
REMARK       I    between atoms: C8_9  and  N1_11 
REMARK    3  A    between atoms: N1_11  and  C9_13 
REMARK    4  A    between atoms: C9_13  and  C10_14 
REMARK    5  A    between atoms: C9_13  and  C14_18 
REMARK    6  A    between atoms: C10_14  and  C11_15 
REMARK    7  A    between atoms: C14_18  and  O3_19 
REMARK    8  A    between atoms: C14_18  and  C15_21 
REMARK       I    between atoms: C15_21  and  N2_23 
REMARK    9  A    between atoms: N2_23  and  C16_25 
REMARK   10  A    between atoms: C16_25  and  C17_26 
REMARK   11  A    between atoms: C16_25  and  C21_30 
REMARK   12  A    between atoms: C17_26  and  C18_27 
REMARK   13  A    between atoms: C21_30  and  C22_32 
REMARK       I    between atoms: C22_32  and  N3_34 
REMARK   14  A    between atoms: N3_34  and  C23_36 
REMARK   15  A    between atoms: C23_36  and  C24_37 
ROOT
HETATM    1  C14 UNL     1      -9.002  28.289  -0.369  1.00  0.00     0.134 C 
ENDROOT
BRANCH   1   2
HETATM    2  C9  UNL     1      -8.309  28.697   0.893  1.00  0.00     0.147 C 
BRANCH   2   3
HETATM    3  N1  UNL     1      -7.885  30.080   0.760  1.00  0.00    -0.350 N 
HETATM    4  C8  UNL     1      -8.212  31.102   1.681  1.00  0.00     0.223 C 
HETATM    5  O2  UNL     1      -8.904  30.842   2.685  1.00  0.00    -0.273 OA
ATOM      6  H1  UNL     1      -7.315  30.330  -0.049  1.00  0.00     0.163 HD
BRANCH   4   7
HETATM    7  C7  UNL     1      -7.729  32.469   1.447  1.00  0.00     0.089 C 
HETATM    8  C3  UNL     1      -6.252  32.652   1.500  1.00  0.00     0.068 C 
HETATM    9  C4  UNL     1      -6.114  34.143   1.766  1.00  0.00     0.013 C 
HETATM   10  C5  UNL     1      -7.372  34.590   2.463  1.00  0.00     0.002 C 
HETATM   11  C6  UNL     1      -8.330  33.429   2.456  1.00  0.00     0.015 C 
BRANCH   8  12
HETATM   12  C2  UNL     1      -5.535  31.845   2.491  1.00  0.00     0.128 C 
HETATM   13  C1  UNL     1      -5.219  32.390   3.831  1.00  0.00     0.091 C 
HETATM   14  O1  UNL     1      -5.189  30.711   2.221  1.00  0.00    -0.298 OA
ENDBRANCH   8  12
ENDBRANCH   4   7
ENDBRANCH   2   3
BRANCH   2  15
HETATM   15  C10 UNL     1      -7.312  27.721   1.335  1.00  0.00     0.036 C 
BRANCH  15  16
HETATM   16  C11 UNL     1      -7.497  27.100   2.690  1.00  0.00    -0.020 C 
HETATM   17  C12 UNL     1      -7.280  28.015   3.858  1.00  0.00     0.009 C 
HETATM   18  C13 UNL     1      -6.454  25.975   2.799  1.00  0.00     0.009 C 
ENDBRANCH  15  16
ENDBRANCH   2  15
ENDBRANCH   1   2
BRANCH   1  19
HETATM   19  O3  UNL     1     -10.175  28.817  -0.571  1.00  0.00    -0.358 OA
ATOM     20  H3  UNL     1     -10.878  28.206  -0.760  1.00  0.00     0.217 HD
ENDBRANCH   1  19
BRANCH   1  21
HETATM   21  C15 UNL     1      -8.541  27.396  -1.382  1.00  0.00     0.273 C 
HETATM   22  O4  UNL     1      -8.491  26.160  -1.204  1.00  0.00    -0.266 OA
HETATM   23  N2  UNL     1      -8.113  27.883  -2.645  1.00  0.00    -0.344 N 
ATOM     24  H2  UNL     1      -8.145  28.886  -2.826  1.00  0.00     0.163 HD
BRANCH  23  25
HETATM   25  C16 UNL     1      -7.619  26.969  -3.711  1.00  0.00     0.165 C 
BRANCH  25  26
HETATM   26  C17 UNL     1      -8.774  26.888  -4.655  1.00  0.00     0.037 C 
BRANCH  26  27
HETATM   27  C18 UNL     1      -8.626  26.267  -5.960  1.00  0.00    -0.020 C 
HETATM   28  C19 UNL     1      -9.290  26.819  -7.147  1.00  0.00     0.009 C 
HETATM   29  C20 UNL     1      -9.041  24.785  -5.852  1.00  0.00     0.009 C 
ENDBRANCH  26  27
ENDBRANCH  25  26
BRANCH  25  30
HETATM   30  C21 UNL     1      -6.436  27.682  -4.238  1.00  0.00     0.239 C 
HETATM   31  O5  UNL     1      -6.556  28.614  -5.052  1.00  0.00    -0.285 OA
BRANCH  30  32
HETATM   32  C22 UNL     1      -5.080  27.308  -3.805  1.00  0.00     0.293 C 
HETATM   33  O6  UNL     1      -4.128  27.707  -4.531  1.00  0.00    -0.264 OA
HETATM   34  N3  UNL     1      -4.911  26.543  -2.635  1.00  0.00    -0.333 N 
ATOM     35  H3  UNL     1      -5.788  26.323  -2.162  1.00  0.00     0.168 HD
BRANCH  34  36
HETATM   36  C23 UNL     1      -3.779  26.021  -1.986  1.00  0.00     0.072 C 
BRANCH  36  37
HETATM   37  C24 UNL     1      -3.881  25.513  -0.595  1.00  0.00    -0.019 C 
HETATM   38  C25 UNL     1      -3.899  26.744   0.352  1.00  0.00     0.020 C 
HETATM   39  C26 UNL     1      -5.217  24.805  -0.348  1.00  0.00     0.020 C 
HETATM   40  C27 UNL     1      -2.737  24.687  -0.115  1.00  0.00     0.020 C 
ENDBRANCH  36  37
ENDBRANCH  34  36
ENDBRANCH  30  32
ENDBRANCH  25  30
ENDBRANCH  23  25
ENDBRANCH   1  21
TORSDOF 15
ENDMDL
MODEL 4
REMARK VINA RESULT: -7.401531157      3.228      6.781
REMARK  15 active torsions:
REMARK  status: ('A' for Active; 'I' for Inactive)
REMARK    1  A    between atoms: C2_2  and  C3_4 
REMARK    2  A    between atoms: C7_8  and  C8_9 
REMARK       I    between atoms: C8_9  and  N1_11 
REMARK    3  A    between atoms: N1_11  and  C9_13 
REMARK    4  A    between atoms: C9_13  and  C10_14 
REMARK    5  A    between atoms: C9_13  and  C14_18 
REMARK    6  A    between atoms: C10_14  and  C11_15 
REMARK    7  A    between atoms: C14_18  and  O3_19 
REMARK    8  A    between atoms: C14_18  and  C15_21 
REMARK       I    between atoms: C15_21  and  N2_23 
REMARK    9  A    between atoms: N2_23  and  C16_25 
REMARK   10  A    between atoms: C16_25  and  C17_26 
REMARK   11  A    between atoms: C16_25  and  C21_30 
REMARK   12  A    between atoms: C17_26  and  C18_27 
REMARK   13  A    between atoms: C21_30  and  C22_32 
REMARK       I    between atoms: C22_32  and  N3_34 
REMARK   14  A    between atoms: N3_34  and  C23_36 
REMARK   15  A    between atoms: C23_36  and  C24_37 
ROOT
HETATM    1  C14 UNL     1      -5.929  27.461  -4.034  1.00  0.00     0.134 C 
ENDROOT
BRANCH   1   2
HETATM    2  C9  UNL     1      -7.189  28.241  -4.246  1.00  0.00     0.147 C 
BRANCH   2   3
HETATM    3  N1  UNL     1      -7.903  28.315  -2.983  1.00  0.00    -0.350 N 
HETATM    4  C8  UNL     1      -8.478  29.499  -2.466  1.00  0.00     0.223 C 
HETATM    5  O2  UNL     1      -8.391  30.568  -3.103  1.00  0.00    -0.273 OA
ATOM      6  H1  UNL     1      -7.995  27.460  -2.434  1.00  0.00     0.163 HD
BRANCH   4   7
HETATM    7  C7  UNL     1      -9.179  29.460  -1.176  1.00  0.00     0.089 C 
HETATM    8  C3  UNL     1     -10.586  28.977  -1.219  1.00  0.00     0.068 C 
HETATM    9  C4  UNL     1     -11.169  29.546   0.066  1.00  0.00     0.013 C 
HETATM   10  C5  UNL     1     -10.365  30.770   0.416  1.00  0.00     0.002 C 
HETATM   11  C6  UNL     1      -9.203  30.836  -0.538  1.00  0.00     0.015 C 
BRANCH   8  12
HETATM   12  C2  UNL     1     -11.368  29.361  -2.398  1.00  0.00     0.128 C 
HETATM   13  C1  UNL     1     -11.534  28.429  -3.536  1.00  0.00     0.091 C 
HETATM   14  O1  UNL     1     -11.891  30.456  -2.454  1.00  0.00    -0.298 OA
ENDBRANCH   8  12
ENDBRANCH   4   7
ENDBRANCH   2   3
BRANCH   2  15
HETATM   15  C10 UNL     1      -7.937  27.802  -5.424  1.00  0.00     0.036 C 
BRANCH  15  16
HETATM   16  C11 UNL     1      -8.505  28.862  -6.324  1.00  0.00    -0.020 C 
HETATM   17  C12 UNL     1      -9.166  28.365  -7.575  1.00  0.00     0.009 C 
HETATM   18  C13 UNL     1      -7.321  29.742  -6.759  1.00  0.00     0.009 C 
ENDBRANCH  15  16
ENDBRANCH   2  15
ENDBRANCH   1   2
BRANCH   1  19
HETATM   19  O3  UNL     1      -4.832  28.028  -4.448  1.00  0.00    -0.358 OA
ATOM     20  H3  UNL     1      -4.092  27.448  -4.586  1.00  0.00     0.217 HD
ENDBRANCH   1  19
BRANCH   1  21
HETATM   21  C15 UNL     1      -5.775  26.175  -3.434  1.00  0.00     0.273 C 
HETATM   22  O4  UNL     1      -5.615  25.141  -4.117  1.00  0.00    -0.266 OA
HETATM   23  N2  UNL     1      -5.800  26.019  -2.024  1.00  0.00    -0.344 N 
ATOM     24  H2  UNL     1      -5.924  26.843  -1.436  1.00  0.00     0.163 HD
BRANCH  23  25
HETATM   25  C16 UNL     1      -5.652  24.685  -1.380  1.00  0.00     0.165 C 
BRANCH  25  26
HETATM   26  C17 UNL     1      -4.607  24.923  -0.338  1.00  0.00     0.037 C 
BRANCH  26  27
HETATM   27  C18 UNL     1      -3.456  25.764  -0.618  1.00  0.00    -0.020 C 
HETATM   28  C19 UNL     1      -2.137  25.185  -0.894  1.00  0.00     0.009 C 
HETATM   29  C20 UNL     1      -3.281  26.764   0.544  1.00  0.00     0.009 C 
ENDBRANCH  26  27
ENDBRANCH  25  26
BRANCH  25  30
HETATM   30  C21 UNL     1      -7.006  24.419  -0.852  1.00  0.00     0.239 C 
HETATM   31  O5  UNL     1      -7.413  23.256  -0.683  1.00  0.00    -0.285 OA
BRANCH  30  32
HETATM   32  C22 UNL     1      -7.908  25.528  -0.505  1.00  0.00     0.293 C 
HETATM   33  O6  UNL     1      -8.741  25.874  -1.388  1.00  0.00    -0.264 OA
HETATM   34  N3  UNL     1      -7.805  26.138   0.760  1.00  0.00    -0.333 N 
ATOM     35  H3  UNL     1      -7.089  25.721   1.355  1.00  0.00     0.168 HD
BRANCH  34  36
HETATM   36  C23 UNL     1      -8.487  27.205   1.369  1.00  0.00     0.072 C 
BRANCH  36  37
HETATM   37  C24 UNL     1      -7.878  27.928   2.514  1.00  0.00    -0.019 C 
HETATM   38  C25 UNL     1      -6.876  26.958   3.199  1.00  0.00     0.020 C 
HETATM   39  C26 UNL     1      -7.024  29.111   2.046  1.00  0.00     0.020 C 
HETATM   40  C27 UNL     1      -8.811  28.335   3.601  1.00  0.00     0.020 C 
ENDBRANCH  36  37
ENDBRANCH  34  36
ENDBRANCH  30  32
ENDBRANCH  25  30
ENDBRANCH  23  25
ENDBRANCH   1  21
TORSDOF 15
ENDMDL
MODEL 5
REMARK VINA RESULT: -7.313653128      1.866      2.963
REMARK  15 active torsions:
REMARK  status: ('A' for Active; 'I' for Inactive)
REMARK    1  A    between atoms: C2_2  and  C3_4 
REMARK    2  A    between atoms: C7_8  and  C8_9 
REMARK       I    between atoms: C8_9  and  N1_11 
REMARK    3  A    between atoms: N1_11  and  C9_13 
REMARK    4  A    between atoms: C9_13  and  C10_14 
REMARK    5  A    between atoms: C9_13  and  C14_18 
REMARK    6  A    between atoms: C10_14  and  C11_15 
REMARK    7  A    between atoms: C14_18  and  O3_19 
REMARK    8  A    between atoms: C14_18  and  C15_21 
REMARK       I    between atoms: C15_21  and  N2_23 
REMARK    9  A    between atoms: N2_23  and  C16_25 
REMARK   10  A    between atoms: C16_25  and  C17_26 
REMARK   11  A    between atoms: C16_25  and  C21_30 
REMARK   12  A    between atoms: C17_26  and  C18_27 
REMARK   13  A    between atoms: C21_30  and  C22_32 
REMARK       I    between atoms: C22_32  and  N3_34 
REMARK   14  A    between atoms: N3_34  and  C23_36 
REMARK   15  A    between atoms: C23_36  and  C24_37 
ROOT
HETATM    1  C14 UNL     1      -6.945  27.336   2.942  1.00  0.00     0.134 C 
ENDROOT
BRANCH   1   2
HETATM    2  C9  UNL     1      -7.870  28.425   3.388  1.00  0.00     0.147 C 
BRANCH   2   3
HETATM    3  N1  UNL     1      -7.142  29.682   3.376  1.00  0.00    -0.350 N 
HETATM    4  C8  UNL     1      -7.352  30.710   2.429  1.00  0.00     0.223 C 
HETATM    5  O2  UNL     1      -8.207  30.571   1.532  1.00  0.00    -0.273 OA
ATOM      6  H1  UNL     1      -6.435  29.832   4.097  1.00  0.00     0.163 HD
BRANCH   4   7
HETATM    7  C7  UNL     1      -6.558  31.943   2.511  1.00  0.00     0.089 C 
HETATM    8  C3  UNL     1      -7.074  32.985   3.441  1.00  0.00     0.068 C 
HETATM    9  C4  UNL     1      -6.411  34.250   2.918  1.00  0.00     0.013 C 
HETATM   10  C5  UNL     1      -6.120  34.030   1.457  1.00  0.00     0.002 C 
HETATM   11  C6  UNL     1      -6.434  32.592   1.145  1.00  0.00     0.015 C 
BRANCH   8  12
HETATM   12  C2  UNL     1      -8.531  33.116   3.522  1.00  0.00     0.128 C 
HETATM   13  C1  UNL     1      -9.274  32.622   4.703  1.00  0.00     0.091 C 
HETATM   14  O1  UNL     1      -9.149  33.636   2.614  1.00  0.00    -0.298 OA
ENDBRANCH   8  12
ENDBRANCH   4   7
ENDBRANCH   2   3
BRANCH   2  15
HETATM   15  C10 UNL     1      -8.609  28.080   4.603  1.00  0.00     0.036 C 
BRANCH  15  16
HETATM   16  C11 UNL     1      -9.735  28.984   5.015  1.00  0.00    -0.020 C 
HETATM   17  C12 UNL     1     -10.512  28.546   6.220  1.00  0.00     0.009 C 
HETATM   18  C13 UNL     1     -10.719  29.018   3.833  1.00  0.00     0.009 C 
ENDBRANCH  15  16
ENDBRANCH   2  15
ENDBRANCH   1   2
BRANCH   1  19
HETATM   19  O3  UNL     1      -6.456  26.582   3.885  1.00  0.00    -0.358 OA
ATOM     20  H3  UNL     1      -5.596  26.214   3.718  1.00  0.00     0.217 HD
ENDBRANCH   1  19
BRANCH   1  21
HETATM   21  C15 UNL     1      -6.532  27.015   1.614  1.00  0.00     0.273 C 
HETATM   22  O4  UNL     1      -6.206  27.896   0.791  1.00  0.00    -0.266 OA
HETATM   23  N2  UNL     1      -6.477  25.667   1.173  1.00  0.00    -0.344 N 
ATOM     24  H2  UNL     1      -6.731  24.922   1.821  1.00  0.00     0.163 HD
BRANCH  23  25
HETATM   25  C16 UNL     1      -6.059  25.313  -0.211  1.00  0.00     0.165 C 
BRANCH  25  26
HETATM   26  C17 UNL     1      -4.808  24.523   0.001  1.00  0.00     0.037 C 
BRANCH  26  27
HETATM   27  C18 UNL     1      -3.504  25.120  -0.231  1.00  0.00    -0.020 C 
HETATM   28  C19 UNL     1      -2.947  26.118   0.690  1.00  0.00     0.009 C 
HETATM   29  C20 UNL     1      -3.488  25.742  -1.642  1.00  0.00     0.009 C 
ENDBRANCH  26  27
ENDBRANCH  25  26
BRANCH  25  30
HETATM   30  C21 UNL     1      -7.207  24.532  -0.716  1.00  0.00     0.239 C 
HETATM   31  O5  UNL     1      -7.263  23.299  -0.565  1.00  0.00    -0.285 OA
BRANCH  30  32
HETATM   32  C22 UNL     1      -8.322  25.198  -1.407  1.00  0.00     0.293 C 
HETATM   33  O6  UNL     1      -8.103  25.579  -2.590  1.00  0.00    -0.264 OA
HETATM   34  N3  UNL     1      -9.547  25.377  -0.737  1.00  0.00    -0.333 N 
ATOM     35  H3  UNL     1      -9.554  24.992   0.208  1.00  0.00     0.168 HD
BRANCH  34  36
HETATM   36  C23 UNL     1     -10.763  25.978  -1.104  1.00  0.00     0.072 C 
BRANCH  36  37
HETATM   37  C24 UNL     1     -11.271  27.158  -0.361  1.00  0.00    -0.019 C 
HETATM   38  C25 UNL     1     -11.766  28.193  -1.409  1.00  0.00     0.020 C 
HETATM   39  C26 UNL     1     -12.512  26.813   0.468  1.00  0.00     0.020 C 
HETATM   40  C27 UNL     1     -10.268  27.899   0.454  1.00  0.00     0.020 C 
ENDBRANCH  36  37
ENDBRANCH  34  36
ENDBRANCH  30  32
ENDBRANCH  25  30
ENDBRANCH  23  25
ENDBRANCH   1  21
TORSDOF 15
ENDMDL
