MODEL 1
REMARK VINA RESULT: -9.618863423      0.000      0.000
REMARK  5 active torsions:
REMARK  status: ('A' for Active; 'I' for Inactive)
REMARK    1  A    between atoms: O1_2  and  C2_3 
REMARK    2  A    between atoms: C2_3  and  C3_5 
REMARK    3  A    between atoms: C3_5  and  C4_6 
REMARK    4  A    between atoms: C6_8  and  C7_9 
REMARK    5  A    between atoms: C8_14  and  C9_15 
REMARK       I    between atoms: C9_15  and  N3_17 
REMARK       I    between atoms: N3_17  and  C10_19 
ROOT
HETATM    1  C7  UNL     1     -17.213  37.153 -11.205  1.00  0.00     0.150 A 
HETATM    2  N1  UNL     1     -18.342  37.585 -11.788  1.00  0.00    -0.282 N 
ATOM      3  H1  UNL     1     -19.231  37.087 -11.750  1.00  0.00     0.188 HD
HETATM    4  N2  UNL     1     -18.165  38.726 -12.413  1.00  0.00    -0.279 N 
ATOM      5  H2  UNL     1     -18.868  39.254 -12.929  1.00  0.00     0.189 HD
HETATM    6  C8  UNL     1     -16.877  39.062 -12.238  1.00  0.00     0.191 A 
HETATM    7  N6  UNL     1     -16.291  38.086 -11.490  1.00  0.00    -0.320 N 
ATOM      8  H6  UNL     1     -15.314  38.066 -11.195  1.00  0.00     0.169 HD
ENDROOT
BRANCH   1   9
HETATM    9  C6  UNL     1     -17.023  35.933 -10.428  1.00  0.00     0.096 A 
HETATM   10  C5  UNL     1     -17.862  35.595  -9.388  1.00  0.00     0.061 A 
HETATM   11  C4  UNL     1     -17.678  34.432  -8.650  1.00  0.00     0.038 A 
HETATM   12  N9  UNL     1     -16.655  33.637  -8.976  1.00  0.00    -0.290 N 
HETATM   13  N8  UNL     1     -15.840  33.965  -9.985  1.00  0.00    -0.242 N 
ATOM     14  H9  UNL     1     -16.494  32.776  -8.453  1.00  0.00     0.188 HD
HETATM   15  N7  UNL     1     -16.016  35.086 -10.697  1.00  0.00    -0.283 N 
ATOM     16  H8  UNL     1     -15.065  33.345 -10.218  1.00  0.00     0.208 HD
ATOM     17  H7  UNL     1     -15.372  35.300 -11.459  1.00  0.00     0.188 HD
BRANCH  11  18
HETATM   18  C3  UNL     1     -18.550  34.029  -7.529  1.00  0.00     0.169 C 
BRANCH  18  19
HETATM   19  C2  UNL     1     -18.068  34.533  -6.235  1.00  0.00     0.264 C 
HETATM   20  O2  UNL     1     -18.861  34.762  -5.290  1.00  0.00    -0.265 OA
BRANCH  19  21
HETATM   21  O1  UNL     1     -16.697  34.749  -6.098  1.00  0.00    -0.326 OA
HETATM   22  C1  UNL     1     -15.996  34.339  -4.942  1.00  0.00     0.213 C 
ENDBRANCH  19  21
ENDBRANCH  18  19
ENDBRANCH  11  18
ENDBRANCH   1   9
BRANCH   6  23
HETATM   23  C9  UNL     1     -16.253  40.261 -12.767  1.00  0.00     0.293 C 
HETATM   24  O3  UNL     1     -15.029  40.247 -13.034  1.00  0.00    -0.264 OA
HETATM   25  N3  UNL     1     -17.064  41.418 -12.967  1.00  0.00    -0.295 N 
HETATM   26  C10 UNL     1     -16.484  42.603 -13.482  1.00  0.00     0.188 C 
ATOM     27  H3  UNL     1     -18.057  41.392 -12.739  1.00  0.00     0.171 HD
HETATM   28  N4  UNL     1     -17.219  43.664 -13.667  1.00  0.00    -0.373 N 
HETATM   29  N5  UNL     1     -15.106  42.620 -13.793  1.00  0.00    -0.064 NA
ATOM     30  H42 UNL     1     -18.215  43.651 -13.442  1.00  0.00     0.158 HD
ATOM     31  H41 UNL     1     -16.802  44.517 -14.038  1.00  0.00     0.158 HD
ENDBRANCH   6  23
TORSDOF 5
ENDMDL
MODEL 2
REMARK VINA RESULT: -9.014517127      0.883      1.163
REMARK  5 active torsions:
REMARK  status: ('A' for Active; 'I' for Inactive)
REMARK    1  A    between atoms: O1_2  and  C2_3 
REMARK    2  A    between atoms: C2_3  and  C3_5 
REMARK    3  A    between atoms: C3_5  and  C4_6 
REMARK    4  A    between atoms: C6_8  and  C7_9 
REMARK    5  A    between atoms: C8_14  and  C9_15 
REMARK       I    between atoms: C9_15  and  N3_17 
REMARK       I    between atoms: N3_17  and  C10_19 
ROOT
HETATM    1  C7  UNL     1     -16.995  37.188 -11.203  1.00  0.00     0.150 A 
HETATM    2  N1  UNL     1     -18.168  37.511 -11.770  1.00  0.00    -0.282 N 
ATOM      3  H1  UNL     1     -19.009  36.938 -11.708  1.00  0.00     0.188 HD
HETATM    4  N2  UNL     1     -18.102  38.653 -12.414  1.00  0.00    -0.279 N 
ATOM      5  H2  UNL     1     -18.858  39.109 -12.925  1.00  0.00     0.189 HD
HETATM    6  C8  UNL     1     -16.846  39.103 -12.269  1.00  0.00     0.191 A 
HETATM    7  N6  UNL     1     -16.164  38.193 -11.518  1.00  0.00    -0.320 N 
ATOM      8  H6  UNL     1     -15.184  38.263 -11.242  1.00  0.00     0.169 HD
ENDROOT
BRANCH   1   9
HETATM    9  C6  UNL     1     -16.686  36.002 -10.412  1.00  0.00     0.096 A 
HETATM   10  C5  UNL     1     -17.108  35.866  -9.107  1.00  0.00     0.061 A 
HETATM   11  C4  UNL     1     -16.811  34.735  -8.357  1.00  0.00     0.038 A 
HETATM   12  N9  UNL     1     -16.097  33.767  -8.938  1.00  0.00    -0.290 N 
HETATM   13  N8  UNL     1     -15.687  33.898 -10.204  1.00  0.00    -0.242 N 
ATOM     14  H9  UNL     1     -15.863  32.924  -8.414  1.00  0.00     0.188 HD
HETATM   15  N7  UNL     1     -15.971  34.988 -10.928  1.00  0.00    -0.283 N 
ATOM     16  H8  UNL     1     -15.142  33.147 -10.629  1.00  0.00     0.208 HD
ATOM     17  H7  UNL     1     -15.639  35.049 -11.891  1.00  0.00     0.188 HD
BRANCH  11  18
HETATM   18  C3  UNL     1     -17.242  34.546  -6.957  1.00  0.00     0.169 C 
BRANCH  18  19
HETATM   19  C2  UNL     1     -16.119  34.621  -6.011  1.00  0.00     0.264 C 
HETATM   20  O2  UNL     1     -15.004  35.077  -6.360  1.00  0.00    -0.265 OA
BRANCH  19  21
HETATM   21  O1  UNL     1     -16.341  34.167  -4.711  1.00  0.00    -0.326 OA
HETATM   22  C1  UNL     1     -15.367  33.417  -4.014  1.00  0.00     0.213 C 
ENDBRANCH  19  21
ENDBRANCH  18  19
ENDBRANCH  11  18
ENDBRANCH   1   9
BRANCH   6  23
HETATM   23  C9  UNL     1     -16.339  40.342 -12.827  1.00  0.00     0.293 C 
HETATM   24  O3  UNL     1     -15.114  40.450 -13.066  1.00  0.00    -0.264 OA
HETATM   25  N3  UNL     1     -17.262  41.399 -13.086  1.00  0.00    -0.295 N 
HETATM   26  C10 UNL     1     -16.798  42.621 -13.631  1.00  0.00     0.188 C 
ATOM     27  H3  UNL     1     -18.253  41.275 -12.879  1.00  0.00     0.171 HD
HETATM   28  N4  UNL     1     -17.637  43.591 -13.869  1.00  0.00    -0.373 N 
HETATM   29  N5  UNL     1     -15.422  42.775 -13.911  1.00  0.00    -0.064 NA
ATOM     30  H42 UNL     1     -18.630  43.480 -13.667  1.00  0.00     0.158 HD
ATOM     31  H41 UNL     1     -17.303  44.471 -14.262  1.00  0.00     0.158 HD
ENDBRANCH   6  23
TORSDOF 5
ENDMDL
MODEL 3
REMARK VINA RESULT: -8.997026427      1.260      1.586
REMARK  5 active torsions:
REMARK  status: ('A' for Active; 'I' for Inactive)
REMARK    1  A    between atoms: O1_2  and  C2_3 
REMARK    2  A    between atoms: C2_3  and  C3_5 
REMARK    3  A    between atoms: C3_5  and  C4_6 
REMARK    4  A    between atoms: C6_8  and  C7_9 
REMARK    5  A    between atoms: C8_14  and  C9_15 
REMARK       I    between atoms: C9_15  and  N3_17 
REMARK       I    between atoms: N3_17  and  C10_19 
ROOT
HETATM    1  C7  UNL     1     -17.091  37.300 -11.274  1.00  0.00     0.150 A 
HETATM    2  N1  UNL     1     -18.375  37.481 -11.623  1.00  0.00    -0.282 N 
ATOM      3  H1  UNL     1     -19.125  36.829 -11.397  1.00  0.00     0.188 HD
HETATM    4  N2  UNL     1     -18.547  38.598 -12.290  1.00  0.00    -0.279 N 
ATOM      5  H2  UNL     1     -19.426  38.956 -12.663  1.00  0.00     0.189 HD
HETATM    6  C8  UNL     1     -17.340  39.178 -12.385  1.00  0.00     0.191 A 
HETATM    7  N6  UNL     1     -16.441  38.370 -11.755  1.00  0.00    -0.320 N 
ATOM      8  H6  UNL     1     -15.441  38.549 -11.664  1.00  0.00     0.169 HD
ENDROOT
BRANCH   1   9
HETATM    9  C6  UNL     1     -16.521  36.182 -10.530  1.00  0.00     0.096 A 
HETATM   10  C5  UNL     1     -16.538  36.138  -9.153  1.00  0.00     0.061 A 
HETATM   11  C4  UNL     1     -15.994  35.072  -8.448  1.00  0.00     0.038 A 
HETATM   12  N9  UNL     1     -15.445  34.074  -9.147  1.00  0.00    -0.290 N 
HETATM   13  N8  UNL     1     -15.428  34.114 -10.483  1.00  0.00    -0.242 N 
ATOM     14  H9  UNL     1     -15.038  33.276  -8.659  1.00  0.00     0.188 HD
HETATM   15  N7  UNL     1     -15.952  35.142 -11.164  1.00  0.00    -0.283 N 
ATOM     16  H8  UNL     1     -15.005  33.342 -10.998  1.00  0.00     0.208 HD
ATOM     17  H7  UNL     1     -15.918  35.135 -12.184  1.00  0.00     0.188 HD
BRANCH  11  18
HETATM   18  C3  UNL     1     -15.989  34.983  -6.974  1.00  0.00     0.169 C 
BRANCH  18  19
HETATM   19  C2  UNL     1     -17.097  34.165  -6.460  1.00  0.00     0.264 C 
HETATM   20  O2  UNL     1     -17.356  33.039  -6.950  1.00  0.00    -0.265 OA
BRANCH  19  21
HETATM   21  O1  UNL     1     -17.850  34.688  -5.410  1.00  0.00    -0.326 OA
HETATM   22  C1  UNL     1     -19.198  35.076  -5.587  1.00  0.00     0.213 C 
ENDBRANCH  19  21
ENDBRANCH  18  19
ENDBRANCH  11  18
ENDBRANCH   1   9
BRANCH   6  23
HETATM   23  C9  UNL     1     -17.076  40.440 -13.050  1.00  0.00     0.293 C 
HETATM   24  O3  UNL     1     -17.449  40.596 -14.237  1.00  0.00    -0.264 OA
HETATM   25  N3  UNL     1     -16.398  41.463 -12.324  1.00  0.00    -0.295 N 
HETATM   26  C10 UNL     1     -16.126  42.706 -12.945  1.00  0.00     0.188 C 
ATOM     27  H3  UNL     1     -16.110  41.300 -11.359  1.00  0.00     0.171 HD
HETATM   28  N4  UNL     1     -15.507  43.645 -12.287  1.00  0.00    -0.373 N 
HETATM   29  N5  UNL     1     -16.533  42.914 -14.282  1.00  0.00    -0.064 NA
ATOM     30  H42 UNL     1     -15.213  43.495 -11.321  1.00  0.00     0.158 HD
ATOM     31  H41 UNL     1     -15.311  44.541 -12.734  1.00  0.00     0.158 HD
ENDBRANCH   6  23
TORSDOF 5
ENDMDL
MODEL 4
REMARK VINA RESULT: -8.985488162      2.048      3.186
REMARK  5 active torsions:
REMARK  status: ('A' for Active; 'I' for Inactive)
REMARK    1  A    between atoms: O1_2  and  C2_3 
REMARK    2  A    between atoms: C2_3  and  C3_5 
REMARK    3  A    between atoms: C3_5  and  C4_6 
REMARK    4  A    between atoms: C6_8  and  C7_9 
REMARK    5  A    between atoms: C8_14  and  C9_15 
REMARK       I    between atoms: C9_15  and  N3_17 
REMARK       I    between atoms: N3_17  and  C10_19 
ROOT
HETATM    1  C7  UNL     1     -16.782  35.526  -9.641  1.00  0.00     0.150 A 
HETATM    2  N1  UNL     1     -16.008  35.049 -10.629  1.00  0.00    -0.282 N 
ATOM      3  H1  UNL     1     -15.508  34.161 -10.585  1.00  0.00     0.188 HD
HETATM    4  N2  UNL     1     -15.973  35.862 -11.659  1.00  0.00    -0.279 N 
ATOM      5  H2  UNL     1     -15.457  35.723 -12.528  1.00  0.00     0.189 HD
HETATM    6  C8  UNL     1     -16.748  36.912 -11.345  1.00  0.00     0.191 A 
HETATM    7  N6  UNL     1     -17.247  36.700 -10.095  1.00  0.00    -0.320 N 
ATOM      8  H6  UNL     1     -17.871  37.329  -9.588  1.00  0.00     0.169 HD
ENDROOT
BRANCH   1   9
HETATM    9  C6  UNL     1     -17.060  34.906  -8.351  1.00  0.00     0.096 A 
HETATM   10  C5  UNL     1     -16.288  35.162  -7.238  1.00  0.00     0.061 A 
HETATM   11  C4  UNL     1     -16.556  34.569  -6.011  1.00  0.00     0.038 A 
HETATM   12  N9  UNL     1     -17.596  33.733  -5.932  1.00  0.00    -0.290 N 
HETATM   13  N8  UNL     1     -18.345  33.484  -7.011  1.00  0.00    -0.242 N 
ATOM     14  H9  UNL     1     -17.818  33.282  -5.044  1.00  0.00     0.188 HD
HETATM   15  N7  UNL     1     -18.088  34.054  -8.195  1.00  0.00    -0.283 N 
ATOM     16  H8  UNL     1     -19.134  32.843  -6.930  1.00  0.00     0.208 HD
ATOM     17  H7  UNL     1     -18.683  33.837  -8.994  1.00  0.00     0.188 HD
BRANCH  11  18
HETATM   18  C3  UNL     1     -15.758  34.813  -4.793  1.00  0.00     0.169 C 
BRANCH  18  19
HETATM   19  C2  UNL     1     -15.329  33.564  -4.145  1.00  0.00     0.264 C 
HETATM   20  O2  UNL     1     -15.415  32.462  -4.738  1.00  0.00    -0.265 OA
BRANCH  19  21
HETATM   21  O1  UNL     1     -14.826  33.652  -2.848  1.00  0.00    -0.326 OA
HETATM   22  C1  UNL     1     -14.205  32.548  -2.220  1.00  0.00     0.213 C 
ENDBRANCH  19  21
ENDBRANCH  18  19
ENDBRANCH  11  18
ENDBRANCH   1   9
BRANCH   6  23
HETATM   23  C9  UNL     1     -16.989  38.052 -12.209  1.00  0.00     0.293 C 
HETATM   24  O3  UNL     1     -17.692  37.905 -13.236  1.00  0.00    -0.264 OA
HETATM   25  N3  UNL     1     -16.412  39.308 -11.854  1.00  0.00    -0.295 N 
HETATM   26  C10 UNL     1     -16.629  40.440 -12.677  1.00  0.00     0.188 C 
ATOM     27  H3  UNL     1     -15.846  39.390 -11.010  1.00  0.00     0.171 HD
HETATM   28  N4  UNL     1     -16.105  41.590 -12.359  1.00  0.00    -0.373 N 
HETATM   29  N5  UNL     1     -17.417  40.307 -13.842  1.00  0.00    -0.064 NA
ATOM     30  H42 UNL     1     -15.535  41.687 -11.518  1.00  0.00     0.158 HD
ATOM     31  H41 UNL     1     -16.261  42.406 -12.951  1.00  0.00     0.158 HD
ENDBRANCH   6  23
TORSDOF 5
ENDMDL
MODEL 5
REMARK VINA RESULT: -8.823315916      1.410      1.699
REMARK  5 active torsions:
REMARK  status: ('A' for Active; 'I' for Inactive)
REMARK    1  A    between atoms: O1_2  and  C2_3 
REMARK    2  A    between atoms: C2_3  and  C3_5 
REMARK    3  A    between atoms: C3_5  and  C4_6 
REMARK    4  A    between atoms: C6_8  and  C7_9 
REMARK    5  A    between atoms: C8_14  and  C9_15 
REMARK       I    between atoms: C9_15  and  N3_17 
REMARK       I    between atoms: N3_17  and  C10_19 
ROOT
HETATM    1  C7  UNL     1     -17.566  37.102 -10.643  1.00  0.00     0.150 A 
HETATM    2  N1  UNL     1     -18.366  37.148 -11.720  1.00  0.00    -0.282 N 
ATOM      3  H1  UNL     1     -19.112  36.478 -11.906  1.00  0.00     0.188 HD
HETATM    4  N2  UNL     1     -18.073  38.159 -12.505  1.00  0.00    -0.279 N 
ATOM      5  H2  UNL     1     -18.535  38.405 -13.380  1.00  0.00     0.189 HD
HETATM    6  C8  UNL     1     -17.047  38.805 -11.930  1.00  0.00     0.191 A 
HETATM    7  N6  UNL     1     -16.736  38.148 -10.777  1.00  0.00    -0.320 N 
ATOM      8  H6  UNL     1     -15.995  38.407 -10.126  1.00  0.00     0.169 HD
ENDROOT
BRANCH   1   9
HETATM    9  C6  UNL     1     -17.590  36.129  -9.558  1.00  0.00     0.096 A 
HETATM   10  C5  UNL     1     -16.511  35.946  -8.718  1.00  0.00     0.061 A 
HETATM   11  C4  UNL     1     -16.538  35.017  -7.686  1.00  0.00     0.038 A 
HETATM   12  N9  UNL     1     -17.650  34.294  -7.521  1.00  0.00    -0.290 N 
HETATM   13  N8  UNL     1     -18.696  34.470  -8.335  1.00  0.00    -0.242 N 
ATOM     14  H9  UNL     1     -17.700  33.604  -6.772  1.00  0.00     0.188 HD
HETATM   15  N7  UNL     1     -18.672  35.365  -9.331  1.00  0.00    -0.283 N 
ATOM     16  H8  UNL     1     -19.535  33.909  -8.192  1.00  0.00     0.208 HD
ATOM     17  H7  UNL     1     -19.491  35.468  -9.930  1.00  0.00     0.188 HD
BRANCH  11  18
HETATM   18  C3  UNL     1     -15.409  34.788  -6.763  1.00  0.00     0.169 C 
BRANCH  18  19
HETATM   19  C2  UNL     1     -15.855  34.527  -5.387  1.00  0.00     0.264 C 
HETATM   20  O2  UNL     1     -17.040  34.741  -5.036  1.00  0.00    -0.265 OA
BRANCH  19  21
HETATM   21  O1  UNL     1     -14.911  34.035  -4.486  1.00  0.00    -0.326 OA
HETATM   22  C1  UNL     1     -15.134  32.845  -3.757  1.00  0.00     0.213 C 
ENDBRANCH  19  21
ENDBRANCH  18  19
ENDBRANCH  11  18
ENDBRANCH   1   9
BRANCH   6  23
HETATM   23  C9  UNL     1     -16.407  39.990 -12.470  1.00  0.00     0.293 C 
HETATM   24  O3  UNL     1     -15.157  40.027 -12.552  1.00  0.00    -0.264 OA
HETATM   25  N3  UNL     1     -17.230  41.076 -12.890  1.00  0.00    -0.295 N 
HETATM   26  C10 UNL     1     -16.635  42.246 -13.421  1.00  0.00     0.188 C 
ATOM     27  H3  UNL     1     -18.245  41.010 -12.809  1.00  0.00     0.171 HD
HETATM   28  N4  UNL     1     -17.382  43.243 -13.808  1.00  0.00    -0.373 N 
HETATM   29  N5  UNL     1     -15.228  42.319 -13.527  1.00  0.00    -0.064 NA
ATOM     30  H42 UNL     1     -18.398  43.190 -13.731  1.00  0.00     0.158 HD
ATOM     31  H41 UNL     1     -16.954  44.086 -14.191  1.00  0.00     0.158 HD
ENDBRANCH   6  23
TORSDOF 5
ENDMDL
