MODEL 1
REMARK VINA RESULT: -9.067390037      0.000      0.000
REMARK  12 active torsions:
REMARK  status: ('A' for Active; 'I' for Inactive)
REMARK    1  A    between atoms: C2_2  and  C4_4 
REMARK    2  A    between atoms: C4_4  and  O1_5 
REMARK    3  A    between atoms: C4_4  and  C5_7 
REMARK    4  A    between atoms: C5_7  and  N1_8 
REMARK    5  A    between atoms: N1_8  and  C6_10 
REMARK    6  A    between atoms: C6_10  and  C7_11 
REMARK    7  A    between atoms: C6_10  and  N4_33 
REMARK    8  A    between atoms: C7_11  and  C8_12 
REMARK    9  A    between atoms: C7_11  and  C18_26 
REMARK   10  A    between atoms: C8_12  and  C9_13 
REMARK       I    between atoms: C9_13  and  N2_15 
REMARK   11  A    between atoms: N2_15  and  C10_17 
REMARK   12  A    between atoms: C18_26  and  C19_27 
ROOT
HETATM    1  C10 UNL     1      31.716  40.183  40.251  1.00  0.00     0.126 C 
HETATM    2  C11 UNL     1      31.292  38.793  40.028  1.00  0.00     0.091 C 
HETATM    3  N3  UNL     1      30.940  37.705  39.860  1.00  0.00    -0.195 NA
HETATM    4  C12 UNL     1      33.229  40.103  40.519  1.00  0.00     0.051 C 
HETATM    5  C13 UNL     1      33.414  40.346  41.978  1.00  0.00    -0.011 C 
HETATM    6  C14 UNL     1      33.263  41.834  42.206  1.00  0.00     0.005 C 
HETATM    7  C15 UNL     1      31.814  42.074  41.791  1.00  0.00     0.009 C 
HETATM    8  C16 UNL     1      31.214  40.709  41.554  1.00  0.00     0.029 C 
HETATM    9  C17 UNL     1      32.058  39.874  42.534  1.00  0.00     0.012 C 
ENDROOT
BRANCH   1  10
HETATM   10  N2  UNL     1      31.451  41.006  39.114  1.00  0.00    -0.335 N 
HETATM   11  C9  UNL     1      30.103  41.453  38.829  1.00  0.00     0.243 C 
HETATM   12  O2  UNL     1      29.157  41.094  39.609  1.00  0.00    -0.269 OA
ATOM     13  H2  UNL     1      32.216  41.282  38.499  1.00  0.00     0.164 HD
BRANCH  11  14
HETATM   14  C8  UNL     1      29.851  42.290  37.672  1.00  0.00     0.088 C 
BRANCH  14  15
HETATM   15  C7  UNL     1      30.038  41.804  36.296  1.00  0.00     0.004 C 
BRANCH  15  16
HETATM   16  C6  UNL     1      28.984  41.150  35.546  1.00  0.00     0.087 C 
BRANCH  16  17
HETATM   17  N1  UNL     1      28.051  41.669  34.673  1.00  0.00    -0.378 N 
ATOM     18  H1  UNL     1      27.087  41.661  35.006  1.00  0.00     0.160 HD
BRANCH  17  19
HETATM   19  C5  UNL     1      28.240  42.195  33.413  1.00  0.00     0.153 C 
BRANCH  19  20
HETATM   20  C4  UNL     1      27.420  41.331  32.424  1.00  0.00     0.139 C 
BRANCH  20  21
HETATM   21  C2  UNL     1      27.622  41.829  31.020  1.00  0.00     0.008 C 
HETATM   22  C1  UNL     1      28.123  40.683  30.174  1.00  0.00     0.012 C 
HETATM   23  C3  UNL     1      28.661  42.931  30.999  1.00  0.00     0.012 C 
ENDBRANCH  20  21
BRANCH  20  24
HETATM   24  O1  UNL     1      26.090  41.505  32.774  1.00  0.00    -0.394 OA
ATOM     25  H1  UNL     1      25.582  40.786  32.416  1.00  0.00     0.210 HD
ENDBRANCH  20  24
ENDBRANCH  19  20
ENDBRANCH  17  19
ENDBRANCH  16  17
BRANCH  16  26
HETATM   26  N4  UNL     1      28.229  40.206  36.489  1.00  0.00    -0.277 NA
HETATM   27  C25 UNL     1      29.050  38.979  36.400  1.00  0.00     0.118 C 
HETATM   28  C26 UNL     1      26.963  39.849  35.873  1.00  0.00     0.118 C 
ENDBRANCH  16  26
ENDBRANCH  15  16
BRANCH  15  29
HETATM   29  C18 UNL     1      30.906  42.794  35.539  1.00  0.00    -0.007 C 
BRANCH  29  30
HETATM   30  C19 UNL     1      30.683  44.214  35.492  1.00  0.00     0.009 C 
HETATM   31  C20 UNL     1      29.398  44.888  35.326  1.00  0.00     0.008 C 
HETATM   32  C21 UNL     1      29.616  46.410  35.509  1.00  0.00     0.001 C 
HETATM   33  C22 UNL     1      31.039  46.810  35.417  1.00  0.00     0.000 C 
HETATM   34  C23 UNL     1      31.807  46.120  34.318  1.00  0.00     0.001 C 
HETATM   35  C24 UNL     1      31.520  44.668  34.227  1.00  0.00     0.008 C 
ENDBRANCH  29  30
ENDBRANCH  15  29
ENDBRANCH  14  15
ENDBRANCH  11  14
ENDBRANCH   1  10
TORSDOF 12
ENDMDL
MODEL 2
REMARK VINA RESULT: -8.979710411      2.342      8.529
REMARK  12 active torsions:
REMARK  status: ('A' for Active; 'I' for Inactive)
REMARK    1  A    between atoms: C2_2  and  C4_4 
REMARK    2  A    between atoms: C4_4  and  O1_5 
REMARK    3  A    between atoms: C4_4  and  C5_7 
REMARK    4  A    between atoms: C5_7  and  N1_8 
REMARK    5  A    between atoms: N1_8  and  C6_10 
REMARK    6  A    between atoms: C6_10  and  C7_11 
REMARK    7  A    between atoms: C6_10  and  N4_33 
REMARK    8  A    between atoms: C7_11  and  C8_12 
REMARK    9  A    between atoms: C7_11  and  C18_26 
REMARK   10  A    between atoms: C8_12  and  C9_13 
REMARK       I    between atoms: C9_13  and  N2_15 
REMARK   11  A    between atoms: N2_15  and  C10_17 
REMARK   12  A    between atoms: C18_26  and  C19_27 
ROOT
HETATM    1  C10 UNL     1      29.823  44.282  34.960  1.00  0.00     0.126 C 
HETATM    2  C11 UNL     1      29.432  43.340  33.902  1.00  0.00     0.091 C 
HETATM    3  N3  UNL     1      29.144  42.591  33.070  1.00  0.00    -0.195 NA
HETATM    4  C12 UNL     1      28.984  45.546  34.702  1.00  0.00     0.051 C 
HETATM    5  C13 UNL     1      29.918  46.568  34.148  1.00  0.00    -0.011 C 
HETATM    6  C14 UNL     1      30.723  47.113  35.308  1.00  0.00     0.005 C 
HETATM    7  C15 UNL     1      31.483  45.875  35.777  1.00  0.00     0.009 C 
HETATM    8  C16 UNL     1      31.207  44.800  34.753  1.00  0.00     0.029 C 
HETATM    9  C17 UNL     1      30.992  45.673  33.503  1.00  0.00     0.012 C 
ENDROOT
BRANCH   1  10
HETATM   10  N2  UNL     1      29.553  43.758  36.261  1.00  0.00    -0.335 N 
HETATM   11  C9  UNL     1      30.173  42.526  36.701  1.00  0.00     0.243 C 
HETATM   12  O2  UNL     1      30.963  41.915  35.903  1.00  0.00    -0.269 OA
ATOM     13  H2  UNL     1      28.919  44.256  36.886  1.00  0.00     0.164 HD
BRANCH  11  14
HETATM   14  C8  UNL     1      29.890  42.009  38.026  1.00  0.00     0.088 C 
BRANCH  14  15
HETATM   15  C7  UNL     1      30.128  40.603  38.387  1.00  0.00     0.004 C 
BRANCH  15  16
HETATM   16  C6  UNL     1      31.164  40.198  39.316  1.00  0.00     0.087 C 
BRANCH  16  17
HETATM   17  N1  UNL     1      31.483  40.678  40.568  1.00  0.00    -0.378 N 
ATOM     18  H1  UNL     1      32.385  41.149  40.641  1.00  0.00     0.160 HD
BRANCH  17  19
HETATM   19  C5  UNL     1      30.753  40.611  41.737  1.00  0.00     0.153 C 
BRANCH  19  20
HETATM   20  C4  UNL     1      31.739  40.827  42.910  1.00  0.00     0.139 C 
BRANCH  20  21
HETATM   21  C2  UNL     1      32.585  39.599  43.102  1.00  0.00     0.008 C 
HETATM   22  C1  UNL     1      32.168  38.927  44.387  1.00  0.00     0.012 C 
HETATM   23  C3  UNL     1      34.046  39.982  43.213  1.00  0.00     0.012 C 
ENDBRANCH  20  21
BRANCH  20  24
HETATM   24  O1  UNL     1      30.958  41.014  44.039  1.00  0.00    -0.394 OA
ATOM     25  H1  UNL     1      31.396  41.626  44.619  1.00  0.00     0.210 HD
ENDBRANCH  20  24
ENDBRANCH  19  20
ENDBRANCH  17  19
ENDBRANCH  16  17
BRANCH  16  26
HETATM   26  N4  UNL     1      32.483  40.062  38.546  1.00  0.00    -0.277 NA
HETATM   27  C25 UNL     1      32.369  38.692  38.002  1.00  0.00     0.118 C 
HETATM   28  C26 UNL     1      33.573  39.989  39.503  1.00  0.00     0.118 C 
ENDBRANCH  16  26
ENDBRANCH  15  16
BRANCH  15  29
HETATM   29  C18 UNL     1      28.791  39.891  38.497  1.00  0.00    -0.007 C 
BRANCH  29  30
HETATM   30  C19 UNL     1      28.500  38.598  37.939  1.00  0.00     0.009 C 
HETATM   31  C20 UNL     1      29.044  37.317  38.381  1.00  0.00     0.008 C 
HETATM   32  C21 UNL     1      28.321  36.186  37.611  1.00  0.00     0.001 C 
HETATM   33  C22 UNL     1      27.593  36.668  36.415  1.00  0.00     0.000 C 
HETATM   34  C23 UNL     1      28.342  37.698  35.607  1.00  0.00     0.001 C 
HETATM   35  C24 UNL     1      29.000  38.730  36.443  1.00  0.00     0.008 C 
ENDBRANCH  29  30
ENDBRANCH  15  29
ENDBRANCH  14  15
ENDBRANCH  11  14
ENDBRANCH   1  10
TORSDOF 12
ENDMDL
MODEL 3
REMARK VINA RESULT: -8.862945953      1.177      1.569
REMARK  12 active torsions:
REMARK  status: ('A' for Active; 'I' for Inactive)
REMARK    1  A    between atoms: C2_2  and  C4_4 
REMARK    2  A    between atoms: C4_4  and  O1_5 
REMARK    3  A    between atoms: C4_4  and  C5_7 
REMARK    4  A    between atoms: C5_7  and  N1_8 
REMARK    5  A    between atoms: N1_8  and  C6_10 
REMARK    6  A    between atoms: C6_10  and  C7_11 
REMARK    7  A    between atoms: C6_10  and  N4_33 
REMARK    8  A    between atoms: C7_11  and  C8_12 
REMARK    9  A    between atoms: C7_11  and  C18_26 
REMARK   10  A    between atoms: C8_12  and  C9_13 
REMARK       I    between atoms: C9_13  and  N2_15 
REMARK   11  A    between atoms: N2_15  and  C10_17 
REMARK   12  A    between atoms: C18_26  and  C19_27 
ROOT
HETATM    1  C10 UNL     1      31.637  40.118  40.908  1.00  0.00     0.126 C 
HETATM    2  C11 UNL     1      31.447  38.707  40.543  1.00  0.00     0.091 C 
HETATM    3  N3  UNL     1      31.280  37.598  40.266  1.00  0.00    -0.195 NA
HETATM    4  C12 UNL     1      33.161  40.308  40.998  1.00  0.00     0.051 C 
HETATM    5  C13 UNL     1      33.490  40.415  42.448  1.00  0.00    -0.011 C 
HETATM    6  C14 UNL     1      33.102  41.808  42.894  1.00  0.00     0.005 C 
HETATM    7  C15 UNL     1      31.592  41.803  42.674  1.00  0.00     0.009 C 
HETATM    8  C16 UNL     1      31.224  40.383  42.317  1.00  0.00     0.029 C 
HETATM    9  C17 UNL     1      32.328  39.624  43.077  1.00  0.00     0.012 C 
ENDROOT
BRANCH   1  10
HETATM   10  N2  UNL     1      31.079  40.998  39.931  1.00  0.00    -0.335 N 
HETATM   11  C9  UNL     1      29.653  41.002  39.675  1.00  0.00     0.243 C 
HETATM   12  O2  UNL     1      28.906  40.205  40.337  1.00  0.00    -0.269 OA
ATOM     13  H2  UNL     1      31.688  41.627  39.409  1.00  0.00     0.164 HD
BRANCH  11  14
HETATM   14  C8  UNL     1      29.103  41.903  38.680  1.00  0.00     0.088 C 
BRANCH  14  15
HETATM   15  C7  UNL     1      29.592  41.934  37.294  1.00  0.00     0.004 C 
BRANCH  15  16
HETATM   16  C6  UNL     1      29.159  40.983  36.289  1.00  0.00     0.087 C 
BRANCH  16  17
HETATM   17  N1  UNL     1      28.077  41.011  35.436  1.00  0.00    -0.378 N 
ATOM     18  H1  UNL     1      27.203  40.657  35.824  1.00  0.00     0.160 HD
BRANCH  17  19
HETATM   19  C5  UNL     1      28.012  41.449  34.130  1.00  0.00     0.153 C 
BRANCH  19  20
HETATM   20  C4  UNL     1      26.964  40.573  33.400  1.00  0.00     0.139 C 
BRANCH  20  21
HETATM   21  C2  UNL     1      26.376  41.334  32.244  1.00  0.00     0.008 C 
HETATM   22  C1  UNL     1      26.092  40.360  31.127  1.00  0.00     0.012 C 
HETATM   23  C3  UNL     1      27.363  42.366  31.741  1.00  0.00     0.012 C 
ENDBRANCH  20  21
BRANCH  20  24
HETATM   24  O1  UNL     1      25.964  40.320  34.326  1.00  0.00    -0.394 OA
ATOM     25  H1  UNL     1      25.194  40.006  33.867  1.00  0.00     0.210 HD
ENDBRANCH  20  24
ENDBRANCH  19  20
ENDBRANCH  17  19
ENDBRANCH  16  17
BRANCH  16  26
HETATM   26  N4  UNL     1      29.205  39.576  36.899  1.00  0.00    -0.277 NA
HETATM   27  C25 UNL     1      30.637  39.239  36.760  1.00  0.00     0.118 C 
HETATM   28  C26 UNL     1      28.521  38.660  36.002  1.00  0.00     0.118 C 
ENDBRANCH  16  26
ENDBRANCH  15  16
BRANCH  15  29
HETATM   29  C18 UNL     1      29.730  43.381  36.854  1.00  0.00    -0.007 C 
BRANCH  29  30
HETATM   30  C19 UNL     1      29.936  43.811  35.497  1.00  0.00     0.009 C 
HETATM   31  C20 UNL     1      31.071  43.478  34.641  1.00  0.00     0.008 C 
HETATM   32  C21 UNL     1      30.785  44.013  33.217  1.00  0.00     0.001 C 
HETATM   33  C22 UNL     1      29.688  45.007  33.177  1.00  0.00     0.000 C 
HETATM   34  C23 UNL     1      29.715  46.004  34.308  1.00  0.00     0.001 C 
HETATM   35  C24 UNL     1      30.003  45.387  35.625  1.00  0.00     0.008 C 
ENDBRANCH  29  30
ENDBRANCH  15  29
ENDBRANCH  14  15
ENDBRANCH  11  14
ENDBRANCH   1  10
TORSDOF 12
ENDMDL
MODEL 4
REMARK VINA RESULT: -8.786976558      1.342      1.917
REMARK  12 active torsions:
REMARK  status: ('A' for Active; 'I' for Inactive)
REMARK    1  A    between atoms: C2_2  and  C4_4 
REMARK    2  A    between atoms: C4_4  and  O1_5 
REMARK    3  A    between atoms: C4_4  and  C5_7 
REMARK    4  A    between atoms: C5_7  and  N1_8 
REMARK    5  A    between atoms: N1_8  and  C6_10 
REMARK    6  A    between atoms: C6_10  and  C7_11 
REMARK    7  A    between atoms: C6_10  and  N4_33 
REMARK    8  A    between atoms: C7_11  and  C8_12 
REMARK    9  A    between atoms: C7_11  and  C18_26 
REMARK   10  A    between atoms: C8_12  and  C9_13 
REMARK       I    between atoms: C9_13  and  N2_15 
REMARK   11  A    between atoms: N2_15  and  C10_17 
REMARK   12  A    between atoms: C18_26  and  C19_27 
ROOT
HETATM    1  C10 UNL     1      32.197  40.792  41.115  1.00  0.00     0.126 C 
HETATM    2  C11 UNL     1      33.226  40.132  40.299  1.00  0.00     0.091 C 
HETATM    3  N3  UNL     1      34.024  39.596  39.657  1.00  0.00    -0.195 NA
HETATM    4  C12 UNL     1      32.964  41.798  41.991  1.00  0.00     0.051 C 
HETATM    5  C13 UNL     1      32.977  41.234  43.372  1.00  0.00    -0.011 C 
HETATM    6  C14 UNL     1      31.607  41.477  43.966  1.00  0.00     0.005 C 
HETATM    7  C15 UNL     1      30.711  40.651  43.047  1.00  0.00     0.009 C 
HETATM    8  C16 UNL     1      31.639  39.870  42.147  1.00  0.00     0.029 C 
HETATM    9  C17 UNL     1      32.855  39.727  43.080  1.00  0.00     0.012 C 
ENDROOT
BRANCH   1  10
HETATM   10  N2  UNL     1      31.231  41.465  40.307  1.00  0.00    -0.335 N 
HETATM   11  C9  UNL     1      30.312  40.711  39.479  1.00  0.00     0.243 C 
HETATM   12  O2  UNL     1      30.384  39.436  39.484  1.00  0.00    -0.269 OA
ATOM     13  H2  UNL     1      31.188  42.484  40.312  1.00  0.00     0.164 HD
BRANCH  11  14
HETATM   14  C8  UNL     1      29.336  41.411  38.666  1.00  0.00     0.088 C 
BRANCH  14  15
HETATM   15  C7  UNL     1      29.499  41.575  37.214  1.00  0.00     0.004 C 
BRANCH  15  16
HETATM   16  C6  UNL     1      28.723  40.822  36.248  1.00  0.00     0.087 C 
BRANCH  16  17
HETATM   17  N1  UNL     1      27.802  41.244  35.313  1.00  0.00    -0.378 N 
ATOM     18  H1  UNL     1      26.851  41.366  35.658  1.00  0.00     0.160 HD
BRANCH  17  19
HETATM   19  C5  UNL     1      27.989  41.525  33.976  1.00  0.00     0.153 C 
BRANCH  19  20
HETATM   20  C4  UNL     1      27.097  40.550  33.170  1.00  0.00     0.139 C 
BRANCH  20  21
HETATM   21  C2  UNL     1      27.229  40.830  31.699  1.00  0.00     0.008 C 
HETATM   22  C1  UNL     1      27.688  42.257  31.523  1.00  0.00     0.012 C 
HETATM   23  C3  UNL     1      25.889  40.670  31.013  1.00  0.00     0.012 C 
ENDBRANCH  20  21
BRANCH  20  24
HETATM   24  O1  UNL     1      25.793  40.811  33.561  1.00  0.00    -0.394 OA
ATOM     25  H1  UNL     1      25.794  41.088  34.469  1.00  0.00     0.210 HD
ENDBRANCH  20  24
ENDBRANCH  19  20
ENDBRANCH  17  19
ENDBRANCH  16  17
BRANCH  16  26
HETATM   26  N4  UNL     1      28.107  39.610  36.957  1.00  0.00    -0.277 NA
HETATM   27  C25 UNL     1      28.555  38.499  36.089  1.00  0.00     0.118 C 
HETATM   28  C26 UNL     1      26.666  39.655  36.786  1.00  0.00     0.118 C 
ENDBRANCH  16  26
ENDBRANCH  15  16
BRANCH  15  29
HETATM   29  C18 UNL     1      29.734  43.044  36.909  1.00  0.00    -0.007 C 
BRANCH  29  30
HETATM   30  C19 UNL     1      29.956  43.586  35.595  1.00  0.00     0.009 C 
HETATM   31  C20 UNL     1      31.097  43.318  34.725  1.00  0.00     0.008 C 
HETATM   32  C21 UNL     1      30.828  43.973  33.348  1.00  0.00     0.001 C 
HETATM   33  C22 UNL     1      29.738  44.974  33.383  1.00  0.00     0.000 C 
HETATM   34  C23 UNL     1      29.759  45.873  34.593  1.00  0.00     0.001 C 
HETATM   35  C24 UNL     1      30.030  45.145  35.856  1.00  0.00     0.008 C 
ENDBRANCH  29  30
ENDBRANCH  15  29
ENDBRANCH  14  15
ENDBRANCH  11  14
ENDBRANCH   1  10
TORSDOF 12
ENDMDL
MODEL 5
REMARK VINA RESULT: -8.755973541      0.994      1.194
REMARK  12 active torsions:
REMARK  status: ('A' for Active; 'I' for Inactive)
REMARK    1  A    between atoms: C2_2  and  C4_4 
REMARK    2  A    between atoms: C4_4  and  O1_5 
REMARK    3  A    between atoms: C4_4  and  C5_7 
REMARK    4  A    between atoms: C5_7  and  N1_8 
REMARK    5  A    between atoms: N1_8  and  C6_10 
REMARK    6  A    between atoms: C6_10  and  C7_11 
REMARK    7  A    between atoms: C6_10  and  N4_33 
REMARK    8  A    between atoms: C7_11  and  C8_12 
REMARK    9  A    between atoms: C7_11  and  C18_26 
REMARK   10  A    between atoms: C8_12  and  C9_13 
REMARK       I    between atoms: C9_13  and  N2_15 
REMARK   11  A    between atoms: N2_15  and  C10_17 
REMARK   12  A    between atoms: C18_26  and  C19_27 
ROOT
HETATM    1  C10 UNL     1      31.360  40.241  40.856  1.00  0.00     0.126 C 
HETATM    2  C11 UNL     1      31.260  38.871  40.333  1.00  0.00     0.091 C 
HETATM    3  N3  UNL     1      31.167  37.790  39.936  1.00  0.00    -0.195 NA
HETATM    4  C12 UNL     1      32.813  40.669  40.586  1.00  0.00     0.051 C 
HETATM    5  C13 UNL     1      33.511  40.657  41.904  1.00  0.00    -0.011 C 
HETATM    6  C14 UNL     1      33.085  41.904  42.647  1.00  0.00     0.005 C 
HETATM    7  C15 UNL     1      31.586  41.675  42.819  1.00  0.00     0.009 C 
HETATM    8  C16 UNL     1      31.320  40.265  42.348  1.00  0.00     0.029 C 
HETATM    9  C17 UNL     1      32.677  39.616  42.673  1.00  0.00     0.012 C 
ENDROOT
BRANCH   1  10
HETATM   10  N2  UNL     1      30.448  41.125  40.204  1.00  0.00    -0.335 N 
HETATM   11  C9  UNL     1      30.541  41.356  38.777  1.00  0.00     0.243 C 
HETATM   12  O2  UNL     1      31.455  40.758  38.115  1.00  0.00    -0.269 OA
ATOM     13  H2  UNL     1      29.725  41.597  40.747  1.00  0.00     0.164 HD
BRANCH  11  14
HETATM   14  C8  UNL     1      29.605  42.256  38.130  1.00  0.00     0.088 C 
BRANCH  14  15
HETATM   15  C7  UNL     1      29.504  42.362  36.667  1.00  0.00     0.004 C 
BRANCH  15  16
HETATM   16  C6  UNL     1      28.864  41.350  35.850  1.00  0.00     0.087 C 
BRANCH  16  17
HETATM   17  N1  UNL     1      27.981  41.472  34.799  1.00  0.00    -0.378 N 
ATOM     18  H1  UNL     1      27.002  41.590  35.061  1.00  0.00     0.160 HD
BRANCH  17  19
HETATM   19  C5  UNL     1      28.236  41.457  33.444  1.00  0.00     0.153 C 
BRANCH  19  20
HETATM   20  C4  UNL     1      26.957  41.955  32.728  1.00  0.00     0.139 C 
BRANCH  20  21
HETATM   21  C2  UNL     1      27.116  41.818  31.239  1.00  0.00     0.008 C 
HETATM   22  C1  UNL     1      26.674  40.432  30.838  1.00  0.00     0.012 C 
HETATM   23  C3  UNL     1      28.570  41.989  30.850  1.00  0.00     0.012 C 
ENDBRANCH  20  21
BRANCH  20  24
HETATM   24  O1  UNL     1      26.839  43.300  33.044  1.00  0.00    -0.394 OA
ATOM     25  H1  UNL     1      27.486  43.518  33.704  1.00  0.00     0.210 HD
ENDBRANCH  20  24
ENDBRANCH  19  20
ENDBRANCH  17  19
ENDBRANCH  16  17
BRANCH  16  26
HETATM   26  N4  UNL     1      28.303  40.262  36.774  1.00  0.00    -0.277 NA
HETATM   27  C25 UNL     1      28.952  39.049  36.234  1.00  0.00     0.118 C 
HETATM   28  C26 UNL     1      26.891  40.087  36.481  1.00  0.00     0.118 C 
ENDBRANCH  16  26
ENDBRANCH  15  16
BRANCH  15  29
HETATM   29  C18 UNL     1      29.237  43.811  36.297  1.00  0.00    -0.007 C 
BRANCH  29  30
HETATM   30  C19 UNL     1      30.178  44.678  35.641  1.00  0.00     0.009 C 
HETATM   31  C20 UNL     1      30.174  46.138  35.657  1.00  0.00     0.008 C 
HETATM   32  C21 UNL     1      31.466  46.640  34.968  1.00  0.00     0.001 C 
HETATM   33  C22 UNL     1      32.143  45.595  34.167  1.00  0.00     0.000 C 
HETATM   34  C23 UNL     1      31.208  44.731  33.359  1.00  0.00     0.001 C 
HETATM   35  C24 UNL     1      30.002  44.311  34.112  1.00  0.00     0.008 C 
ENDBRANCH  29  30
ENDBRANCH  15  29
ENDBRANCH  14  15
ENDBRANCH  11  14
ENDBRANCH   1  10
TORSDOF 12
ENDMDL
