MODEL 1
REMARK VINA RESULT: -7.062671787      0.000      0.000
REMARK  5 active torsions:
REMARK  status: ('A' for Active; 'I' for Inactive)
REMARK       I    between atoms: N3_4  and  C2_6 
REMARK    1  A    between atoms: C2_6  and  C3_8 
REMARK    2  A    between atoms: C3_8  and  N4_9 
REMARK    3  A    between atoms: C5_11  and  C6_12 
REMARK    4  A    between atoms: C6_12  and  N5_13 
REMARK    5  A    between atoms: C6_12  and  N6_17 
ROOT
HETATM    1  N4  UNL     1      67.231  29.405  50.784  1.00  0.00    -0.300 N 
HETATM    2  C4  UNL     1      67.263  29.196  52.119  1.00  0.00     0.113 A 
HETATM    3  C5  UNL     1      66.651  28.087  52.708  1.00  0.00     0.083 A 
HETATM    4  C7  UNL     1      66.005  27.192  51.910  1.00  0.00     0.260 A 
HETATM    5  O2  UNL     1      65.465  26.206  52.455  1.00  0.00    -0.267 OA
HETATM    6  N7  UNL     1      65.983  27.416  50.586  1.00  0.00    -0.275 N 
ATOM      7  H7  UNL     1      65.502  26.752  49.978  1.00  0.00     0.173 HD
HETATM    8  C8  UNL     1      66.586  28.504  50.034  1.00  0.00     0.329 A 
HETATM    9  O3  UNL     1      66.541  28.670  48.802  1.00  0.00    -0.246 OA
ENDROOT
BRANCH   3  10
HETATM   10  C6  UNL     1      66.715  27.902  54.181  1.00  0.00     0.417 C 
BRANCH  10  11
HETATM   11  N5  UNL     1      65.379  27.996  54.723  1.00  0.00    -0.046 N 
ATOM     12  H53 UNL     1      65.110  28.959  54.927  1.00  0.00     0.277 HD
ATOM     13  H52 UNL     1      64.662  27.793  54.027  1.00  0.00     0.277 HD
ATOM     14  H51 UNL     1      65.310  27.391  55.541  1.00  0.00     0.277 HD
ENDBRANCH  10  11
BRANCH  10  15
HETATM   15  N6  UNL     1      67.269  26.605  54.517  1.00  0.00    -0.046 N 
ATOM     16  H63 UNL     1      66.662  25.845  54.210  1.00  0.00     0.277 HD
ATOM     17  H62 UNL     1      68.089  26.387  53.950  1.00  0.00     0.277 HD
ATOM     18  H61 UNL     1      67.474  26.543  55.514  1.00  0.00     0.277 HD
ENDBRANCH  10  15
ENDBRANCH   3  10
BRANCH   1  19
HETATM   19  C3  UNL     1      67.898  30.589  50.284  1.00  0.00     0.236 C 
BRANCH  19  20
HETATM   20  C2  UNL     1      66.950  31.510  49.606  1.00  0.00     0.242 C 
HETATM   21  N3  UNL     1      67.056  31.828  48.233  1.00  0.00    -0.302 N 
HETATM   22  C1  UNL     1      66.060  32.243  47.546  1.00  0.00     0.203 C 
ATOM     23  H3  UNL     1      67.960  31.724  47.773  1.00  0.00     0.171 HD
HETATM   24  N1  UNL     1      64.807  32.392  48.167  1.00  0.00    -0.066 NA
HETATM   25  N2  UNL     1      66.168  32.560  46.162  1.00  0.00    -0.066 NA
HETATM   26  O1  UNL     1      66.047  31.980  50.362  1.00  0.00    -0.271 OA
ENDBRANCH  19  20
ENDBRANCH   1  19
TORSDOF 5
ENDMDL
MODEL 2
REMARK VINA RESULT: -6.822042105      2.379      3.072
REMARK  5 active torsions:
REMARK  status: ('A' for Active; 'I' for Inactive)
REMARK       I    between atoms: N3_4  and  C2_6 
REMARK    1  A    between atoms: C2_6  and  C3_8 
REMARK    2  A    between atoms: C3_8  and  N4_9 
REMARK    3  A    between atoms: C5_11  and  C6_12 
REMARK    4  A    between atoms: C6_12  and  N5_13 
REMARK    5  A    between atoms: C6_12  and  N6_17 
ROOT
HETATM    1  N4  UNL     1      67.749  26.635  50.660  1.00  0.00    -0.300 N 
HETATM    2  C4  UNL     1      67.022  27.144  51.679  1.00  0.00     0.113 A 
HETATM    3  C5  UNL     1      66.985  26.535  52.936  1.00  0.00     0.083 A 
HETATM    4  C7  UNL     1      67.704  25.396  53.136  1.00  0.00     0.260 A 
HETATM    5  O2  UNL     1      67.660  24.866  54.266  1.00  0.00    -0.267 OA
HETATM    6  N7  UNL     1      68.421  24.905  52.112  1.00  0.00    -0.275 N 
ATOM      7  H7  UNL     1      68.964  24.052  52.250  1.00  0.00     0.173 HD
HETATM    8  C8  UNL     1      68.442  25.515  50.895  1.00  0.00     0.329 A 
HETATM    9  O3  UNL     1      69.121  25.024  49.976  1.00  0.00    -0.246 OA
ENDROOT
BRANCH   3  10
HETATM   10  C6  UNL     1      66.169  27.133  54.024  1.00  0.00     0.417 C 
BRANCH  10  11
HETATM   11  N5  UNL     1      65.963  28.533  53.740  1.00  0.00    -0.046 N 
ATOM     12  H53 UNL     1      65.404  28.997  54.457  1.00  0.00     0.277 HD
ATOM     13  H52 UNL     1      66.816  29.082  53.848  1.00  0.00     0.277 HD
ATOM     14  H51 UNL     1      65.557  28.626  52.809  1.00  0.00     0.277 HD
ENDBRANCH  10  11
BRANCH  10  15
HETATM   15  N6  UNL     1      64.880  26.478  54.126  1.00  0.00    -0.046 N 
ATOM     16  H63 UNL     1      64.128  27.149  54.280  1.00  0.00     0.277 HD
ATOM     17  H62 UNL     1      64.574  26.106  53.227  1.00  0.00     0.277 HD
ATOM     18  H61 UNL     1      64.893  25.756  54.847  1.00  0.00     0.277 HD
ENDBRANCH  10  15
ENDBRANCH   3  10
BRANCH   1  19
HETATM   19  C3  UNL     1      67.712  27.348  49.401  1.00  0.00     0.236 C 
BRANCH  19  20
HETATM   20  C2  UNL     1      67.241  28.746  49.573  1.00  0.00     0.242 C 
HETATM   21  N3  UNL     1      65.904  29.130  49.319  1.00  0.00    -0.302 N 
HETATM   22  C1  UNL     1      65.377  30.169  49.848  1.00  0.00     0.203 C 
ATOM     23  H3  UNL     1      65.339  28.558  48.692  1.00  0.00     0.171 HD
HETATM   24  N1  UNL     1      66.144  30.968  50.715  1.00  0.00    -0.066 NA
HETATM   25  N2  UNL     1      64.030  30.553  49.594  1.00  0.00    -0.066 NA
HETATM   26  O1  UNL     1      68.136  29.555  49.964  1.00  0.00    -0.271 OA
ENDBRANCH  19  20
ENDBRANCH   1  19
TORSDOF 5
ENDMDL
MODEL 3
REMARK VINA RESULT: -6.760280656      0.907      1.014
REMARK  5 active torsions:
REMARK  status: ('A' for Active; 'I' for Inactive)
REMARK       I    between atoms: N3_4  and  C2_6 
REMARK    1  A    between atoms: C2_6  and  C3_8 
REMARK    2  A    between atoms: C3_8  and  N4_9 
REMARK    3  A    between atoms: C5_11  and  C6_12 
REMARK    4  A    between atoms: C6_12  and  N5_13 
REMARK    5  A    between atoms: C6_12  and  N6_17 
ROOT
HETATM    1  N4  UNL     1      67.365  29.061  50.483  1.00  0.00    -0.300 N 
HETATM    2  C4  UNL     1      67.134  28.630  51.743  1.00  0.00     0.113 A 
HETATM    3  C5  UNL     1      66.584  27.373  52.004  1.00  0.00     0.083 A 
HETATM    4  C7  UNL     1      66.275  26.559  50.957  1.00  0.00     0.260 A 
HETATM    5  O2  UNL     1      65.786  25.439  51.211  1.00  0.00    -0.267 OA
HETATM    6  N7  UNL     1      66.512  27.003  49.712  1.00  0.00    -0.275 N 
ATOM      7  H7  UNL     1      66.284  26.403  48.919  1.00  0.00     0.173 HD
HETATM    8  C8  UNL     1      67.048  28.233  49.480  1.00  0.00     0.329 A 
HETATM    9  O3  UNL     1      67.250  28.602  48.310  1.00  0.00    -0.246 OA
ENDROOT
BRANCH   3  10
HETATM   10  C6  UNL     1      66.348  26.946  53.408  1.00  0.00     0.417 C 
BRANCH  10  11
HETATM   11  N5  UNL     1      66.770  28.004  54.297  1.00  0.00    -0.046 N 
ATOM     12  H53 UNL     1      67.218  27.646  55.141  1.00  0.00     0.277 HD
ATOM     13  H52 UNL     1      67.561  28.530  53.927  1.00  0.00     0.277 HD
ATOM     14  H51 UNL     1      65.969  28.600  54.504  1.00  0.00     0.277 HD
ENDBRANCH  10  11
BRANCH  10  15
HETATM   15  N6  UNL     1      64.943  26.670  53.637  1.00  0.00    -0.046 N 
ATOM     16  H63 UNL     1      64.628  25.858  53.107  1.00  0.00     0.277 HD
ATOM     17  H62 UNL     1      64.778  26.314  54.579  1.00  0.00     0.277 HD
ATOM     18  H61 UNL     1      64.373  27.492  53.440  1.00  0.00     0.277 HD
ENDBRANCH  10  15
ENDBRANCH   3  10
BRANCH   1  19
HETATM   19  C3  UNL     1      67.936  30.381  50.329  1.00  0.00     0.236 C 
BRANCH  19  20
HETATM   20  C2  UNL     1      66.951  31.347  49.778  1.00  0.00     0.242 C 
HETATM   21  N3  UNL     1      66.973  31.761  48.426  1.00  0.00    -0.302 N 
HETATM   22  C1  UNL     1      65.937  32.221  47.833  1.00  0.00     0.203 C 
ATOM     23  H3  UNL     1      67.847  31.690  47.904  1.00  0.00     0.171 HD
HETATM   24  N1  UNL     1      64.726  32.326  48.540  1.00  0.00    -0.066 NA
HETATM   25  N2  UNL     1      65.960  32.635  46.471  1.00  0.00    -0.066 NA
HETATM   26  O1  UNL     1      66.098  31.762  50.619  1.00  0.00    -0.271 OA
ENDBRANCH  19  20
ENDBRANCH   1  19
TORSDOF 5
ENDMDL
MODEL 4
REMARK VINA RESULT: -6.578002575      1.767      2.556
REMARK  5 active torsions:
REMARK  status: ('A' for Active; 'I' for Inactive)
REMARK       I    between atoms: N3_4  and  C2_6 
REMARK    1  A    between atoms: C2_6  and  C3_8 
REMARK    2  A    between atoms: C3_8  and  N4_9 
REMARK    3  A    between atoms: C5_11  and  C6_12 
REMARK    4  A    between atoms: C6_12  and  N5_13 
REMARK    5  A    between atoms: C6_12  and  N6_17 
ROOT
HETATM    1  N4  UNL     1      67.088  28.566  50.266  1.00  0.00    -0.300 N 
HETATM    2  C4  UNL     1      66.690  27.401  50.823  1.00  0.00     0.113 A 
HETATM    3  C5  UNL     1      66.517  27.263  52.202  1.00  0.00     0.083 A 
HETATM    4  C7  UNL     1      66.757  28.336  53.006  1.00  0.00     0.260 A 
HETATM    5  O2  UNL     1      66.595  28.194  54.236  1.00  0.00    -0.267 OA
HETATM    6  N7  UNL     1      67.151  29.486  52.435  1.00  0.00    -0.275 N 
ATOM      7  H7  UNL     1      67.333  30.297  53.026  1.00  0.00     0.173 HD
HETATM    8  C8  UNL     1      67.313  29.598  51.088  1.00  0.00     0.329 A 
HETATM    9  O3  UNL     1      67.680  30.683  50.603  1.00  0.00    -0.246 OA
ENDROOT
BRANCH   3  10
HETATM   10  C6  UNL     1      66.078  25.960  52.767  1.00  0.00     0.417 C 
BRANCH  10  11
HETATM   11  N5  UNL     1      67.109  25.460  53.646  1.00  0.00    -0.046 N 
ATOM     12  H53 UNL     1      67.795  24.887  53.154  1.00  0.00     0.277 HD
ATOM     13  H52 UNL     1      67.739  26.195  53.965  1.00  0.00     0.277 HD
ATOM     14  H51 UNL     1      66.670  24.961  54.420  1.00  0.00     0.277 HD
ENDBRANCH  10  11
BRANCH  10  15
HETATM   15  N6  UNL     1      64.848  26.109  53.519  1.00  0.00    -0.046 N 
ATOM     16  H63 UNL     1      64.977  25.872  54.502  1.00  0.00     0.277 HD
ATOM     17  H62 UNL     1      64.590  27.090  53.630  1.00  0.00     0.277 HD
ATOM     18  H61 UNL     1      64.094  25.567  53.097  1.00  0.00     0.277 HD
ENDBRANCH  10  15
ENDBRANCH   3  10
BRANCH   1  19
HETATM   19  C3  UNL     1      67.236  28.594  48.827  1.00  0.00     0.236 C 
BRANCH  19  20
HETATM   20  C2  UNL     1      66.431  29.680  48.210  1.00  0.00     0.242 C 
HETATM   21  N3  UNL     1      65.114  29.976  48.631  1.00  0.00    -0.302 N 
HETATM   22  C1  UNL     1      64.576  31.122  48.444  1.00  0.00     0.203 C 
ATOM     23  H3  UNL     1      64.573  29.250  49.100  1.00  0.00     0.171 HD
HETATM   24  N1  UNL     1      65.310  32.132  47.797  1.00  0.00    -0.066 NA
HETATM   25  N2  UNL     1      63.251  31.419  48.870  1.00  0.00    -0.066 NA
HETATM   26  O1  UNL     1      67.025  30.310  47.284  1.00  0.00    -0.271 OA
ENDBRANCH  19  20
ENDBRANCH   1  19
TORSDOF 5
ENDMDL
MODEL 5
REMARK VINA RESULT: -6.456012325      2.842      3.844
REMARK  5 active torsions:
REMARK  status: ('A' for Active; 'I' for Inactive)
REMARK       I    between atoms: N3_4  and  C2_6 
REMARK    1  A    between atoms: C2_6  and  C3_8 
REMARK    2  A    between atoms: C3_8  and  N4_9 
REMARK    3  A    between atoms: C5_11  and  C6_12 
REMARK    4  A    between atoms: C6_12  and  N5_13 
REMARK    5  A    between atoms: C6_12  and  N6_17 
ROOT
HETATM    1  N4  UNL     1      66.754  25.820  50.779  1.00  0.00    -0.300 N 
HETATM    2  C4  UNL     1      66.608  26.898  51.581  1.00  0.00     0.113 A 
HETATM    3  C5  UNL     1      66.728  26.806  52.970  1.00  0.00     0.083 A 
HETATM    4  C7  UNL     1      67.000  25.593  53.528  1.00  0.00     0.260 A 
HETATM    5  O2  UNL     1      67.105  25.531  54.771  1.00  0.00    -0.267 OA
HETATM    6  N7  UNL     1      67.142  24.534  52.715  1.00  0.00    -0.275 N 
ATOM      7  H7  UNL     1      67.347  23.620  53.121  1.00  0.00     0.173 HD
HETATM    8  C8  UNL     1      67.021  24.647  51.364  1.00  0.00     0.329 A 
HETATM    9  O3  UNL     1      67.161  23.638  50.650  1.00  0.00    -0.246 OA
ENDROOT
BRANCH   3  10
HETATM   10  C6  UNL     1      66.558  28.020  53.810  1.00  0.00     0.417 C 
BRANCH  10  11
HETATM   11  N5  UNL     1      66.213  29.134  52.958  1.00  0.00    -0.046 N 
ATOM     12  H53 UNL     1      65.239  29.106  52.658  1.00  0.00     0.277 HD
ATOM     13  H52 UNL     1      66.179  30.017  53.468  1.00  0.00     0.277 HD
ATOM     14  H51 UNL     1      66.862  29.164  52.172  1.00  0.00     0.277 HD
ENDBRANCH  10  11
BRANCH  10  15
HETATM   15  N6  UNL     1      65.505  27.831  54.788  1.00  0.00    -0.046 N 
ATOM     16  H63 UNL     1      65.223  28.714  55.212  1.00  0.00     0.277 HD
ATOM     17  H62 UNL     1      64.620  27.581  54.346  1.00  0.00     0.277 HD
ATOM     18  H61 UNL     1      65.780  27.146  55.493  1.00  0.00     0.277 HD
ENDBRANCH  10  15
ENDBRANCH   3  10
BRANCH   1  19
HETATM   19  C3  UNL     1      66.607  26.032  49.355  1.00  0.00     0.236 C 
BRANCH  19  20
HETATM   20  C2  UNL     1      67.178  27.335  48.929  1.00  0.00     0.242 C 
HETATM   21  N3  UNL     1      68.568  27.536  48.767  1.00  0.00    -0.302 N 
HETATM   22  C1  UNL     1      69.045  28.457  48.018  1.00  0.00     0.203 C 
ATOM     23  H3  UNL     1      69.214  26.924  49.265  1.00  0.00     0.171 HD
HETATM   24  N1  UNL     1      68.166  29.309  47.325  1.00  0.00    -0.066 NA
HETATM   25  N2  UNL     1      70.446  28.655  47.853  1.00  0.00    -0.066 NA
HETATM   26  O1  UNL     1      66.315  28.242  48.726  1.00  0.00    -0.271 OA
ENDBRANCH  19  20
ENDBRANCH   1  19
TORSDOF 5
ENDMDL
