MODEL 1
REMARK VINA RESULT: -7.011324696      0.000      0.000
REMARK  4 active torsions:
REMARK  status: ('A' for Active; 'I' for Inactive)
REMARK    1  A    between atoms: N1_2  and  C2_4 
REMARK    2  A    between atoms: C3_6  and  C4_7 
REMARK    3  A    between atoms: C4_7  and  C5_8 
REMARK    4  A    between atoms: C15_21  and  N2_22 
ROOT
HETATM    1  C2  UNL     1       0.840   6.737  22.350  1.00  0.00     0.255 C 
HETATM    2  O1  UNL     1       2.206   6.757  22.407  1.00  0.00    -0.357 OA
HETATM    3  C3  UNL     1       2.843   5.581  22.113  1.00  0.00     0.143 C 
HETATM    4  C6  UNL     1       2.314   4.827  20.932  1.00  0.00     0.056 C 
HETATM    5  C7  UNL     1       0.780   4.740  20.972  1.00  0.00     0.054 C 
HETATM    6  C8  UNL     1       0.319   6.169  21.055  1.00  0.00     0.108 C 
HETATM    7  C9  UNL     1      -1.175   6.255  20.973  1.00  0.00     0.051 C 
HETATM    8  O4  UNL     1       0.875   6.914  20.013  1.00  0.00    -0.335 OA
HETATM    9  C10 UNL     1       1.906   6.511  19.187  1.00  0.00     0.088 A 
HETATM   10  C11 UNL     1       2.174   7.137  17.979  1.00  0.00     0.010 A 
HETATM   11  C12 UNL     1       3.212   6.683  17.206  1.00  0.00     0.087 A 
HETATM   12  C13 UNL     1       3.984   5.610  17.629  1.00  0.00    -0.001 A 
HETATM   13  C14 UNL     1       5.107   5.135  16.784  1.00  0.00     0.054 C 
HETATM   14  C15 UNL     1       3.697   4.996  18.847  1.00  0.00     0.047 A 
HETATM   15  C18 UNL     1       2.659   5.441  19.633  1.00  0.00     0.010 A 
HETATM   16  O5  UNL     1       3.475   7.312  16.001  1.00  0.00    -0.340 OA
HETATM   17  C19 UNL     1       2.590   8.215  15.370  1.00  0.00     0.061 C 
HETATM   18  C20 UNL     1       3.210   9.594  15.495  1.00  0.00     0.046 C 
HETATM   19  C21 UNL     1       2.460   7.870  13.895  1.00  0.00     0.046 C 
HETATM   20  C22 UNL     1       1.238   8.128  15.999  1.00  0.00     0.042 C 
HETATM   21  C23 UNL     1       1.377   8.283  17.493  1.00  0.00     0.047 C 
ENDROOT
BRANCH   3  22
HETATM   22  C4  UNL     1       2.879   4.631  23.301  1.00  0.00     0.146 C 
BRANCH  22  23
HETATM   23  C5  UNL     1       4.262   4.223  23.627  1.00  0.00     0.175 C 
HETATM   24  O2  UNL     1       5.260   4.984  23.503  1.00  0.00    -0.648 OA
HETATM   25  O3  UNL     1       4.476   2.934  24.100  1.00  0.00    -0.648 OA
ENDBRANCH  22  23
ENDBRANCH   3  22
BRANCH   1  26
HETATM   26  N1  UNL     1       0.398   8.105  22.393  1.00  0.00    -0.380 N 
HETATM   27  C1  UNL     1      -0.229   8.609  23.374  1.00  0.00     0.114 C 
ATOM     28  H1  UNL     1       0.598   8.703  21.591  1.00  0.00     0.160 HD
ENDBRANCH   1  26
BRANCH  14  29
HETATM   29  N2  UNL     1       4.485   3.893  19.249  1.00  0.00    -0.389 N 
HETATM   30  C16 UNL     1       5.685   4.044  20.062  1.00  0.00     0.149 C 
HETATM   31  C17 UNL     1       4.108   2.554  18.865  1.00  0.00     0.149 C 
ENDBRANCH  14  29
TORSDOF 4
ENDMDL
MODEL 2
REMARK VINA RESULT: -6.993711206      3.128      4.774
REMARK  4 active torsions:
REMARK  status: ('A' for Active; 'I' for Inactive)
REMARK    1  A    between atoms: N1_2  and  C2_4 
REMARK    2  A    between atoms: C3_6  and  C4_7 
REMARK    3  A    between atoms: C4_7  and  C5_8 
REMARK    4  A    between atoms: C15_21  and  N2_22 
ROOT
HETATM    1  C2  UNL     1       2.740   1.621  23.901  1.00  0.00     0.255 C 
HETATM    2  O1  UNL     1       3.679   2.473  24.411  1.00  0.00    -0.357 OA
HETATM    3  C3  UNL     1       4.787   2.690  23.637  1.00  0.00     0.143 C 
HETATM    4  C6  UNL     1       4.534   2.901  22.177  1.00  0.00     0.056 C 
HETATM    5  C7  UNL     1       3.555   1.851  21.627  1.00  0.00     0.054 C 
HETATM    6  C8  UNL     1       2.334   1.978  22.494  1.00  0.00     0.108 C 
HETATM    7  C9  UNL     1       1.228   1.096  21.996  1.00  0.00     0.051 C 
HETATM    8  O4  UNL     1       1.888   3.301  22.506  1.00  0.00    -0.335 OA
HETATM    9  C10 UNL     1       2.588   4.397  22.040  1.00  0.00     0.088 A 
HETATM   10  C11 UNL     1       1.970   5.607  21.765  1.00  0.00     0.010 A 
HETATM   11  C12 UNL     1       2.725   6.655  21.302  1.00  0.00     0.087 A 
HETATM   12  C13 UNL     1       4.090   6.503  21.111  1.00  0.00    -0.001 A 
HETATM   13  C14 UNL     1       4.894   7.648  20.615  1.00  0.00     0.054 C 
HETATM   14  C15 UNL     1       4.691   5.278  21.394  1.00  0.00     0.047 A 
HETATM   15  C18 UNL     1       3.946   4.219  21.860  1.00  0.00     0.010 A 
HETATM   16  O5  UNL     1       2.102   7.861  21.030  1.00  0.00    -0.340 OA
HETATM   17  C19 UNL     1       0.701   8.024  20.931  1.00  0.00     0.061 C 
HETATM   18  C20 UNL     1       0.265   8.805  22.157  1.00  0.00     0.046 C 
HETATM   19  C21 UNL     1       0.359   8.832  19.690  1.00  0.00     0.046 C 
HETATM   20  C22 UNL     1       0.039   6.690  20.828  1.00  0.00     0.042 C 
HETATM   21  C23 UNL     1       0.517   5.810  21.956  1.00  0.00     0.047 C 
ENDROOT
BRANCH   3  22
HETATM   22  C4  UNL     1       5.819   1.581  23.782  1.00  0.00     0.146 C 
BRANCH  22  23
HETATM   23  C5  UNL     1       6.909   1.970  24.701  1.00  0.00     0.175 C 
HETATM   24  O2  UNL     1       7.749   1.153  25.169  1.00  0.00    -0.648 OA
HETATM   25  O3  UNL     1       7.020   3.306  25.068  1.00  0.00    -0.648 OA
ENDBRANCH  22  23
ENDBRANCH   3  22
BRANCH   1  26
HETATM   26  N1  UNL     1       1.557   1.767  24.708  1.00  0.00    -0.380 N 
HETATM   27  C1  UNL     1       1.084   0.840  25.433  1.00  0.00     0.114 C 
ATOM     28  H1  UNL     1       1.073   2.665  24.696  1.00  0.00     0.160 HD
ENDBRANCH   1  26
BRANCH  14  29
HETATM   29  N2  UNL     1       6.081   5.141  21.175  1.00  0.00    -0.389 N 
HETATM   30  C16 UNL     1       7.067   5.410  22.213  1.00  0.00     0.149 C 
HETATM   31  C17 UNL     1       6.574   4.711  19.887  1.00  0.00     0.149 C 
ENDBRANCH  14  29
TORSDOF 4
ENDMDL
MODEL 3
REMARK VINA RESULT: -6.596591642      1.725      4.344
REMARK  4 active torsions:
REMARK  status: ('A' for Active; 'I' for Inactive)
REMARK    1  A    between atoms: N1_2  and  C2_4 
REMARK    2  A    between atoms: C3_6  and  C4_7 
REMARK    3  A    between atoms: C4_7  and  C5_8 
REMARK    4  A    between atoms: C15_21  and  N2_22 
ROOT
HETATM    1  C2  UNL     1       4.708   4.464  20.592  1.00  0.00     0.255 C 
HETATM    2  O1  UNL     1       3.360   4.242  20.648  1.00  0.00    -0.357 OA
HETATM    3  C3  UNL     1       2.611   5.205  21.268  1.00  0.00     0.143 C 
HETATM    4  C6  UNL     1       2.959   6.622  20.933  1.00  0.00     0.056 C 
HETATM    5  C7  UNL     1       4.478   6.848  20.989  1.00  0.00     0.054 C 
HETATM    6  C8  UNL     1       5.050   5.827  20.045  1.00  0.00     0.108 C 
HETATM    7  C9  UNL     1       6.531   6.007  19.894  1.00  0.00     0.051 C 
HETATM    8  O4  UNL     1       4.448   5.942  18.791  1.00  0.00    -0.335 OA
HETATM    9  C10 UNL     1       3.311   6.670  18.499  1.00  0.00     0.088 A 
HETATM   10  C11 UNL     1       2.969   7.020  17.203  1.00  0.00     0.010 A 
HETATM   11  C12 UNL     1       1.827   7.748  16.985  1.00  0.00     0.087 A 
HETATM   12  C13 UNL     1       1.025   8.128  18.051  1.00  0.00    -0.001 A 
HETATM   13  C14 UNL     1      -0.211   8.910  17.799  1.00  0.00     0.054 C 
HETATM   14  C15 UNL     1       1.388   7.765  19.347  1.00  0.00     0.047 A 
HETATM   15  C18 UNL     1       2.530   7.035  19.580  1.00  0.00     0.010 A 
HETATM   16  O5  UNL     1       1.490   8.095  15.687  1.00  0.00    -0.340 OA
HETATM   17  C19 UNL     1       2.371   7.993  14.587  1.00  0.00     0.061 C 
HETATM   18  C20 UNL     1       1.871   6.844  13.732  1.00  0.00     0.046 C 
HETATM   19  C21 UNL     1       2.324   9.271  13.765  1.00  0.00     0.046 C 
HETATM   20  C22 UNL     1       3.769   7.791  15.070  1.00  0.00     0.042 C 
HETATM   21  C23 UNL     1       3.796   6.634  16.039  1.00  0.00     0.047 C 
ENDROOT
BRANCH   3  22
HETATM   22  C4  UNL     1       2.624   5.063  22.783  1.00  0.00     0.146 C 
BRANCH  22  23
HETATM   23  C5  UNL     1       2.559   3.645  23.196  1.00  0.00     0.175 C 
HETATM   24  O2  UNL     1       3.441   3.085  23.903  1.00  0.00    -0.648 OA
HETATM   25  O3  UNL     1       1.467   2.888  22.789  1.00  0.00    -0.648 OA
ENDBRANCH  22  23
ENDBRANCH   3  22
BRANCH   1  26
HETATM   26  N1  UNL     1       5.252   3.511  19.662  1.00  0.00    -0.380 N 
HETATM   27  C1  UNL     1       4.711   2.393  19.406  1.00  0.00     0.114 C 
ATOM     28  H1  UNL     1       6.122   3.747  19.183  1.00  0.00     0.160 HD
ENDBRANCH   1  26
BRANCH  14  29
HETATM   29  N2  UNL     1       0.565   8.179  20.420  1.00  0.00    -0.389 N 
HETATM   30  C16 UNL     1       0.718   9.475  21.068  1.00  0.00     0.149 C 
HETATM   31  C17 UNL     1      -0.482   7.313  20.908  1.00  0.00     0.149 C 
ENDBRANCH  14  29
TORSDOF 4
ENDMDL
MODEL 4
REMARK VINA RESULT: -6.352866885      1.490      1.795
REMARK  4 active torsions:
REMARK  status: ('A' for Active; 'I' for Inactive)
REMARK    1  A    between atoms: N1_2  and  C2_4 
REMARK    2  A    between atoms: C3_6  and  C4_7 
REMARK    3  A    between atoms: C4_7  and  C5_8 
REMARK    4  A    between atoms: C15_21  and  N2_22 
ROOT
HETATM    1  C2  UNL     1       1.667   7.728  21.214  1.00  0.00     0.255 C 
HETATM    2  O1  UNL     1       3.018   7.859  21.046  1.00  0.00    -0.357 OA
HETATM    3  C3  UNL     1       3.722   6.699  20.862  1.00  0.00     0.143 C 
HETATM    4  C6  UNL     1       3.108   5.702  19.928  1.00  0.00     0.056 C 
HETATM    5  C7  UNL     1       1.613   5.511  20.228  1.00  0.00     0.054 C 
HETATM    6  C8  UNL     1       1.026   6.892  20.136  1.00  0.00     0.108 C 
HETATM    7  C9  UNL     1      -0.466   6.851  20.280  1.00  0.00     0.051 C 
HETATM    8  O4  UNL     1       1.347   7.470  18.906  1.00  0.00    -0.335 OA
HETATM    9  C10 UNL     1       2.284   6.998  18.007  1.00  0.00     0.088 A 
HETATM   10  C11 UNL     1       2.311   7.406  16.683  1.00  0.00     0.010 A 
HETATM   11  C12 UNL     1       3.268   6.894  15.844  1.00  0.00     0.087 A 
HETATM   12  C13 UNL     1       4.196   5.979  16.316  1.00  0.00    -0.001 A 
HETATM   13  C14 UNL     1       5.229   5.439  15.397  1.00  0.00     0.054 C 
HETATM   14  C15 UNL     1       4.152   5.582  17.651  1.00  0.00     0.047 A 
HETATM   15  C18 UNL     1       3.198   6.088  18.505  1.00  0.00     0.010 A 
HETATM   16  O5  UNL     1       3.289   7.306  14.522  1.00  0.00    -0.340 OA
HETATM   17  C19 UNL     1       2.235   8.008  13.894  1.00  0.00     0.061 C 
HETATM   18  C20 UNL     1       2.724   9.428  13.679  1.00  0.00     0.046 C 
HETATM   19  C21 UNL     1       1.930   7.387  12.541  1.00  0.00     0.046 C 
HETATM   20  C22 UNL     1       1.004   7.940  14.736  1.00  0.00     0.042 C 
HETATM   21  C23 UNL     1       1.339   8.380  16.140  1.00  0.00     0.047 C 
ENDROOT
BRANCH   3  22
HETATM   22  C4  UNL     1       4.026   5.992  22.174  1.00  0.00     0.146 C 
BRANCH  22  23
HETATM   23  C5  UNL     1       5.452   6.115  22.540  1.00  0.00     0.175 C 
HETATM   24  O2  UNL     1       5.989   5.459  23.474  1.00  0.00    -0.648 OA
HETATM   25  O3  UNL     1       6.247   6.995  21.816  1.00  0.00    -0.648 OA
ENDBRANCH  22  23
ENDBRANCH   3  22
BRANCH   1  26
HETATM   26  N1  UNL     1       1.099   9.044  21.090  1.00  0.00    -0.380 N 
HETATM   27  C1  UNL     1       0.503   9.642  22.037  1.00  0.00     0.114 C 
ATOM     28  H1  UNL     1       1.180   9.522  20.193  1.00  0.00     0.160 HD
ENDBRANCH   1  26
BRANCH  14  29
HETATM   29  N2  UNL     1       5.097   4.635  18.106  1.00  0.00    -0.389 N 
HETATM   30  C16 UNL     1       6.367   5.022  18.707  1.00  0.00     0.149 C 
HETATM   31  C17 UNL     1       4.820   3.222  17.995  1.00  0.00     0.149 C 
ENDBRANCH  14  29
TORSDOF 4
ENDMDL
MODEL 5
REMARK VINA RESULT: -6.026804448      3.685      7.931
REMARK  4 active torsions:
REMARK  status: ('A' for Active; 'I' for Inactive)
REMARK    1  A    between atoms: N1_2  and  C2_4 
REMARK    2  A    between atoms: C3_6  and  C4_7 
REMARK    3  A    between atoms: C4_7  and  C5_8 
REMARK    4  A    between atoms: C15_21  and  N2_22 
ROOT
HETATM    1  C2  UNL     1       7.295   2.798  24.444  1.00  0.00     0.255 C 
HETATM    2  O1  UNL     1       6.594   3.954  24.641  1.00  0.00    -0.357 OA
HETATM    3  C3  UNL     1       6.172   4.609  23.515  1.00  0.00     0.143 C 
HETATM    4  C6  UNL     1       5.594   3.748  22.435  1.00  0.00     0.056 C 
HETATM    5  C7  UNL     1       6.477   2.517  22.176  1.00  0.00     0.054 C 
HETATM    6  C8  UNL     1       6.592   1.842  23.514  1.00  0.00     0.108 C 
HETATM    7  C9  UNL     1       7.327   0.541  23.397  1.00  0.00     0.051 C 
HETATM    8  O4  UNL     1       5.321   1.599  24.041  1.00  0.00    -0.335 OA
HETATM    9  C10 UNL     1       4.135   2.129  23.574  1.00  0.00     0.088 A 
HETATM   10  C11 UNL     1       2.902   1.592  23.910  1.00  0.00     0.010 A 
HETATM   11  C12 UNL     1       1.762   2.167  23.407  1.00  0.00     0.087 A 
HETATM   12  C13 UNL     1       1.844   3.273  22.574  1.00  0.00    -0.001 A 
HETATM   13  C14 UNL     1       0.601   3.887  22.044  1.00  0.00     0.054 C 
HETATM   14  C15 UNL     1       3.094   3.797  22.250  1.00  0.00     0.047 A 
HETATM   15  C18 UNL     1       4.245   3.231  22.746  1.00  0.00     0.010 A 
HETATM   16  O5  UNL     1       0.533   1.626  23.747  1.00  0.00    -0.340 OA
HETATM   17  C19 UNL     1       0.366   0.360  24.352  1.00  0.00     0.061 C 
HETATM   18  C20 UNL     1      -0.067   0.614  25.784  1.00  0.00     0.046 C 
HETATM   19  C21 UNL     1      -0.731  -0.415  23.641  1.00  0.00     0.046 C 
HETATM   20  C22 UNL     1       1.635  -0.421  24.261  1.00  0.00     0.042 C 
HETATM   21  C23 UNL     1       2.771   0.415  24.796  1.00  0.00     0.047 C 
ENDROOT
BRANCH   3  22
HETATM   22  C4  UNL     1       7.269   5.465  22.900  1.00  0.00     0.146 C 
BRANCH  22  23
HETATM   23  C5  UNL     1       6.729   6.391  21.883  1.00  0.00     0.175 C 
HETATM   24  O2  UNL     1       6.201   7.502  22.164  1.00  0.00    -0.648 OA
HETATM   25  O3  UNL     1       6.810   6.025  20.545  1.00  0.00    -0.648 OA
ENDBRANCH  22  23
ENDBRANCH   3  22
BRANCH   1  26
HETATM   26  N1  UNL     1       7.376   2.132  25.716  1.00  0.00    -0.380 N 
HETATM   27  C1  UNL     1       8.459   1.973  26.357  1.00  0.00     0.114 C 
ATOM     28  H1  UNL     1       6.515   1.768  26.126  1.00  0.00     0.160 HD
ENDBRANCH   1  26
BRANCH  14  29
HETATM   29  N2  UNL     1       3.154   4.913  21.384  1.00  0.00    -0.389 N 
HETATM   30  C16 UNL     1       3.014   6.282  21.861  1.00  0.00     0.149 C 
HETATM   31  C17 UNL     1       3.370   4.723  19.969  1.00  0.00     0.149 C 
ENDBRANCH  14  29
TORSDOF 4
ENDMDL
