MODEL 1
REMARK VINA RESULT: -7.060899332      0.000      0.000
REMARK  6 active torsions:
REMARK  status: ('A' for Active; 'I' for Inactive)
REMARK    1  A    between atoms: S1_2  and  C2_5 
REMARK    2  A    between atoms: C4_9  and  C5_10 
REMARK    3  A    between atoms: C9_19  and  N4_20 
REMARK    4  A    between atoms: N4_20  and  C10_22 
REMARK    5  A    between atoms: C10_22  and  C11_23 
REMARK    6  A    between atoms: C10_22  and  C14_26 
ROOT
HETATM    1  C5  UNL     1      17.493  11.069 -11.414  1.00  0.00     0.017 A 
HETATM    2  C6  UNL     1      16.517  11.812 -12.074  1.00  0.00     0.066 A 
HETATM    3  S2  UNL     1      15.079  11.002 -11.699  1.00  0.00    -0.082 SA
HETATM    4  C7  UNL     1      15.705   9.754 -10.730  1.00  0.00     0.089 A 
HETATM    5  N2  UNL     1      15.083   8.736 -10.080  1.00  0.00    -0.346 N 
ATOM      6  H2  UNL     1      14.071   8.628 -10.145  1.00  0.00     0.167 HD
HETATM    7  C8  UNL     1      15.809   7.873  -9.354  1.00  0.00     0.182 A 
HETATM    8  N3  UNL     1      17.135   8.089  -9.320  1.00  0.00    -0.338 N 
ATOM      9  H3  UNL     1      17.690   7.436  -8.767  1.00  0.00     0.168 HD
HETATM   10  C9  UNL     1      17.801   9.071  -9.936  1.00  0.00     0.116 A 
HETATM   11  C17 UNL     1      17.043   9.996 -10.715  1.00  0.00     0.055 A 
ENDROOT
BRANCH   1  12
HETATM   12  C4  UNL     1      18.884  11.518 -11.611  1.00  0.00     0.083 A 
HETATM   13  N1  UNL     1      19.628  10.972 -12.568  1.00  0.00    -0.361 N 
HETATM   14  C3  UNL     1      20.901  11.331 -12.805  1.00  0.00     0.112 A 
ATOM     15  H1  UNL     1      19.212  10.246 -13.151  1.00  0.00     0.165 HD
HETATM   16  C2  UNL     1      21.504  12.305 -12.047  1.00  0.00     0.077 A 
HETATM   17  C19 UNL     1      20.778  12.902 -11.043  1.00  0.00     0.069 A 
HETATM   18  C18 UNL     1      19.461  12.494 -10.838  1.00  0.00     0.145 A 
HETATM   19  F1  UNL     1      18.714  13.059  -9.858  1.00  0.00    -0.204 F 
BRANCH  16  20
HETATM   20  S1  UNL     1      23.174  12.770 -12.368  1.00  0.00     0.173 S 
HETATM   21  C1  UNL     1      23.956  11.504 -13.299  1.00  0.00     0.167 C 
HETATM   22  O1  UNL     1      23.904  13.152 -11.132  1.00  0.00    -0.223 OA
HETATM   23  O2  UNL     1      23.110  14.003 -13.243  1.00  0.00    -0.223 OA
ENDBRANCH  16  20
ENDBRANCH   1  12
BRANCH  10  24
HETATM   24  N4  UNL     1      19.026   9.195  -9.821  1.00  0.00    -0.370 N 
ATOM     25  H4  UNL     1      19.314  10.153 -10.021  1.00  0.00     0.161 HD
BRANCH  24  26
HETATM   26  C10 UNL     1      20.156   8.385  -9.490  1.00  0.00     0.091 C 
BRANCH  26  27
HETATM   27  C11 UNL     1      20.684   8.724  -8.139  1.00  0.00     0.009 A 
HETATM   28  C12 UNL     1      20.012   8.101  -6.922  1.00  0.00     0.007 A 
HETATM   29  C13 UNL     1      21.370   7.725  -7.290  1.00  0.00     0.007 A 
ENDBRANCH  26  27
BRANCH  26  30
HETATM   30  C14 UNL     1      21.085   8.416 -10.646  1.00  0.00     0.009 A 
HETATM   31  C15 UNL     1      22.524   8.268 -10.709  1.00  0.00     0.007 A 
HETATM   32  C16 UNL     1      21.777   7.024 -10.891  1.00  0.00     0.007 A 
ENDBRANCH  26  30
ENDBRANCH  24  26
ENDBRANCH  10  24
TORSDOF 6
ENDMDL
MODEL 2
REMARK VINA RESULT: -6.849370412      0.981      1.962
REMARK  6 active torsions:
REMARK  status: ('A' for Active; 'I' for Inactive)
REMARK    1  A    between atoms: S1_2  and  C2_5 
REMARK    2  A    between atoms: C4_9  and  C5_10 
REMARK    3  A    between atoms: C9_19  and  N4_20 
REMARK    4  A    between atoms: N4_20  and  C10_22 
REMARK    5  A    between atoms: C10_22  and  C11_23 
REMARK    6  A    between atoms: C10_22  and  C14_26 
ROOT
HETATM    1  C5  UNL     1      17.832  11.314 -11.328  1.00  0.00     0.017 A 
HETATM    2  C6  UNL     1      16.818  11.967 -12.028  1.00  0.00     0.066 A 
HETATM    3  S2  UNL     1      15.468  10.975 -11.787  1.00  0.00    -0.082 SA
HETATM    4  C7  UNL     1      16.175   9.767 -10.824  1.00  0.00     0.089 A 
HETATM    5  N2  UNL     1      15.640   8.653 -10.260  1.00  0.00    -0.346 N 
ATOM      6  H2  UNL     1      14.654   8.429 -10.401  1.00  0.00     0.167 HD
HETATM    7  C8  UNL     1      16.415   7.849  -9.517  1.00  0.00     0.182 A 
HETATM    8  N3  UNL     1      17.700   8.218  -9.380  1.00  0.00    -0.338 N 
ATOM      9  H3  UNL     1      18.292   7.612  -8.814  1.00  0.00     0.168 HD
HETATM   10  C9  UNL     1      18.281   9.300  -9.909  1.00  0.00     0.116 A 
HETATM   11  C17 UNL     1      17.470  10.164 -10.705  1.00  0.00     0.055 A 
ENDROOT
BRANCH   1  12
HETATM   12  C4  UNL     1      19.168  11.934 -11.408  1.00  0.00     0.083 A 
HETATM   13  N1  UNL     1      20.071  11.455 -12.259  1.00  0.00    -0.361 N 
HETATM   14  C3  UNL     1      21.307  11.969 -12.385  1.00  0.00     0.112 A 
ATOM     15  H1  UNL     1      19.813  10.661 -12.844  1.00  0.00     0.165 HD
HETATM   16  C2  UNL     1      21.699  13.039 -11.620  1.00  0.00     0.077 A 
HETATM   17  C19 UNL     1      20.802  13.572 -10.724  1.00  0.00     0.069 A 
HETATM   18  C18 UNL     1      19.534  13.004 -10.631  1.00  0.00     0.145 A 
HETATM   19  F1  UNL     1      18.622  13.501  -9.758  1.00  0.00    -0.204 F 
BRANCH  16  20
HETATM   20  S1  UNL     1      23.322  13.706 -11.796  1.00  0.00     0.173 S 
HETATM   21  C1  UNL     1      23.413  14.612 -13.297  1.00  0.00     0.167 C 
HETATM   22  O1  UNL     1      24.379  12.675 -11.645  1.00  0.00    -0.223 OA
HETATM   23  O2  UNL     1      23.499  14.691 -10.660  1.00  0.00    -0.223 OA
ENDBRANCH  16  20
ENDBRANCH   1  12
BRANCH  10  24
HETATM   24  N4  UNL     1      19.472   9.563  -9.703  1.00  0.00    -0.370 N 
ATOM     25  H4  UNL     1      19.596  10.557  -9.511  1.00  0.00     0.161 HD
BRANCH  24  26
HETATM   26  C10 UNL     1      20.725   8.878  -9.655  1.00  0.00     0.091 C 
BRANCH  26  27
HETATM   27  C11 UNL     1      21.082   8.315 -10.988  1.00  0.00     0.009 A 
HETATM   28  C12 UNL     1      22.498   8.529 -11.508  1.00  0.00     0.007 A 
HETATM   29  C13 UNL     1      22.039   7.197 -11.139  1.00  0.00     0.007 A 
ENDBRANCH  26  27
BRANCH  26  30
HETATM   30  C14 UNL     1      20.695   7.968  -8.483  1.00  0.00     0.009 A 
HETATM   31  C15 UNL     1      21.756   7.229  -7.831  1.00  0.00     0.007 A 
HETATM   32  C16 UNL     1      21.495   8.550  -7.259  1.00  0.00     0.007 A 
ENDBRANCH  26  30
ENDBRANCH  24  26
ENDBRANCH  10  24
TORSDOF 6
ENDMDL
MODEL 3
REMARK VINA RESULT: -6.616568998      2.805      5.311
REMARK  6 active torsions:
REMARK  status: ('A' for Active; 'I' for Inactive)
REMARK    1  A    between atoms: S1_2  and  C2_5 
REMARK    2  A    between atoms: C4_9  and  C5_10 
REMARK    3  A    between atoms: C9_19  and  N4_20 
REMARK    4  A    between atoms: N4_20  and  C10_22 
REMARK    5  A    between atoms: C10_22  and  C11_23 
REMARK    6  A    between atoms: C10_22  and  C14_26 
ROOT
HETATM    1  C5  UNL     1      21.726   9.501 -11.526  1.00  0.00     0.017 A 
HETATM    2  C6  UNL     1      22.474   8.407 -11.095  1.00  0.00     0.066 A 
HETATM    3  S2  UNL     1      21.440   7.623 -10.008  1.00  0.00    -0.082 SA
HETATM    4  C7  UNL     1      20.097   8.659 -10.101  1.00  0.00     0.089 A 
HETATM    5  N2  UNL     1      18.890   8.608  -9.481  1.00  0.00    -0.346 N 
ATOM      6  H2  UNL     1      18.681   7.855  -8.824  1.00  0.00     0.167 HD
HETATM    7  C8  UNL     1      17.973   9.553  -9.736  1.00  0.00     0.182 A 
HETATM    8  N3  UNL     1      18.327  10.506 -10.615  1.00  0.00    -0.338 N 
ATOM      9  H3  UNL     1      17.632  11.225 -10.814  1.00  0.00     0.168 HD
HETATM   10  C9  UNL     1      19.496  10.608 -11.256  1.00  0.00     0.116 A 
HETATM   11  C17 UNL     1      20.483   9.611 -10.992  1.00  0.00     0.055 A 
ENDROOT
BRANCH   1  12
HETATM   12  C4  UNL     1      22.409  10.417 -12.460  1.00  0.00     0.083 A 
HETATM   13  N1  UNL     1      23.191  11.382 -11.987  1.00  0.00    -0.361 N 
HETATM   14  C3  UNL     1      23.843  12.252 -12.777  1.00  0.00     0.112 A 
ATOM     15  H1  UNL     1      23.302  11.467 -10.977  1.00  0.00     0.165 HD
HETATM   16  C2  UNL     1      23.726  12.178 -14.144  1.00  0.00     0.077 A 
HETATM   17  C19 UNL     1      22.928  11.196 -14.683  1.00  0.00     0.069 A 
HETATM   18  C18 UNL     1      22.273  10.319 -13.821  1.00  0.00     0.145 A 
HETATM   19  F1  UNL     1      21.477   9.339 -14.317  1.00  0.00    -0.204 F 
BRANCH  16  20
HETATM   20  S1  UNL     1      24.588  13.323 -15.171  1.00  0.00     0.173 S 
HETATM   21  C1  UNL     1      23.620  14.775 -15.353  1.00  0.00     0.167 C 
HETATM   22  O1  UNL     1      25.021  12.717 -16.456  1.00  0.00    -0.223 OA
HETATM   23  O2  UNL     1      25.843  13.706 -14.417  1.00  0.00    -0.223 OA
ENDBRANCH  16  20
ENDBRANCH   1  12
BRANCH  10  24
HETATM   24  N4  UNL     1      19.715  11.516 -12.066  1.00  0.00    -0.370 N 
ATOM     25  H4  UNL     1      19.926  11.135 -12.989  1.00  0.00     0.161 HD
BRANCH  24  26
HETATM   26  C10 UNL     1      19.758  12.944 -12.085  1.00  0.00     0.091 C 
BRANCH  26  27
HETATM   27  C11 UNL     1      20.234  13.452 -13.402  1.00  0.00     0.009 A 
HETATM   28  C12 UNL     1      19.195  13.875 -14.433  1.00  0.00     0.007 A 
HETATM   29  C13 UNL     1      20.063  14.864 -13.810  1.00  0.00     0.007 A 
ENDBRANCH  26  27
BRANCH  26  30
HETATM   30  C14 UNL     1      20.459  13.388 -10.855  1.00  0.00     0.009 A 
HETATM   31  C15 UNL     1      20.725  14.717 -10.344  1.00  0.00     0.007 A 
HETATM   32  C16 UNL     1      19.490  14.110  -9.846  1.00  0.00     0.007 A 
ENDBRANCH  26  30
ENDBRANCH  24  26
ENDBRANCH  10  24
TORSDOF 6
ENDMDL
MODEL 4
REMARK VINA RESULT: -6.602324344      2.600      5.154
REMARK  6 active torsions:
REMARK  status: ('A' for Active; 'I' for Inactive)
REMARK    1  A    between atoms: S1_2  and  C2_5 
REMARK    2  A    between atoms: C4_9  and  C5_10 
REMARK    3  A    between atoms: C9_19  and  N4_20 
REMARK    4  A    between atoms: N4_20  and  C10_22 
REMARK    5  A    between atoms: C10_22  and  C11_23 
REMARK    6  A    between atoms: C10_22  and  C14_26 
ROOT
HETATM    1  C5  UNL     1      21.375   9.923 -11.079  1.00  0.00     0.017 A 
HETATM    2  C6  UNL     1      22.118   8.838 -10.616  1.00  0.00     0.066 A 
HETATM    3  S2  UNL     1      20.984   7.911  -9.769  1.00  0.00    -0.082 SA
HETATM    4  C7  UNL     1      19.604   8.876  -9.999  1.00  0.00     0.089 A 
HETATM    5  N2  UNL     1      18.322   8.707  -9.585  1.00  0.00    -0.346 N 
ATOM      6  H2  UNL     1      18.065   7.892  -9.027  1.00  0.00     0.167 HD
HETATM    7  C8  UNL     1      17.394   9.619  -9.913  1.00  0.00     0.182 A 
HETATM    8  N3  UNL     1      17.815  10.660 -10.651  1.00  0.00    -0.338 N 
ATOM      9  H3  UNL     1      17.113  11.355 -10.904  1.00  0.00     0.168 HD
HETATM   10  C9  UNL     1      19.061  10.879 -11.087  1.00  0.00     0.116 A 
HETATM   11  C17 UNL     1      20.059   9.919 -10.744  1.00  0.00     0.055 A 
ENDROOT
BRANCH   1  12
HETATM   12  C4  UNL     1      22.130  10.949 -11.821  1.00  0.00     0.083 A 
HETATM   13  N1  UNL     1      22.860  11.842 -11.159  1.00  0.00    -0.361 N 
HETATM   14  C3  UNL     1      23.573  12.805 -11.768  1.00  0.00     0.112 A 
ATOM     15  H1  UNL     1      22.880  11.795 -10.141  1.00  0.00     0.165 HD
HETATM   16  C2  UNL     1      23.579  12.909 -13.138  1.00  0.00     0.077 A 
HETATM   17  C19 UNL     1      22.840  12.009 -13.869  1.00  0.00     0.069 A 
HETATM   18  C18 UNL     1      22.118  11.030 -13.190  1.00  0.00     0.145 A 
HETATM   19  F1  UNL     1      21.377  10.125 -13.878  1.00  0.00    -0.204 F 
BRANCH  16  20
HETATM   20  S1  UNL     1      24.520  14.174 -13.926  1.00  0.00     0.173 S 
HETATM   21  C1  UNL     1      24.761  15.499 -12.801  1.00  0.00     0.167 C 
HETATM   22  O1  UNL     1      23.939  14.584 -15.230  1.00  0.00    -0.223 OA
HETATM   23  O2  UNL     1      25.878  13.573 -14.216  1.00  0.00    -0.223 OA
ENDBRANCH  16  20
ENDBRANCH   1  12
BRANCH  10  24
HETATM   24  N4  UNL     1      19.340  11.863 -11.783  1.00  0.00    -0.370 N 
ATOM     25  H4  UNL     1      19.874  11.584 -12.606  1.00  0.00     0.161 HD
BRANCH  24  26
HETATM   26  C10 UNL     1      19.134  13.277 -11.767  1.00  0.00     0.091 C 
BRANCH  26  27
HETATM   27  C11 UNL     1      19.013  13.819 -13.149  1.00  0.00     0.009 A 
HETATM   28  C12 UNL     1      17.619  14.007 -13.734  1.00  0.00     0.007 A 
HETATM   29  C13 UNL     1      18.451  15.160 -13.422  1.00  0.00     0.007 A 
ENDBRANCH  26  27
BRANCH  26  30
HETATM   30  C14 UNL     1      20.144  13.868 -10.856  1.00  0.00     0.009 A 
HETATM   31  C15 UNL     1      20.318  15.227 -10.388  1.00  0.00     0.007 A 
HETATM   32  C16 UNL     1      19.505  14.382  -9.513  1.00  0.00     0.007 A 
ENDBRANCH  26  30
ENDBRANCH  24  26
ENDBRANCH  10  24
TORSDOF 6
ENDMDL
MODEL 5
REMARK VINA RESULT: -6.474964865      3.364      6.261
REMARK  6 active torsions:
REMARK  status: ('A' for Active; 'I' for Inactive)
REMARK    1  A    between atoms: S1_2  and  C2_5 
REMARK    2  A    between atoms: C4_9  and  C5_10 
REMARK    3  A    between atoms: C9_19  and  N4_20 
REMARK    4  A    between atoms: N4_20  and  C10_22 
REMARK    5  A    between atoms: C10_22  and  C11_23 
REMARK    6  A    between atoms: C10_22  and  C14_26 
ROOT
HETATM    1  C5  UNL     1      20.038  13.559 -10.917  1.00  0.00     0.017 A 
HETATM    2  C6  UNL     1      19.670  14.851 -10.543  1.00  0.00     0.066 A 
HETATM    3  S2  UNL     1      21.142  15.686 -10.497  1.00  0.00    -0.082 SA
HETATM    4  C7  UNL     1      22.193  14.427 -10.942  1.00  0.00     0.089 A 
HETATM    5  N2  UNL     1      23.540  14.413 -11.113  1.00  0.00    -0.346 N 
ATOM      6  H2  UNL     1      24.087  15.260 -10.957  1.00  0.00     0.167 HD
HETATM    7  C8  UNL     1      24.148  13.277 -11.489  1.00  0.00     0.182 A 
HETATM    8  N3  UNL     1      23.355  12.209 -11.677  1.00  0.00    -0.338 N 
ATOM      9  H3  UNL     1      23.812  11.345 -11.964  1.00  0.00     0.168 HD
HETATM   10  C9  UNL     1      22.027  12.163 -11.525  1.00  0.00     0.116 A 
HETATM   11  C17 UNL     1      21.366  13.363 -11.122  1.00  0.00     0.055 A 
ENDROOT
BRANCH   1  12
HETATM   12  C4  UNL     1      18.943  12.574 -10.985  1.00  0.00     0.083 A 
HETATM   13  N1  UNL     1      18.843  11.629 -10.055  1.00  0.00    -0.361 N 
HETATM   14  C3  UNL     1      17.873  10.699 -10.054  1.00  0.00     0.112 A 
ATOM     15  H1  UNL     1      19.535  11.609  -9.307  1.00  0.00     0.165 HD
HETATM   16  C2  UNL     1      16.917  10.686 -11.040  1.00  0.00     0.077 A 
HETATM   17  C19 UNL     1      16.975  11.643 -12.026  1.00  0.00     0.069 A 
HETATM   18  C18 UNL     1      18.001  12.585 -11.983  1.00  0.00     0.145 A 
HETATM   19  F1  UNL     1      18.092  13.543 -12.939  1.00  0.00    -0.204 F 
BRANCH  16  20
HETATM   20  S1  UNL     1      15.647   9.463 -11.027  1.00  0.00     0.173 S 
HETATM   21  C1  UNL     1      16.242   8.023 -10.220  1.00  0.00     0.167 C 
HETATM   22  O1  UNL     1      15.087   9.213 -12.379  1.00  0.00    -0.223 OA
HETATM   23  O2  UNL     1      14.526  10.027 -10.181  1.00  0.00    -0.223 OA
ENDBRANCH  16  20
ENDBRANCH   1  12
BRANCH  10  24
HETATM   24  N4  UNL     1      21.384  11.130 -11.745  1.00  0.00    -0.370 N 
ATOM     25  H4  UNL     1      20.386  11.287 -11.604  1.00  0.00     0.161 HD
BRANCH  24  26
HETATM   26  C10 UNL     1      21.634   9.780 -12.140  1.00  0.00     0.091 C 
BRANCH  26  27
HETATM   27  C11 UNL     1      21.257   9.556 -13.564  1.00  0.00     0.009 A 
HETATM   28  C12 UNL     1      20.841  10.760 -14.400  1.00  0.00     0.007 A 
HETATM   29  C13 UNL     1      22.084  10.057 -14.685  1.00  0.00     0.007 A 
ENDBRANCH  26  27
BRANCH  26  30
HETATM   30  C14 UNL     1      21.053   8.893 -11.102  1.00  0.00     0.009 A 
HETATM   31  C15 UNL     1      21.138   7.458 -10.927  1.00  0.00     0.007 A 
HETATM   32  C16 UNL     1      22.159   8.220 -10.208  1.00  0.00     0.007 A 
ENDBRANCH  26  30
ENDBRANCH  24  26
ENDBRANCH  10  24
TORSDOF 6
ENDMDL
