MODEL 1
REMARK VINA RESULT: -7.894683744      0.000      0.000
REMARK  8 active torsions:
REMARK  status: ('A' for Active; 'I' for Inactive)
REMARK    1  A    between atoms: C2_2  and  C3_3 
REMARK    2  A    between atoms: C4_4  and  C5_5 
REMARK    3  A    between atoms: C5_5  and  O2_7 
REMARK    4  A    between atoms: O2_7  and  C6_8 
REMARK    5  A    between atoms: C6_8  and  C7_9 
REMARK    6  A    between atoms: C14_17  and  O4_18 
REMARK    7  A    between atoms: O4_18  and  C15_19 
REMARK    8  A    between atoms: C18_24  and  O6_25 
ROOT
HETATM    1  C7  UNL     1      18.605   9.987 -10.258  1.00  0.00    -0.019 A 
HETATM    2  C8  UNL     1      19.344  11.010 -10.661  1.00  0.00     0.021 A 
HETATM    3  C9  UNL     1      18.887  12.157 -11.438  1.00  0.00     0.079 A 
HETATM    4  C10 UNL     1      19.660  12.145 -12.785  1.00  0.00     0.051 C 
HETATM    5  C11 UNL     1      19.251  13.457 -10.703  1.00  0.00     0.051 C 
HETATM    6  O3  UNL     1      17.555  12.104 -11.756  1.00  0.00    -0.336 OA
HETATM    7  C12 UNL     1      16.707  11.109 -11.370  1.00  0.00     0.086 A 
HETATM    8  C13 UNL     1      15.364  11.187 -11.726  1.00  0.00     0.076 A 
HETATM    9  C14 UNL     1      14.497  10.199 -11.337  1.00  0.00     0.102 A 
HETATM   10  C17 UNL     1      14.962   9.135 -10.596  1.00  0.00     0.079 A 
HETATM   11 BR1  UNL     1      13.789   7.727 -10.024  1.00  0.00    -0.045 Br
HETATM   12  C18 UNL     1      16.306   9.051 -10.238  1.00  0.00     0.099 A 
HETATM   13  C19 UNL     1      17.200  10.015 -10.612  1.00  0.00     0.040 A 
ENDROOT
BRANCH   1  14
HETATM   14  C6  UNL     1      19.187   8.900  -9.484  1.00  0.00     0.218 C 
BRANCH  14  15
HETATM   15  O2  UNL     1      20.213   8.135 -10.041  1.00  0.00    -0.314 OA
BRANCH  15  16
HETATM   16  C5  UNL     1      21.538   8.208  -9.594  1.00  0.00     0.283 C 
HETATM   17  O1  UNL     1      22.109   9.254  -9.983  1.00  0.00    -0.260 OA
BRANCH  16  18
HETATM   18  C4  UNL     1      22.137   7.181  -8.783  1.00  0.00     0.082 C 
HETATM   19  C3  UNL     1      21.951   6.984  -7.526  1.00  0.00     0.005 C 
BRANCH  19  20
HETATM   20  C2  UNL     1      21.123   7.700  -6.592  1.00  0.00    -0.010 C 
HETATM   21  C1  UNL     1      20.524   7.104  -5.560  1.00  0.00     0.011 C 
ENDBRANCH  19  20
ENDBRANCH  16  18
ENDBRANCH  15  16
ENDBRANCH  14  15
ENDBRANCH   1  14
BRANCH  12  22
HETATM   22  O6  UNL     1      16.739   7.984  -9.490  1.00  0.00    -0.358 OA
ATOM     23  H6  UNL     1      17.288   8.139  -8.730  1.00  0.00     0.217 HD
ENDBRANCH  12  22
BRANCH   9  24
HETATM   24  O4  UNL     1      13.173  10.280 -11.693  1.00  0.00    -0.278 OA
BRANCH  24  25
HETATM   25  C15 UNL     1      12.496  11.472 -11.595  1.00  0.00     0.260 C 
HETATM   26  C16 UNL     1      11.968  11.868 -10.258  1.00  0.00     0.126 C 
HETATM   27  O5  UNL     1      12.320  12.218 -12.598  1.00  0.00    -0.265 OA
ENDBRANCH  24  25
ENDBRANCH   9  24
TORSDOF 8
ENDMDL
MODEL 2
REMARK VINA RESULT: -7.891454890      1.238      2.220
REMARK  8 active torsions:
REMARK  status: ('A' for Active; 'I' for Inactive)
REMARK    1  A    between atoms: C2_2  and  C3_3 
REMARK    2  A    between atoms: C4_4  and  C5_5 
REMARK    3  A    between atoms: C5_5  and  O2_7 
REMARK    4  A    between atoms: O2_7  and  C6_8 
REMARK    5  A    between atoms: C6_8  and  C7_9 
REMARK    6  A    between atoms: C14_17  and  O4_18 
REMARK    7  A    between atoms: O4_18  and  C15_19 
REMARK    8  A    between atoms: C18_24  and  O6_25 
ROOT
HETATM    1  C7  UNL     1      18.442   9.739 -10.143  1.00  0.00    -0.019 A 
HETATM    2  C8  UNL     1      19.283  10.701 -10.490  1.00  0.00     0.021 A 
HETATM    3  C9  UNL     1      18.961  11.900 -11.256  1.00  0.00     0.079 A 
HETATM    4  C10 UNL     1      19.787  11.849 -12.570  1.00  0.00     0.051 C 
HETATM    5  C11 UNL     1      19.405  13.148 -10.475  1.00  0.00     0.051 C 
HETATM    6  O3  UNL     1      17.644  11.971 -11.630  1.00  0.00    -0.336 OA
HETATM    7  C12 UNL     1      16.697  11.046 -11.303  1.00  0.00     0.086 A 
HETATM    8  C13 UNL     1      15.382  11.249 -11.711  1.00  0.00     0.076 A 
HETATM    9  C14 UNL     1      14.417  10.333 -11.382  1.00  0.00     0.102 A 
HETATM   10  C17 UNL     1      14.757   9.217 -10.649  1.00  0.00     0.079 A 
HETATM   11 BR1  UNL     1      13.442   7.906 -10.161  1.00  0.00    -0.045 Br
HETATM   12  C18 UNL     1      16.071   9.008 -10.239  1.00  0.00     0.099 A 
HETATM   13  C19 UNL     1      17.061   9.897 -10.553  1.00  0.00     0.040 A 
ENDROOT
BRANCH   1  14
HETATM   14  C6  UNL     1      18.894   8.589  -9.373  1.00  0.00     0.218 C 
BRANCH  14  15
HETATM   15  O2  UNL     1      20.037   8.700  -8.582  1.00  0.00    -0.314 OA
BRANCH  15  16
HETATM   16  C5  UNL     1      21.240   8.054  -8.896  1.00  0.00     0.283 C 
HETATM   17  O1  UNL     1      22.111   8.226  -8.011  1.00  0.00    -0.260 OA
BRANCH  16  18
HETATM   18  C4  UNL     1      21.414   7.292 -10.105  1.00  0.00     0.082 C 
HETATM   19  C3  UNL     1      21.896   7.713 -11.219  1.00  0.00     0.005 C 
BRANCH  19  20
HETATM   20  C2  UNL     1      22.388   9.017 -11.579  1.00  0.00    -0.010 C 
HETATM   21  C1  UNL     1      22.680   9.352 -12.837  1.00  0.00     0.011 C 
ENDBRANCH  19  20
ENDBRANCH  16  18
ENDBRANCH  15  16
ENDBRANCH  14  15
ENDBRANCH   1  14
BRANCH  12  22
HETATM   22  O6  UNL     1      16.377   7.891  -9.501  1.00  0.00    -0.358 OA
ATOM     23  H6  UNL     1      17.118   7.915  -8.906  1.00  0.00     0.217 HD
ENDBRANCH  12  22
BRANCH   9  24
HETATM   24  O4  UNL     1      13.121  10.538 -11.789  1.00  0.00    -0.278 OA
BRANCH  24  25
HETATM   25  C15 UNL     1      12.366  11.541 -11.231  1.00  0.00     0.260 C 
HETATM   26  C16 UNL     1      12.129  12.770 -12.041  1.00  0.00     0.126 C 
HETATM   27  O5  UNL     1      11.882  11.438 -10.070  1.00  0.00    -0.265 OA
ENDBRANCH  24  25
ENDBRANCH   9  24
TORSDOF 8
ENDMDL
MODEL 3
REMARK VINA RESULT: -7.592897007      0.956      1.294
REMARK  8 active torsions:
REMARK  status: ('A' for Active; 'I' for Inactive)
REMARK    1  A    between atoms: C2_2  and  C3_3 
REMARK    2  A    between atoms: C4_4  and  C5_5 
REMARK    3  A    between atoms: C5_5  and  O2_7 
REMARK    4  A    between atoms: O2_7  and  C6_8 
REMARK    5  A    between atoms: C6_8  and  C7_9 
REMARK    6  A    between atoms: C14_17  and  O4_18 
REMARK    7  A    between atoms: O4_18  and  C15_19 
REMARK    8  A    between atoms: C18_24  and  O6_25 
ROOT
HETATM    1  C7  UNL     1      18.433   9.766 -10.141  1.00  0.00    -0.019 A 
HETATM    2  C8  UNL     1      19.272  10.727 -10.496  1.00  0.00     0.021 A 
HETATM    3  C9  UNL     1      18.946  11.920 -11.269  1.00  0.00     0.079 A 
HETATM    4  C10 UNL     1      19.770  11.861 -12.585  1.00  0.00     0.051 C 
HETATM    5  C11 UNL     1      19.389  13.174 -10.499  1.00  0.00     0.051 C 
HETATM    6  O3  UNL     1      17.629  11.986 -11.642  1.00  0.00    -0.336 OA
HETATM    7  C12 UNL     1      16.684  11.060 -11.307  1.00  0.00     0.086 A 
HETATM    8  C13 UNL     1      15.368  11.258 -11.714  1.00  0.00     0.076 A 
HETATM    9  C14 UNL     1      14.406  10.341 -11.377  1.00  0.00     0.102 A 
HETATM   10  C17 UNL     1      14.749   9.231 -10.637  1.00  0.00     0.079 A 
HETATM   11 BR1  UNL     1      13.438   7.921 -10.137  1.00  0.00    -0.045 Br
HETATM   12  C18 UNL     1      16.065   9.028 -10.228  1.00  0.00     0.099 A 
HETATM   13  C19 UNL     1      17.052   9.918 -10.549  1.00  0.00     0.040 A 
ENDROOT
BRANCH   1  14
HETATM   14  C6  UNL     1      18.890   8.622  -9.364  1.00  0.00     0.218 C 
BRANCH  14  15
HETATM   15  O2  UNL     1      20.257   8.368  -9.255  1.00  0.00    -0.314 OA
BRANCH  15  16
HETATM   16  C5  UNL     1      20.901   8.214  -8.021  1.00  0.00     0.283 C 
HETATM   17  O1  UNL     1      22.128   7.993  -8.155  1.00  0.00    -0.260 OA
BRANCH  16  18
HETATM   18  C4  UNL     1      20.200   8.305  -6.767  1.00  0.00     0.082 C 
HETATM   19  C3  UNL     1      20.230   7.456  -5.802  1.00  0.00     0.005 C 
BRANCH  19  20
HETATM   20  C2  UNL     1      20.945   6.213  -5.689  1.00  0.00    -0.010 C 
HETATM   21  C1  UNL     1      20.495   5.189  -4.962  1.00  0.00     0.011 C 
ENDBRANCH  19  20
ENDBRANCH  16  18
ENDBRANCH  15  16
ENDBRANCH  14  15
ENDBRANCH   1  14
BRANCH  12  22
HETATM   22  O6  UNL     1      16.375   7.918  -9.482  1.00  0.00    -0.358 OA
ATOM     23  H6  UNL     1      17.272   7.781  -9.201  1.00  0.00     0.217 HD
ENDBRANCH  12  22
BRANCH   9  24
HETATM   24  O4  UNL     1      13.109  10.541 -11.784  1.00  0.00    -0.278 OA
BRANCH  24  25
HETATM   25  C15 UNL     1      12.353  11.549 -11.236  1.00  0.00     0.260 C 
HETATM   26  C16 UNL     1      12.108  12.766 -12.061  1.00  0.00     0.126 C 
HETATM   27  O5  UNL     1      11.877  11.461 -10.070  1.00  0.00    -0.265 OA
ENDBRANCH  24  25
ENDBRANCH   9  24
TORSDOF 8
ENDMDL
MODEL 4
REMARK VINA RESULT: -7.079766746      3.357      6.638
REMARK  8 active torsions:
REMARK  status: ('A' for Active; 'I' for Inactive)
REMARK    1  A    between atoms: C2_2  and  C3_3 
REMARK    2  A    between atoms: C4_4  and  C5_5 
REMARK    3  A    between atoms: C5_5  and  O2_7 
REMARK    4  A    between atoms: O2_7  and  C6_8 
REMARK    5  A    between atoms: C6_8  and  C7_9 
REMARK    6  A    between atoms: C14_17  and  O4_18 
REMARK    7  A    between atoms: O4_18  and  C15_19 
REMARK    8  A    between atoms: C18_24  and  O6_25 
ROOT
HETATM    1  C7  UNL     1      20.354   9.397 -11.060  1.00  0.00    -0.019 A 
HETATM    2  C8  UNL     1      19.290  10.132 -11.347  1.00  0.00     0.021 A 
HETATM    3  C9  UNL     1      18.184  10.443 -10.448  1.00  0.00     0.079 A 
HETATM    4  C10 UNL     1      16.896   9.836 -11.068  1.00  0.00     0.051 C 
HETATM    5  C11 UNL     1      17.992  11.966 -10.374  1.00  0.00     0.051 C 
HETATM    6  O3  UNL     1      18.317   9.882  -9.205  1.00  0.00    -0.336 OA
HETATM    7  C12 UNL     1      19.383   9.131  -8.806  1.00  0.00     0.086 A 
HETATM    8  C13 UNL     1      19.419   8.645  -7.502  1.00  0.00     0.076 A 
HETATM    9  C14 UNL     1      20.489   7.897  -7.083  1.00  0.00     0.102 A 
HETATM   10  C17 UNL     1      21.520   7.630  -7.957  1.00  0.00     0.079 A 
HETATM   11 BR1  UNL     1      23.041   6.590  -7.418  1.00  0.00    -0.045 Br
HETATM   12  C18 UNL     1      21.488   8.113  -9.263  1.00  0.00     0.099 A 
HETATM   13  C19 UNL     1      20.436   8.858  -9.717  1.00  0.00     0.040 A 
ENDROOT
BRANCH   1  14
HETATM   14  C6  UNL     1      21.392   9.161 -12.053  1.00  0.00     0.218 C 
BRANCH  14  15
HETATM   15  O2  UNL     1      22.530   9.967 -12.061  1.00  0.00    -0.314 OA
BRANCH  15  16
HETATM   16  C5  UNL     1      22.540  11.254 -12.614  1.00  0.00     0.283 C 
HETATM   17  O1  UNL     1      21.979  11.290 -13.734  1.00  0.00    -0.260 OA
BRANCH  16  18
HETATM   18  C4  UNL     1      23.137  12.378 -11.941  1.00  0.00     0.082 C 
HETATM   19  C3  UNL     1      22.525  13.297 -11.283  1.00  0.00     0.005 C 
BRANCH  19  20
HETATM   20  C2  UNL     1      21.119  13.471 -11.030  1.00  0.00    -0.010 C 
HETATM   21  C1  UNL     1      20.631  14.532 -10.386  1.00  0.00     0.011 C 
ENDBRANCH  19  20
ENDBRANCH  16  18
ENDBRANCH  15  16
ENDBRANCH  14  15
ENDBRANCH   1  14
BRANCH  12  22
HETATM   22  O6  UNL     1      22.535   7.840 -10.108  1.00  0.00    -0.358 OA
ATOM     23  H6  UNL     1      23.419   7.806  -9.759  1.00  0.00     0.217 HD
ENDBRANCH  12  22
BRANCH   9  24
HETATM   24  O4  UNL     1      20.518   7.419  -5.795  1.00  0.00    -0.278 OA
BRANCH  24  25
HETATM   25  C15 UNL     1      19.831   6.278  -5.459  1.00  0.00     0.260 C 
HETATM   26  C16 UNL     1      18.382   6.407  -5.130  1.00  0.00     0.126 C 
HETATM   27  O5  UNL     1      20.396   5.150  -5.425  1.00  0.00    -0.265 OA
ENDBRANCH  24  25
ENDBRANCH   9  24
TORSDOF 8
ENDMDL
MODEL 5
REMARK VINA RESULT: -6.950177779      1.453      2.094
REMARK  8 active torsions:
REMARK  status: ('A' for Active; 'I' for Inactive)
REMARK    1  A    between atoms: C2_2  and  C3_3 
REMARK    2  A    between atoms: C4_4  and  C5_5 
REMARK    3  A    between atoms: C5_5  and  O2_7 
REMARK    4  A    between atoms: O2_7  and  C6_8 
REMARK    5  A    between atoms: C6_8  and  C7_9 
REMARK    6  A    between atoms: C14_17  and  O4_18 
REMARK    7  A    between atoms: O4_18  and  C15_19 
REMARK    8  A    between atoms: C18_24  and  O6_25 
ROOT
HETATM    1  C7  UNL     1      20.674  10.483 -10.996  1.00  0.00    -0.019 A 
HETATM    2  C8  UNL     1      21.230  11.630 -11.357  1.00  0.00     0.021 A 
HETATM    3  C9  UNL     1      20.533  12.880 -11.638  1.00  0.00     0.079 A 
HETATM    4  C10 UNL     1      20.806  13.241 -13.124  1.00  0.00     0.051 C 
HETATM    5  C11 UNL     1      21.119  14.006 -10.771  1.00  0.00     0.051 C 
HETATM    6  O3  UNL     1      19.172  12.788 -11.507  1.00  0.00    -0.336 OA
HETATM    7  C12 UNL     1      18.508  11.662 -11.119  1.00  0.00     0.086 A 
HETATM    8  C13 UNL     1      17.123  11.703 -10.987  1.00  0.00     0.076 A 
HETATM    9  C14 UNL     1      16.443  10.582 -10.588  1.00  0.00     0.102 A 
HETATM   10  C17 UNL     1      17.135   9.421 -10.322  1.00  0.00     0.079 A 
HETATM   11 BR1  UNL     1      16.229   7.825  -9.758  1.00  0.00    -0.045 Br
HETATM   12  C18 UNL     1      18.521   9.374 -10.454  1.00  0.00     0.099 A 
HETATM   13  C19 UNL     1      19.233  10.470 -10.854  1.00  0.00     0.040 A 
ENDROOT
BRANCH   1  14
HETATM   14  C6  UNL     1      21.488   9.302 -10.744  1.00  0.00     0.218 C 
BRANCH  14  15
HETATM   15  O2  UNL     1      21.926   9.036  -9.447  1.00  0.00    -0.314 OA
BRANCH  15  16
HETATM   16  C5  UNL     1      21.914   7.748  -8.895  1.00  0.00     0.283 C 
HETATM   17  O1  UNL     1      21.788   6.861  -9.772  1.00  0.00    -0.260 OA
BRANCH  16  18
HETATM   18  C4  UNL     1      22.034   7.515  -7.480  1.00  0.00     0.082 C 
HETATM   19  C3  UNL     1      21.134   7.716  -6.585  1.00  0.00     0.005 C 
BRANCH  19  20
HETATM   20  C2  UNL     1      19.791   8.214  -6.723  1.00  0.00    -0.010 C 
HETATM   21  C1  UNL     1      18.727   7.543  -6.277  1.00  0.00     0.011 C 
ENDBRANCH  19  20
ENDBRANCH  16  18
ENDBRANCH  15  16
ENDBRANCH  14  15
ENDBRANCH   1  14
BRANCH  12  22
HETATM   22  O6  UNL     1      19.185   8.205 -10.172  1.00  0.00    -0.358 OA
ATOM     23  H6  UNL     1      18.754   7.539  -9.649  1.00  0.00     0.217 HD
ENDBRANCH  12  22
BRANCH   9  24
HETATM   24  O4  UNL     1      15.076  10.629 -10.461  1.00  0.00    -0.278 OA
BRANCH  24  25
HETATM   25  C15 UNL     1      14.269  10.551 -11.570  1.00  0.00     0.260 C 
HETATM   26  C16 UNL     1      13.406  11.724 -11.890  1.00  0.00     0.126 C 
HETATM   27  O5  UNL     1      14.248   9.524 -12.304  1.00  0.00    -0.265 OA
ENDBRANCH  24  25
ENDBRANCH   9  24
TORSDOF 8
ENDMDL
