MODEL 1
REMARK VINA RESULT: -8.240164087      0.000      0.000
REMARK  7 active torsions:
REMARK  status: ('A' for Active; 'I' for Inactive)
REMARK    1  A    between atoms: C1_2  and  C2_3 
REMARK       I    between atoms: C1_2  and  N3_24 
REMARK    2  A    between atoms: C2_3  and  C3_4 
REMARK    3  A    between atoms: C5_7  and  N1_8 
REMARK       I    between atoms: N1_8  and  C6_10 
REMARK    4  A    between atoms: C6_10  and  C7_12 
REMARK    5  A    between atoms: C11_16  and  C12_17 
REMARK    6  A    between atoms: N3_24  and  C14_26 
REMARK    7  A    between atoms: C17_29  and  N4_30 
ROOT
HETATM    1  C3  UNL     1      37.410  45.363   7.717  1.00  0.00     0.026 A 
HETATM    2  C4  UNL     1      37.474  45.388   9.094  1.00  0.00     0.078 A 
HETATM    3  S1  UNL     1      35.961  46.039   9.505  1.00  0.00    -0.064 SA
HETATM    4  C5  UNL     1      35.335  46.239   7.921  1.00  0.00     0.151 A 
HETATM    5  N2  UNL     1      36.312  45.801   7.154  1.00  0.00    -0.339 N 
ATOM      6  H2  UNL     1      36.215  45.803   6.139  1.00  0.00     0.168 HD
ENDROOT
BRANCH   1   7
HETATM    7  C2  UNL     1      38.649  44.901   6.968  1.00  0.00     0.160 C 
BRANCH   7   8
HETATM    8  C1  UNL     1      38.569  43.490   6.577  1.00  0.00     0.227 C 
HETATM    9  O1  UNL     1      37.493  42.993   6.163  1.00  0.00    -0.273 OA
HETATM   10  N3  UNL     1      39.716  42.671   6.677  1.00  0.00    -0.327 N 
ATOM     11  H3  UNL     1      40.580  43.102   7.005  1.00  0.00     0.169 HD
BRANCH  10  12
HETATM   12  C14 UNL     1      39.751  41.279   6.350  1.00  0.00     0.034 A 
HETATM   13  C15 UNL     1      39.488  40.323   7.338  1.00  0.00     0.032 A 
HETATM   14  C16 UNL     1      39.517  38.988   7.061  1.00  0.00     0.038 A 
HETATM   15  C17 UNL     1      39.813  38.550   5.781  1.00  0.00     0.103 A 
HETATM   16  C18 UNL     1      40.080  39.462   4.771  1.00  0.00     0.038 A 
HETATM   17  C19 UNL     1      40.038  40.813   5.099  1.00  0.00     0.032 A 
BRANCH  15  18
HETATM   18  N4  UNL     1      39.881  37.167   5.516  1.00  0.00    -0.116 N 
HETATM   19  O3  UNL     1      38.847  36.529   5.256  1.00  0.00    -0.532 OA
HETATM   20  O4  UNL     1      41.086  36.523   5.520  1.00  0.00    -0.532 OA
ENDBRANCH  15  18
ENDBRANCH  10  12
ENDBRANCH   7   8
ENDBRANCH   1   7
BRANCH   4  21
HETATM   21  N1  UNL     1      34.148  46.760   7.581  1.00  0.00    -0.303 N 
HETATM   22  C6  UNL     1      33.313  45.769   6.887  1.00  0.00     0.257 C 
HETATM   23  O2  UNL     1      33.582  45.464   5.732  1.00  0.00    -0.267 OA
ATOM     24  H1  UNL     1      33.862  47.718   7.778  1.00  0.00     0.171 HD
BRANCH  22  25
HETATM   25  C7  UNL     1      32.195  45.182   7.619  1.00  0.00     0.033 A 
HETATM   26  C8  UNL     1      32.154  43.860   8.011  1.00  0.00     0.017 A 
HETATM   27  C9  UNL     1      31.064  43.267   8.591  1.00  0.00     0.002 A 
HETATM   28  C10 UNL     1      29.911  44.022   8.806  1.00  0.00     0.016 A 
HETATM   29  C11 UNL     1      29.909  45.351   8.427  1.00  0.00     0.048 A 
HETATM   30  C13 UNL     1      31.023  45.902   7.852  1.00  0.00     0.033 A 
BRANCH  29  31
HETATM   31  C12 UNL     1      28.664  46.135   8.617  1.00  0.00     0.417 C 
HETATM   32  F1  UNL     1      28.470  46.899   7.458  1.00  0.00    -0.166 F 
HETATM   33  F2  UNL     1      27.582  45.277   8.808  1.00  0.00    -0.166 F 
HETATM   34  F3  UNL     1      28.844  47.000   9.656  1.00  0.00    -0.166 F 
ENDBRANCH  29  31
ENDBRANCH  22  25
ENDBRANCH   4  21
TORSDOF 7
ENDMDL
MODEL 2
REMARK VINA RESULT: -8.111290933      5.202      7.471
REMARK  7 active torsions:
REMARK  status: ('A' for Active; 'I' for Inactive)
REMARK    1  A    between atoms: C1_2  and  C2_3 
REMARK       I    between atoms: C1_2  and  N3_24 
REMARK    2  A    between atoms: C2_3  and  C3_4 
REMARK    3  A    between atoms: C5_7  and  N1_8 
REMARK       I    between atoms: N1_8  and  C6_10 
REMARK    4  A    between atoms: C6_10  and  C7_12 
REMARK    5  A    between atoms: C11_16  and  C12_17 
REMARK    6  A    between atoms: N3_24  and  C14_26 
REMARK    7  A    between atoms: C17_29  and  N4_30 
ROOT
HETATM    1  C3  UNL     1      28.400  46.585   8.248  1.00  0.00     0.026 A 
HETATM    2  C4  UNL     1      27.302  47.364   7.950  1.00  0.00     0.078 A 
HETATM    3  S1  UNL     1      27.941  48.453   6.815  1.00  0.00    -0.064 SA
HETATM    4  C5  UNL     1      29.551  47.864   6.779  1.00  0.00     0.151 A 
HETATM    5  N2  UNL     1      29.524  46.865   7.637  1.00  0.00    -0.339 N 
ATOM      6  H2  UNL     1      30.365  46.319   7.823  1.00  0.00     0.168 HD
ENDROOT
BRANCH   1   7
HETATM    7  C2  UNL     1      28.231  45.518   9.316  1.00  0.00     0.160 C 
BRANCH   7   8
HETATM    8  C1  UNL     1      29.382  44.612   9.386  1.00  0.00     0.227 C 
HETATM    9  O1  UNL     1      29.315  43.528  10.015  1.00  0.00    -0.273 OA
HETATM   10  N3  UNL     1      30.591  44.967   8.746  1.00  0.00    -0.327 N 
ATOM     11  H3  UNL     1      30.615  45.848   8.232  1.00  0.00     0.169 HD
BRANCH  10  12
HETATM   12  C14 UNL     1      31.783  44.179   8.769  1.00  0.00     0.034 A 
HETATM   13  C15 UNL     1      32.735  44.381   9.774  1.00  0.00     0.032 A 
HETATM   14  C16 UNL     1      33.885  43.649   9.823  1.00  0.00     0.038 A 
HETATM   15  C17 UNL     1      34.134  42.683   8.864  1.00  0.00     0.103 A 
HETATM   16  C18 UNL     1      33.218  42.447   7.849  1.00  0.00     0.038 A 
HETATM   17  C19 UNL     1      32.060  43.216   7.840  1.00  0.00     0.032 A 
BRANCH  15  18
HETATM   18  N4  UNL     1      35.344  41.960   8.900  1.00  0.00    -0.116 N 
HETATM   19  O3  UNL     1      36.227  42.175   8.053  1.00  0.00    -0.532 OA
HETATM   20  O4  UNL     1      35.564  41.033   9.881  1.00  0.00    -0.532 OA
ENDBRANCH  15  18
ENDBRANCH  10  12
ENDBRANCH   7   8
ENDBRANCH   1   7
BRANCH   4  21
HETATM   21  N1  UNL     1      30.575  48.355   6.069  1.00  0.00    -0.303 N 
HETATM   22  C6  UNL     1      31.768  48.530   6.910  1.00  0.00     0.257 C 
HETATM   23  O2  UNL     1      31.802  49.451   7.716  1.00  0.00    -0.267 OA
ATOM     24  H1  UNL     1      30.533  48.578   5.075  1.00  0.00     0.171 HD
BRANCH  22  25
HETATM   25  C7  UNL     1      32.865  47.579   6.749  1.00  0.00     0.033 A 
HETATM   26  C8  UNL     1      32.903  46.625   5.753  1.00  0.00     0.017 A 
HETATM   27  C9  UNL     1      33.863  45.652   5.662  1.00  0.00     0.002 A 
HETATM   28  C10 UNL     1      34.873  45.598   6.624  1.00  0.00     0.016 A 
HETATM   29  C11 UNL     1      34.871  46.535   7.639  1.00  0.00     0.048 A 
HETATM   30  C13 UNL     1      33.892  47.491   7.689  1.00  0.00     0.033 A 
BRANCH  29  31
HETATM   31  C12 UNL     1      35.921  46.444   8.682  1.00  0.00     0.417 C 
HETATM   32  F1  UNL     1      36.875  47.433   8.403  1.00  0.00    -0.166 F 
HETATM   33  F2  UNL     1      35.366  46.661   9.942  1.00  0.00    -0.166 F 
HETATM   34  F3  UNL     1      36.541  45.234   8.577  1.00  0.00    -0.166 F 
ENDBRANCH  29  31
ENDBRANCH  22  25
ENDBRANCH   4  21
TORSDOF 7
ENDMDL
MODEL 3
REMARK VINA RESULT: -8.101950565      5.897     10.210
REMARK  7 active torsions:
REMARK  status: ('A' for Active; 'I' for Inactive)
REMARK    1  A    between atoms: C1_2  and  C2_3 
REMARK       I    between atoms: C1_2  and  N3_24 
REMARK    2  A    between atoms: C2_3  and  C3_4 
REMARK    3  A    between atoms: C5_7  and  N1_8 
REMARK       I    between atoms: N1_8  and  C6_10 
REMARK    4  A    between atoms: C6_10  and  C7_12 
REMARK    5  A    between atoms: C11_16  and  C12_17 
REMARK    6  A    between atoms: N3_24  and  C14_26 
REMARK    7  A    between atoms: C17_29  and  N4_30 
ROOT
HETATM    1  C3  UNL     1      33.130  48.971   5.400  1.00  0.00     0.026 A 
HETATM    2  C4  UNL     1      33.468  48.650   4.103  1.00  0.00     0.078 A 
HETATM    3  S1  UNL     1      34.100  47.084   4.280  1.00  0.00    -0.064 SA
HETATM    4  C5  UNL     1      33.899  46.923   5.975  1.00  0.00     0.151 A 
HETATM    5  N2  UNL     1      33.361  48.073   6.325  1.00  0.00    -0.339 N 
ATOM      6  H2  UNL     1      33.128  48.262   7.300  1.00  0.00     0.168 HD
ENDROOT
BRANCH   1   7
HETATM    7  C2  UNL     1      32.589  50.367   5.656  1.00  0.00     0.160 C 
BRANCH   7   8
HETATM    8  C1  UNL     1      31.211  50.347   6.157  1.00  0.00     0.227 C 
HETATM    9  O1  UNL     1      30.884  51.003   7.176  1.00  0.00    -0.273 OA
HETATM   10  N3  UNL     1      30.236  49.570   5.492  1.00  0.00    -0.327 N 
ATOM     11  H3  UNL     1      30.525  49.056   4.660  1.00  0.00     0.169 HD
BRANCH  10  12
HETATM   12  C14 UNL     1      28.872  49.453   5.904  1.00  0.00     0.034 A 
HETATM   13  C15 UNL     1      28.512  48.504   6.867  1.00  0.00     0.032 A 
HETATM   14  C16 UNL     1      27.219  48.364   7.280  1.00  0.00     0.038 A 
HETATM   15  C17 UNL     1      26.228  49.167   6.743  1.00  0.00     0.103 A 
HETATM   16  C18 UNL     1      26.539  50.122   5.785  1.00  0.00     0.038 A 
HETATM   17  C19 UNL     1      27.869  50.230   5.397  1.00  0.00     0.032 A 
BRANCH  15  18
HETATM   18  N4  UNL     1      24.889  48.986   7.146  1.00  0.00    -0.116 N 
HETATM   19  O3  UNL     1      24.545  47.941   7.723  1.00  0.00    -0.532 OA
HETATM   20  O4  UNL     1      23.965  49.969   6.925  1.00  0.00    -0.532 OA
ENDBRANCH  15  18
ENDBRANCH  10  12
ENDBRANCH   7   8
ENDBRANCH   1   7
BRANCH   4  21
HETATM   21  N1  UNL     1      34.255  45.879   6.736  1.00  0.00    -0.303 N 
HETATM   22  C6  UNL     1      33.652  45.967   8.074  1.00  0.00     0.257 C 
HETATM   23  O2  UNL     1      34.090  46.782   8.875  1.00  0.00    -0.267 OA
ATOM     24  H1  UNL     1      34.864  45.122   6.427  1.00  0.00     0.171 HD
BRANCH  22  25
HETATM   25  C7  UNL     1      32.539  45.073   8.383  1.00  0.00     0.033 A 
HETATM   26  C8  UNL     1      32.594  43.705   8.217  1.00  0.00     0.017 A 
HETATM   27  C9  UNL     1      31.523  42.869   8.389  1.00  0.00     0.002 A 
HETATM   28  C10 UNL     1      30.288  43.409   8.750  1.00  0.00     0.016 A 
HETATM   29  C11 UNL     1      30.189  44.775   8.926  1.00  0.00     0.048 A 
HETATM   30  C13 UNL     1      31.288  45.573   8.745  1.00  0.00     0.033 A 
BRANCH  29  31
HETATM   31  C12 UNL     1      28.863  45.346   9.265  1.00  0.00     0.417 C 
HETATM   32  F1  UNL     1      28.334  44.581  10.314  1.00  0.00    -0.166 F 
HETATM   33  F2  UNL     1      29.001  46.674   9.669  1.00  0.00    -0.166 F 
HETATM   34  F3  UNL     1      28.034  45.203   8.191  1.00  0.00    -0.166 F 
ENDBRANCH  29  31
ENDBRANCH  22  25
ENDBRANCH   4  21
TORSDOF 7
ENDMDL
MODEL 4
REMARK VINA RESULT: -8.009561403      5.203      7.501
REMARK  7 active torsions:
REMARK  status: ('A' for Active; 'I' for Inactive)
REMARK    1  A    between atoms: C1_2  and  C2_3 
REMARK       I    between atoms: C1_2  and  N3_24 
REMARK    2  A    between atoms: C2_3  and  C3_4 
REMARK    3  A    between atoms: C5_7  and  N1_8 
REMARK       I    between atoms: N1_8  and  C6_10 
REMARK    4  A    between atoms: C6_10  and  C7_12 
REMARK    5  A    between atoms: C11_16  and  C12_17 
REMARK    6  A    between atoms: N3_24  and  C14_26 
REMARK    7  A    between atoms: C17_29  and  N4_30 
ROOT
HETATM    1  C3  UNL     1      28.337  46.451   8.299  1.00  0.00     0.026 A 
HETATM    2  C4  UNL     1      27.217  47.190   7.984  1.00  0.00     0.078 A 
HETATM    3  S1  UNL     1      27.845  48.341   6.906  1.00  0.00    -0.064 SA
HETATM    4  C5  UNL     1      29.480  47.825   6.912  1.00  0.00     0.151 A 
HETATM    5  N2  UNL     1      29.468  46.799   7.738  1.00  0.00    -0.339 N 
ATOM      6  H2  UNL     1      30.326  46.284   7.938  1.00  0.00     0.168 HD
ENDROOT
BRANCH   1   7
HETATM    7  C2  UNL     1      28.178  45.345   9.328  1.00  0.00     0.160 C 
BRANCH   7   8
HETATM    8  C1  UNL     1      29.376  44.506   9.434  1.00  0.00     0.227 C 
HETATM    9  O1  UNL     1      29.375  43.461  10.129  1.00  0.00    -0.273 OA
HETATM   10  N3  UNL     1      30.556  44.882   8.752  1.00  0.00    -0.327 N 
ATOM     11  H3  UNL     1      30.526  45.729   8.184  1.00  0.00     0.169 HD
BRANCH  10  12
HETATM   12  C14 UNL     1      31.788  44.159   8.802  1.00  0.00     0.034 A 
HETATM   13  C15 UNL     1      32.061  43.177   7.845  1.00  0.00     0.032 A 
HETATM   14  C16 UNL     1      33.225  42.466   7.866  1.00  0.00     0.038 A 
HETATM   15  C17 UNL     1      34.168  42.707   8.852  1.00  0.00     0.103 A 
HETATM   16  C18 UNL     1      33.940  43.672   9.821  1.00  0.00     0.038 A 
HETATM   17  C19 UNL     1      32.740  44.373   9.759  1.00  0.00     0.032 A 
BRANCH  15  18
HETATM   18  N4  UNL     1      35.349  41.939   8.889  1.00  0.00    -0.116 N 
HETATM   19  O3  UNL     1      35.487  41.044   9.740  1.00  0.00    -0.532 OA
HETATM   20  O4  UNL     1      36.342  42.158   7.976  1.00  0.00    -0.532 OA
ENDBRANCH  15  18
ENDBRANCH  10  12
ENDBRANCH   7   8
ENDBRANCH   1   7
BRANCH   4  21
HETATM   21  N1  UNL     1      30.506  48.381   6.254  1.00  0.00    -0.303 N 
HETATM   22  C6  UNL     1      31.692  48.492   7.117  1.00  0.00     0.257 C 
HETATM   23  O2  UNL     1      31.713  49.340   7.999  1.00  0.00    -0.267 OA
ATOM     24  H1  UNL     1      30.469  48.689   5.283  1.00  0.00     0.171 HD
BRANCH  22  25
HETATM   25  C7  UNL     1      32.797  47.566   6.883  1.00  0.00     0.033 A 
HETATM   26  C8  UNL     1      32.809  46.640   5.860  1.00  0.00     0.017 A 
HETATM   27  C9  UNL     1      33.781  45.687   5.702  1.00  0.00     0.002 A 
HETATM   28  C10 UNL     1      34.831  45.626   6.619  1.00  0.00     0.016 A 
HETATM   29  C11 UNL     1      34.856  46.535   7.659  1.00  0.00     0.048 A 
HETATM   30  C13 UNL     1      33.864  47.471   7.776  1.00  0.00     0.033 A 
BRANCH  29  31
HETATM   31  C12 UNL     1      35.951  46.434   8.654  1.00  0.00     0.417 C 
HETATM   32  F1  UNL     1      36.886  47.433   8.350  1.00  0.00    -0.166 F 
HETATM   33  F2  UNL     1      35.449  46.629   9.940  1.00  0.00    -0.166 F 
HETATM   34  F3  UNL     1      36.572  45.229   8.504  1.00  0.00    -0.166 F 
ENDBRANCH  29  31
ENDBRANCH  22  25
ENDBRANCH   4  21
TORSDOF 7
ENDMDL
MODEL 5
REMARK VINA RESULT: -7.984563671      6.112      8.492
REMARK  7 active torsions:
REMARK  status: ('A' for Active; 'I' for Inactive)
REMARK    1  A    between atoms: C1_2  and  C2_3 
REMARK       I    between atoms: C1_2  and  N3_24 
REMARK    2  A    between atoms: C2_3  and  C3_4 
REMARK    3  A    between atoms: C5_7  and  N1_8 
REMARK       I    between atoms: N1_8  and  C6_10 
REMARK    4  A    between atoms: C6_10  and  C7_12 
REMARK    5  A    between atoms: C11_16  and  C12_17 
REMARK    6  A    between atoms: N3_24  and  C14_26 
REMARK    7  A    between atoms: C17_29  and  N4_30 
ROOT
HETATM    1  C3  UNL     1      27.556  47.867   7.290  1.00  0.00     0.026 A 
HETATM    2  C4  UNL     1      26.546  48.793   7.135  1.00  0.00     0.078 A 
HETATM    3  S1  UNL     1      27.315  50.006   6.230  1.00  0.00    -0.064 SA
HETATM    4  C5  UNL     1      28.862  49.278   6.097  1.00  0.00     0.151 A 
HETATM    5  N2  UNL     1      28.717  48.144   6.752  1.00  0.00    -0.339 N 
ATOM      6  H2  UNL     1      29.497  47.492   6.838  1.00  0.00     0.168 HD
ENDROOT
BRANCH   1   7
HETATM    7  C2  UNL     1      27.257  46.642   8.136  1.00  0.00     0.160 C 
BRANCH   7   8
HETATM    8  C1  UNL     1      28.455  46.115   8.797  1.00  0.00     0.227 C 
HETATM    9  O1  UNL     1      28.786  46.503   9.944  1.00  0.00    -0.273 OA
HETATM   10  N3  UNL     1      29.260  45.164   8.130  1.00  0.00    -0.327 N 
ATOM     11  H3  UNL     1      28.963  44.857   7.204  1.00  0.00     0.169 HD
BRANCH  10  12
HETATM   12  C14 UNL     1      30.462  44.601   8.662  1.00  0.00     0.034 A 
HETATM   13  C15 UNL     1      31.699  45.181   8.358  1.00  0.00     0.032 A 
HETATM   14  C16 UNL     1      32.864  44.667   8.845  1.00  0.00     0.038 A 
HETATM   15  C17 UNL     1      32.843  43.547   9.659  1.00  0.00     0.103 A 
HETATM   16  C18 UNL     1      31.640  42.940   9.987  1.00  0.00     0.038 A 
HETATM   17  C19 UNL     1      30.477  43.499   9.469  1.00  0.00     0.032 A 
BRANCH  15  18
HETATM   18  N4  UNL     1      34.056  43.000  10.124  1.00  0.00    -0.116 N 
HETATM   19  O3  UNL     1      34.879  43.717  10.718  1.00  0.00    -0.532 OA
HETATM   20  O4  UNL     1      34.326  41.672   9.946  1.00  0.00    -0.532 OA
ENDBRANCH  15  18
ENDBRANCH  10  12
ENDBRANCH   7   8
ENDBRANCH   1   7
BRANCH   4  21
HETATM   21  N1  UNL     1      29.947  49.788   5.500  1.00  0.00    -0.303 N 
HETATM   22  C6  UNL     1      31.070  49.895   6.442  1.00  0.00     0.257 C 
HETATM   23  O2  UNL     1      31.051  50.770   7.299  1.00  0.00    -0.267 OA
ATOM     24  H1  UNL     1      29.988  50.066   4.520  1.00  0.00     0.171 HD
BRANCH  22  25
HETATM   25  C7  UNL     1      32.163  48.936   6.317  1.00  0.00     0.033 A 
HETATM   26  C8  UNL     1      32.235  47.993   5.312  1.00  0.00     0.017 A 
HETATM   27  C9  UNL     1      33.189  47.012   5.249  1.00  0.00     0.002 A 
HETATM   28  C10 UNL     1      34.156  46.937   6.253  1.00  0.00     0.016 A 
HETATM   29  C11 UNL     1      34.119  47.861   7.279  1.00  0.00     0.048 A 
HETATM   30  C13 UNL     1      33.148  48.826   7.299  1.00  0.00     0.033 A 
BRANCH  29  31
HETATM   31  C12 UNL     1      35.122  47.746   8.365  1.00  0.00     0.417 C 
HETATM   32  F1  UNL     1      35.873  46.587   8.121  1.00  0.00    -0.166 F 
HETATM   33  F2  UNL     1      35.958  48.861   8.366  1.00  0.00    -0.166 F 
HETATM   34  F3  UNL     1      34.469  47.572   9.550  1.00  0.00    -0.166 F 
ENDBRANCH  29  31
ENDBRANCH  22  25
ENDBRANCH   4  21
TORSDOF 7
ENDMDL
