MODEL 1
REMARK VINA RESULT: -9.110529668      0.000      0.000
REMARK  8 active torsions:
REMARK  status: ('A' for Active; 'I' for Inactive)
REMARK    1  A    between atoms: C2_2  and  C5_5 
REMARK    2  A    between atoms: C5_5  and  N2_9 
REMARK    3  A    between atoms: C8_12  and  N3_13 
REMARK    4  A    between atoms: C11_16  and  O1_17 
REMARK    5  A    between atoms: N4_22  and  C15_23 
REMARK    6  A    between atoms: C16_26  and  N6_27 
REMARK    7  A    between atoms: C17_32  and  N8_33 
REMARK    8  A    between atoms: N9_36  and  C20_37 
ROOT
HETATM    1  N2  UNL     1      21.976 -35.687  -6.439  1.00  0.00    -0.369 N 
HETATM    2  C6  UNL     1      21.476 -34.401  -5.993  1.00  0.00     0.126 C 
HETATM    3  C7  UNL     1      20.081 -34.509  -5.419  1.00  0.00     0.055 C 
HETATM    4  C8  UNL     1      19.913 -33.681  -4.175  1.00  0.00     0.226 C 
HETATM    5  C13 UNL     1      20.848 -34.068  -3.067  1.00  0.00     0.056 C 
HETATM    6  C14 UNL     1      21.020 -35.521  -2.864  1.00  0.00     0.143 C 
HETATM    7  N4  UNL     1      22.341 -35.982  -3.263  1.00  0.00    -0.215 N 
HETATM    8  C28 UNL     1      22.544 -36.898  -4.359  1.00  0.00     0.161 C 
HETATM    9  C29 UNL     1      23.050 -36.272  -5.616  1.00  0.00     0.144 C 
ENDROOT
BRANCH   7  10
HETATM   10  C15 UNL     1      23.465 -35.505  -2.519  1.00  0.00     0.709 A 
HETATM   11  N5  UNL     1      23.916 -36.155  -1.428  1.00  0.00    -0.022 N 
HETATM   12  C16 UNL     1      24.950 -35.778  -0.689  1.00  0.00     0.705 A 
ATOM     13  H5  UNL     1      23.423 -37.004  -1.149  1.00  0.00     0.203 HD
HETATM   14  N7  UNL     1      25.607 -34.668  -1.040  1.00  0.00    -0.022 N 
HETATM   15  C17 UNL     1      25.218 -33.961  -2.119  1.00  0.00     0.709 A 
ATOM     16  H7  UNL     1      26.406 -34.355  -0.489  1.00  0.00     0.203 HD
HETATM   17  N10 UNL     1      24.145 -34.393  -2.849  1.00  0.00    -0.021 N 
ATOM     18  H10 UNL     1      23.852 -33.856  -3.665  1.00  0.00     0.203 HD
BRANCH  12  19
HETATM   19  N6  UNL     1      25.292 -36.484   0.345  1.00  0.00    -0.234 N 
ATOM     20  H62 UNL     1      25.097 -37.483   0.408  1.00  0.00     0.174 HD
ATOM     21  H61 UNL     1      25.774 -36.037   1.125  1.00  0.00     0.174 HD
ENDBRANCH  12  19
BRANCH  15  22
HETATM   22  N8  UNL     1      25.904 -32.788  -2.500  1.00  0.00    -0.214 N 
HETATM   23  C18 UNL     1      25.671 -31.557  -1.795  1.00  0.00     0.160 C 
HETATM   24  C19 UNL     1      26.287 -30.415  -2.618  1.00  0.00     0.137 C 
HETATM   25  N9  UNL     1      25.926 -30.586  -3.982  1.00  0.00    -0.405 N 
HETATM   26  C26 UNL     1      26.341 -31.788  -4.615  1.00  0.00     0.137 C 
HETATM   27  C27 UNL     1      26.844 -32.776  -3.587  1.00  0.00     0.160 C 
BRANCH  25  28
HETATM   28  C20 UNL     1      25.988 -29.421  -4.793  1.00  0.00     0.079 C 
HETATM   29  C21 UNL     1      26.033 -28.115  -4.043  1.00  0.00     0.025 C 
HETATM   30  C22 UNL     1      26.597 -27.076  -4.988  1.00  0.00     0.002 C 
HETATM   31  C23 UNL     1      26.466 -27.493  -6.415  1.00  0.00     0.000 C 
HETATM   32  C24 UNL     1      25.106 -28.129  -6.673  1.00  0.00     0.002 C 
HETATM   33  C25 UNL     1      24.880 -29.349  -5.790  1.00  0.00     0.025 C 
ENDBRANCH  25  28
ENDBRANCH  15  22
ENDBRANCH   7  10
BRANCH   4  34
HETATM   34  N3  UNL     1      18.516 -33.676  -3.782  1.00  0.00     0.095 N 
HETATM   35  C9  UNL     1      18.220 -32.517  -2.961  1.00  0.00     0.275 C 
HETATM   36  C10 UNL     1      16.725 -32.335  -3.227  1.00  0.00     0.064 C 
HETATM   37  C11 UNL     1      16.678 -32.498  -4.729  1.00  0.00     0.148 C 
HETATM   38  C12 UNL     1      17.729 -33.529  -4.988  1.00  0.00     0.304 C 
BRANCH  37  39
HETATM   39  O1  UNL     1      17.015 -31.268  -5.313  1.00  0.00    -0.394 OA
ATOM     40  H1  UNL     1      17.165 -31.412  -6.239  1.00  0.00     0.210 HD
ENDBRANCH  37  39
ENDBRANCH   4  34
BRANCH   1  41
HETATM   41  C5  UNL     1      21.485 -36.366  -7.586  1.00  0.00     0.080 C 
HETATM   42  N1  UNL     1      20.953 -37.540  -7.524  1.00  0.00    -0.388 N 
ATOM     43  H12 UNL     1      20.600 -38.027  -8.347  1.00  0.00     0.157 HD
ATOM     44  H11 UNL     1      20.920 -37.942  -6.587  1.00  0.00     0.157 HD
BRANCH  41  45
HETATM   45  C2  UNL     1      21.535 -35.772  -8.968  1.00  0.00     0.007 C 
HETATM   46  C1  UNL     1      22.899 -35.214  -9.299  1.00  0.00     0.022 C 
HETATM   47  C3  UNL     1      21.251 -36.876  -9.975  1.00  0.00     0.022 C 
HETATM   48  C4  UNL     1      20.520 -34.680  -9.150  1.00  0.00     0.022 C 
ENDBRANCH  41  45
ENDBRANCH   1  41
TORSDOF 8
ENDMDL
MODEL 2
REMARK VINA RESULT: -8.401343184      1.035      1.253
REMARK  8 active torsions:
REMARK  status: ('A' for Active; 'I' for Inactive)
REMARK    1  A    between atoms: C2_2  and  C5_5 
REMARK    2  A    between atoms: C5_5  and  N2_9 
REMARK    3  A    between atoms: C8_12  and  N3_13 
REMARK    4  A    between atoms: C11_16  and  O1_17 
REMARK    5  A    between atoms: N4_22  and  C15_23 
REMARK    6  A    between atoms: C16_26  and  N6_27 
REMARK    7  A    between atoms: C17_32  and  N8_33 
REMARK    8  A    between atoms: N9_36  and  C20_37 
ROOT
HETATM    1  N2  UNL     1      22.218 -36.020  -6.942  1.00  0.00    -0.369 N 
HETATM    2  C6  UNL     1      21.981 -34.593  -6.841  1.00  0.00     0.126 C 
HETATM    3  C7  UNL     1      20.538 -34.286  -6.505  1.00  0.00     0.055 C 
HETATM    4  C8  UNL     1      20.415 -33.185  -5.488  1.00  0.00     0.226 C 
HETATM    5  C13 UNL     1      21.088 -33.496  -4.183  1.00  0.00     0.056 C 
HETATM    6  C14 UNL     1      20.888 -34.871  -3.681  1.00  0.00     0.143 C 
HETATM    7  N4  UNL     1      22.104 -35.667  -3.754  1.00  0.00    -0.215 N 
HETATM    8  C28 UNL     1      22.222 -36.826  -4.605  1.00  0.00     0.161 C 
HETATM    9  C29 UNL     1      23.013 -36.612  -5.852  1.00  0.00     0.144 C 
ENDROOT
BRANCH   7  10
HETATM   10  C15 UNL     1      23.206 -35.273  -2.932  1.00  0.00     0.709 A 
HETATM   11  N5  UNL     1      23.555 -35.976  -1.836  1.00  0.00    -0.022 N 
HETATM   12  C16 UNL     1      24.563 -35.678  -1.028  1.00  0.00     0.705 A 
ATOM     13  H5  UNL     1      23.001 -36.803  -1.611  1.00  0.00     0.203 HD
HETATM   14  N7  UNL     1      25.299 -34.598  -1.308  1.00  0.00    -0.022 N 
HETATM   15  C17 UNL     1      25.014 -33.842  -2.387  1.00  0.00     0.709 A 
ATOM     16  H7  UNL     1      26.080 -34.345  -0.703  1.00  0.00     0.203 HD
HETATM   17  N10 UNL     1      23.964 -34.193  -3.189  1.00  0.00    -0.021 N 
ATOM     18  H10 UNL     1      23.750 -33.620  -4.005  1.00  0.00     0.203 HD
BRANCH  12  19
HETATM   19  N6  UNL     1      24.804 -36.429   0.003  1.00  0.00    -0.234 N 
ATOM     20  H62 UNL     1      24.244 -36.377   0.854  1.00  0.00     0.174 HD
ATOM     21  H61 UNL     1      25.573 -37.098  -0.029  1.00  0.00     0.174 HD
ENDBRANCH  12  19
BRANCH  15  22
HETATM   22  N8  UNL     1      25.785 -32.700  -2.693  1.00  0.00    -0.214 N 
HETATM   23  C18 UNL     1      25.636 -31.501  -1.914  1.00  0.00     0.160 C 
HETATM   24  C19 UNL     1      26.337 -30.358  -2.663  1.00  0.00     0.137 C 
HETATM   25  N9  UNL     1      25.975 -30.419  -4.037  1.00  0.00    -0.405 N 
HETATM   26  C26 UNL     1      26.308 -31.606  -4.741  1.00  0.00     0.137 C 
HETATM   27  C27 UNL     1      26.731 -32.689  -3.774  1.00  0.00     0.160 C 
BRANCH  25  28
HETATM   28  C20 UNL     1      26.125 -29.214  -4.774  1.00  0.00     0.079 C 
HETATM   29  C21 UNL     1      26.077 -27.948  -3.958  1.00  0.00     0.025 C 
HETATM   30  C22 UNL     1      26.743 -26.863  -4.777  1.00  0.00     0.002 C 
HETATM   31  C23 UNL     1      26.780 -27.206  -6.229  1.00  0.00     0.000 C 
HETATM   32  C24 UNL     1      25.462 -27.826  -6.675  1.00  0.00     0.002 C 
HETATM   33  C25 UNL     1      25.140 -29.088  -5.888  1.00  0.00     0.025 C 
ENDBRANCH  25  28
ENDBRANCH  15  22
ENDBRANCH   7  10
BRANCH   4  34
HETATM   34  N3  UNL     1      19.020 -32.810  -5.348  1.00  0.00     0.095 N 
HETATM   35  C9  UNL     1      18.161 -33.967  -5.510  1.00  0.00     0.275 C 
HETATM   36  C10 UNL     1      16.933 -33.546  -4.703  1.00  0.00     0.064 C 
HETATM   37  C11 UNL     1      17.585 -32.988  -3.457  1.00  0.00     0.148 C 
HETATM   38  C12 UNL     1      18.830 -32.354  -3.987  1.00  0.00     0.304 C 
BRANCH  37  39
HETATM   39  O1  UNL     1      17.880 -34.060  -2.602  1.00  0.00    -0.394 OA
ATOM     40  H1  UNL     1      18.210 -33.704  -1.786  1.00  0.00     0.210 HD
ENDBRANCH  37  39
ENDBRANCH   4  34
BRANCH   1  41
HETATM   41  C5  UNL     1      21.729 -36.824  -8.006  1.00  0.00     0.080 C 
HETATM   42  N1  UNL     1      20.696 -37.587  -7.883  1.00  0.00    -0.388 N 
ATOM     43  H12 UNL     1      20.344 -38.164  -8.647  1.00  0.00     0.157 HD
ATOM     44  H11 UNL     1      20.264 -37.571  -6.958  1.00  0.00     0.157 HD
BRANCH  41  45
HETATM   45  C2  UNL     1      22.367 -36.848  -9.370  1.00  0.00     0.007 C 
HETATM   46  C1  UNL     1      23.611 -35.995  -9.430  1.00  0.00     0.022 C 
HETATM   47  C3  UNL     1      22.791 -38.276  -9.676  1.00  0.00     0.022 C 
HETATM   48  C4  UNL     1      21.423 -36.383 -10.442  1.00  0.00     0.022 C 
ENDBRANCH  41  45
ENDBRANCH   1  41
TORSDOF 8
ENDMDL
MODEL 3
REMARK VINA RESULT: -8.273637070      1.207      1.580
REMARK  8 active torsions:
REMARK  status: ('A' for Active; 'I' for Inactive)
REMARK    1  A    between atoms: C2_2  and  C5_5 
REMARK    2  A    between atoms: C5_5  and  N2_9 
REMARK    3  A    between atoms: C8_12  and  N3_13 
REMARK    4  A    between atoms: C11_16  and  O1_17 
REMARK    5  A    between atoms: N4_22  and  C15_23 
REMARK    6  A    between atoms: C16_26  and  N6_27 
REMARK    7  A    between atoms: C17_32  and  N8_33 
REMARK    8  A    between atoms: N9_36  and  C20_37 
ROOT
HETATM    1  N2  UNL     1      22.860 -35.866  -6.603  1.00  0.00    -0.369 N 
HETATM    2  C6  UNL     1      22.123 -34.645  -6.341  1.00  0.00     0.126 C 
HETATM    3  C7  UNL     1      20.728 -34.929  -5.830  1.00  0.00     0.055 C 
HETATM    4  C8  UNL     1      20.339 -34.009  -4.705  1.00  0.00     0.226 C 
HETATM    5  C13 UNL     1      21.246 -34.104  -3.513  1.00  0.00     0.056 C 
HETATM    6  C14 UNL     1      21.642 -35.474  -3.127  1.00  0.00     0.143 C 
HETATM    7  N4  UNL     1      23.046 -35.741  -3.401  1.00  0.00    -0.215 N 
HETATM    8  C28 UNL     1      23.473 -36.723  -4.367  1.00  0.00     0.161 C 
HETATM    9  C29 UNL     1      23.955 -36.162  -5.663  1.00  0.00     0.144 C 
ENDROOT
BRANCH   7  10
HETATM   10  C15 UNL     1      24.020 -34.997  -2.664  1.00  0.00     0.709 A 
HETATM   11  N5  UNL     1      24.374 -35.346  -1.412  1.00  0.00    -0.022 N 
HETATM   12  C16 UNL     1      25.269 -34.710  -0.668  1.00  0.00     0.705 A 
ATOM     13  H5  UNL     1      23.919 -36.163  -1.004  1.00  0.00     0.203 HD
HETATM   14  N7  UNL     1      25.874 -33.638  -1.186  1.00  0.00    -0.022 N 
HETATM   15  C17 UNL     1      25.575 -33.224  -2.433  1.00  0.00     0.709 A 
ATOM     16  H7  UNL     1      26.567 -33.130  -0.635  1.00  0.00     0.203 HD
HETATM   17  N10 UNL     1      24.645 -33.915  -3.160  1.00  0.00    -0.021 N 
ATOM     18  H10 UNL     1      24.420 -33.601  -4.103  1.00  0.00     0.203 HD
BRANCH  12  19
HETATM   19  N6  UNL     1      25.528 -35.138   0.530  1.00  0.00    -0.234 N 
ATOM     20  H62 UNL     1      26.376 -34.870   1.030  1.00  0.00     0.174 HD
ATOM     21  H61 UNL     1      24.869 -35.760   0.999  1.00  0.00     0.174 HD
ENDBRANCH  12  19
BRANCH  15  22
HETATM   22  N8  UNL     1      26.209 -32.093  -2.991  1.00  0.00    -0.214 N 
HETATM   23  C18 UNL     1      26.057 -30.805  -2.371  1.00  0.00     0.160 C 
HETATM   24  C19 UNL     1      26.569 -29.742  -3.356  1.00  0.00     0.137 C 
HETATM   25  N9  UNL     1      26.051 -30.026  -4.649  1.00  0.00    -0.405 N 
HETATM   26  C26 UNL     1      26.392 -31.281  -5.221  1.00  0.00     0.137 C 
HETATM   27  C27 UNL     1      27.014 -32.181  -4.177  1.00  0.00     0.160 C 
BRANCH  25  28
HETATM   28  C20 UNL     1      26.014 -28.936  -5.559  1.00  0.00     0.079 C 
HETATM   29  C21 UNL     1      26.456 -27.610  -4.994  1.00  0.00     0.025 C 
HETATM   30  C22 UNL     1      26.836 -26.730  -6.165  1.00  0.00     0.002 C 
HETATM   31  C23 UNL     1      26.222 -27.205  -7.440  1.00  0.00     0.000 C 
HETATM   32  C24 UNL     1      24.778 -27.636  -7.221  1.00  0.00     0.002 C 
HETATM   33  C25 UNL     1      24.674 -28.751  -6.189  1.00  0.00     0.025 C 
ENDBRANCH  25  28
ENDBRANCH  15  22
ENDBRANCH   7  10
BRANCH   4  34
HETATM   34  N3  UNL     1      18.937 -34.203  -4.385  1.00  0.00     0.095 N 
HETATM   35  C9  UNL     1      18.560 -33.406  -3.233  1.00  0.00     0.275 C 
HETATM   36  C10 UNL     1      17.064 -33.213  -3.477  1.00  0.00     0.064 C 
HETATM   37  C11 UNL     1      17.054 -32.858  -4.946  1.00  0.00     0.148 C 
HETATM   38  C12 UNL     1      18.166 -33.691  -5.499  1.00  0.00     0.304 C 
BRANCH  37  39
HETATM   39  O1  UNL     1      17.333 -31.489  -5.067  1.00  0.00    -0.394 OA
ATOM     40  H1  UNL     1      16.758 -31.018  -4.477  1.00  0.00     0.210 HD
ENDBRANCH  37  39
ENDBRANCH   4  34
BRANCH   1  41
HETATM   41  C5  UNL     1      22.570 -36.742  -7.682  1.00  0.00     0.080 C 
HETATM   42  N1  UNL     1      22.693 -36.389  -8.917  1.00  0.00    -0.388 N 
ATOM     43  H12 UNL     1      22.485 -37.018  -9.693  1.00  0.00     0.157 HD
ATOM     44  H11 UNL     1      23.010 -35.428  -9.054  1.00  0.00     0.157 HD
BRANCH  41  45
HETATM   45  C2  UNL     1      22.102 -38.159  -7.480  1.00  0.00     0.007 C 
HETATM   46  C1  UNL     1      21.646 -38.411  -6.063  1.00  0.00     0.022 C 
HETATM   47  C3  UNL     1      20.902 -38.402  -8.383  1.00  0.00     0.022 C 
HETATM   48  C4  UNL     1      23.171 -39.159  -7.817  1.00  0.00     0.022 C 
ENDBRANCH  41  45
ENDBRANCH   1  41
TORSDOF 8
ENDMDL
MODEL 4
REMARK VINA RESULT: -8.131560927      1.199      1.673
REMARK  8 active torsions:
REMARK  status: ('A' for Active; 'I' for Inactive)
REMARK    1  A    between atoms: C2_2  and  C5_5 
REMARK    2  A    between atoms: C5_5  and  N2_9 
REMARK    3  A    between atoms: C8_12  and  N3_13 
REMARK    4  A    between atoms: C11_16  and  O1_17 
REMARK    5  A    between atoms: N4_22  and  C15_23 
REMARK    6  A    between atoms: C16_26  and  N6_27 
REMARK    7  A    between atoms: C17_32  and  N8_33 
REMARK    8  A    between atoms: N9_36  and  C20_37 
ROOT
HETATM    1  N2  UNL     1      22.411 -36.243  -6.841  1.00  0.00    -0.369 N 
HETATM    2  C6  UNL     1      21.704 -34.985  -6.700  1.00  0.00     0.126 C 
HETATM    3  C7  UNL     1      20.382 -35.160  -5.986  1.00  0.00     0.055 C 
HETATM    4  C8  UNL     1      20.125 -34.062  -4.991  1.00  0.00     0.226 C 
HETATM    5  C13 UNL     1      21.168 -33.971  -3.916  1.00  0.00     0.056 C 
HETATM    6  C14 UNL     1      21.616 -35.264  -3.359  1.00  0.00     0.143 C 
HETATM    7  N4  UNL     1      22.978 -35.592  -3.750  1.00  0.00    -0.215 N 
HETATM    8  C28 UNL     1      23.293 -36.727  -4.583  1.00  0.00     0.161 C 
HETATM    9  C29 UNL     1      23.613 -36.395  -6.002  1.00  0.00     0.144 C 
ENDROOT
BRANCH   7  10
HETATM   10  C15 UNL     1      24.029 -34.751  -3.268  1.00  0.00     0.709 A 
HETATM   11  N5  UNL     1      24.537 -34.896  -2.027  1.00  0.00    -0.022 N 
HETATM   12  C16 UNL     1      25.510 -34.159  -1.511  1.00  0.00     0.705 A 
ATOM     13  H5  UNL     1      24.141 -35.631  -1.441  1.00  0.00     0.203 HD
HETATM   14  N7  UNL     1      26.039 -33.192  -2.266  1.00  0.00    -0.022 N 
HETATM   15  C17 UNL     1      25.586 -32.982  -3.518  1.00  0.00     0.709 A 
ATOM     16  H7  UNL     1      26.790 -32.610  -1.894  1.00  0.00     0.203 HD
HETATM   17  N10 UNL     1      24.580 -33.771  -4.004  1.00  0.00    -0.021 N 
ATOM     18  H10 UNL     1      24.239 -33.611  -4.952  1.00  0.00     0.203 HD
BRANCH  12  19
HETATM   19  N6  UNL     1      25.917 -34.390  -0.300  1.00  0.00    -0.234 N 
ATOM     20  H62 UNL     1      26.361 -35.269  -0.036  1.00  0.00     0.174 HD
ATOM     21  H61 UNL     1      25.797 -33.675   0.418  1.00  0.00     0.174 HD
ENDBRANCH  12  19
BRANCH  15  22
HETATM   22  N8  UNL     1      26.138 -31.964  -4.325  1.00  0.00    -0.214 N 
HETATM   23  C18 UNL     1      27.528 -31.622  -4.201  1.00  0.00     0.160 C 
HETATM   24  C19 UNL     1      27.760 -30.297  -4.944  1.00  0.00     0.137 C 
HETATM   25  N9  UNL     1      26.722 -29.389  -4.596  1.00  0.00    -0.405 N 
HETATM   26  C26 UNL     1      25.391 -29.779  -4.903  1.00  0.00     0.137 C 
HETATM   27  C27 UNL     1      25.348 -31.242  -5.284  1.00  0.00     0.160 C 
BRANCH  25  28
HETATM   28  C20 UNL     1      27.009 -28.011  -4.790  1.00  0.00     0.079 C 
HETATM   29  C21 UNL     1      26.353 -27.072  -3.811  1.00  0.00     0.025 C 
HETATM   30  C22 UNL     1      27.141 -25.780  -3.835  1.00  0.00     0.002 C 
HETATM   31  C23 UNL     1      27.945 -25.642  -5.085  1.00  0.00     0.000 C 
HETATM   32  C24 UNL     1      27.143 -26.092  -6.299  1.00  0.00     0.002 C 
HETATM   33  C25 UNL     1      26.694 -27.541  -6.170  1.00  0.00     0.025 C 
ENDBRANCH  25  28
ENDBRANCH  15  22
ENDBRANCH   7  10
BRANCH   4  34
HETATM   34  N3  UNL     1      18.772 -34.181  -4.479  1.00  0.00     0.095 N 
HETATM   35  C9  UNL     1      18.600 -33.362  -3.293  1.00  0.00     0.275 C 
HETATM   36  C10 UNL     1      17.096 -33.092  -3.331  1.00  0.00     0.064 C 
HETATM   37  C11 UNL     1      16.902 -32.740  -4.788  1.00  0.00     0.148 C 
HETATM   38  C12 UNL     1      17.882 -33.632  -5.481  1.00  0.00     0.304 C 
BRANCH  37  39
HETATM   39  O1  UNL     1      17.233 -31.388  -4.959  1.00  0.00    -0.394 OA
ATOM     40  H1  UNL     1      18.125 -31.340  -5.279  1.00  0.00     0.210 HD
ENDBRANCH  37  39
ENDBRANCH   4  34
BRANCH   1  41
HETATM   41  C5  UNL     1      21.999 -37.281  -7.718  1.00  0.00     0.080 C 
HETATM   42  N1  UNL     1      21.433 -38.362  -7.298  1.00  0.00    -0.388 N 
ATOM     43  H12 UNL     1      21.137 -39.108  -7.928  1.00  0.00     0.157 HD
ATOM     44  H11 UNL     1      21.313 -38.413  -6.286  1.00  0.00     0.157 HD
BRANCH  41  45
HETATM   45  C2  UNL     1      22.177 -37.206  -9.211  1.00  0.00     0.007 C 
HETATM   46  C1  UNL     1      23.472 -36.530  -9.596  1.00  0.00     0.022 C 
HETATM   47  C3  UNL     1      22.236 -38.624  -9.759  1.00  0.00     0.022 C 
HETATM   48  C4  UNL     1      21.047 -36.477  -9.878  1.00  0.00     0.022 C 
ENDBRANCH  41  45
ENDBRANCH   1  41
TORSDOF 8
ENDMDL
MODEL 5
REMARK VINA RESULT: -8.082408641      1.599      2.019
REMARK  8 active torsions:
REMARK  status: ('A' for Active; 'I' for Inactive)
REMARK    1  A    between atoms: C2_2  and  C5_5 
REMARK    2  A    between atoms: C5_5  and  N2_9 
REMARK    3  A    between atoms: C8_12  and  N3_13 
REMARK    4  A    between atoms: C11_16  and  O1_17 
REMARK    5  A    between atoms: N4_22  and  C15_23 
REMARK    6  A    between atoms: C16_26  and  N6_27 
REMARK    7  A    between atoms: C17_32  and  N8_33 
REMARK    8  A    between atoms: N9_36  and  C20_37 
ROOT
HETATM    1  N2  UNL     1      22.558 -36.518  -5.729  1.00  0.00    -0.369 N 
HETATM    2  C6  UNL     1      21.873 -35.244  -5.844  1.00  0.00     0.126 C 
HETATM    3  C7  UNL     1      20.476 -35.304  -5.267  1.00  0.00     0.055 C 
HETATM    4  C8  UNL     1      20.140 -34.074  -4.468  1.00  0.00     0.226 C 
HETATM    5  C13 UNL     1      21.060 -33.845  -3.305  1.00  0.00     0.056 C 
HETATM    6  C14 UNL     1      21.409 -35.052  -2.528  1.00  0.00     0.143 C 
HETATM    7  N4  UNL     1      22.797 -35.447  -2.713  1.00  0.00    -0.215 N 
HETATM    8  C28 UNL     1      23.171 -36.690  -3.341  1.00  0.00     0.161 C 
HETATM    9  C29 UNL     1      23.655 -36.564  -4.747  1.00  0.00     0.144 C 
ENDROOT
BRANCH   7  10
HETATM   10  C15 UNL     1      23.810 -34.558  -2.235  1.00  0.00     0.709 A 
HETATM   11  N5  UNL     1      24.531 -34.839  -1.132  1.00  0.00    -0.022 N 
HETATM   12  C16 UNL     1      25.486 -34.069  -0.630  1.00  0.00     0.705 A 
ATOM     13  H5  UNL     1      24.326 -35.711  -0.645  1.00  0.00     0.203 HD
HETATM   14  N7  UNL     1      25.767 -32.921  -1.255  1.00  0.00    -0.022 N 
HETATM   15  C17 UNL     1      25.090 -32.569  -2.365  1.00  0.00     0.709 A 
ATOM     16  H7  UNL     1      26.498 -32.310  -0.890  1.00  0.00     0.203 HD
HETATM   17  N10 UNL     1      24.115 -33.398  -2.843  1.00  0.00    -0.021 N 
ATOM     18  H10 UNL     1      23.604 -33.130  -3.684  1.00  0.00     0.203 HD
BRANCH  12  19
HETATM   19  N6  UNL     1      26.114 -34.441   0.444  1.00  0.00    -0.234 N 
ATOM     20  H62 UNL     1      25.711 -34.328   1.374  1.00  0.00     0.174 HD
ATOM     21  H61 UNL     1      27.039 -34.864   0.367  1.00  0.00     0.174 HD
ENDBRANCH  12  19
BRANCH  15  22
HETATM   22  N8  UNL     1      25.379 -31.360  -3.035  1.00  0.00    -0.214 N 
HETATM   23  C18 UNL     1      25.200 -31.265  -4.457  1.00  0.00     0.160 C 
HETATM   24  C19 UNL     1      25.889 -29.977  -4.937  1.00  0.00     0.137 C 
HETATM   25  N9  UNL     1      27.169 -29.887  -4.327  1.00  0.00    -0.405 N 
HETATM   26  C26 UNL     1      27.208 -29.842  -2.908  1.00  0.00     0.137 C 
HETATM   27  C27 UNL     1      25.855 -30.199  -2.335  1.00  0.00     0.160 C 
BRANCH  25  28
HETATM   28  C20 UNL     1      28.116 -29.056  -4.986  1.00  0.00     0.079 C 
HETATM   29  C21 UNL     1      27.553 -27.802  -5.603  1.00  0.00     0.025 C 
HETATM   30  C22 UNL     1      28.705 -26.838  -5.786  1.00  0.00     0.002 C 
HETATM   31  C23 UNL     1      30.023 -27.540  -5.787  1.00  0.00     0.000 C 
HETATM   32  C24 UNL     1      29.949 -28.834  -6.589  1.00  0.00     0.002 C 
HETATM   33  C25 UNL     1      28.896 -29.782  -6.031  1.00  0.00     0.025 C 
ENDBRANCH  25  28
ENDBRANCH  15  22
ENDBRANCH   7  10
BRANCH   4  34
HETATM   34  N3  UNL     1      18.737 -34.105  -4.102  1.00  0.00     0.095 N 
HETATM   35  C9  UNL     1      18.444 -33.087  -3.110  1.00  0.00     0.275 C 
HETATM   36  C10 UNL     1      16.959 -32.835  -3.368  1.00  0.00     0.064 C 
HETATM   37  C11 UNL     1      16.937 -32.753  -4.877  1.00  0.00     0.148 C 
HETATM   38  C12 UNL     1      17.975 -33.750  -5.281  1.00  0.00     0.304 C 
BRANCH  37  39
HETATM   39  O1  UNL     1      17.306 -31.453  -5.250  1.00  0.00    -0.394 OA
ATOM     40  H1  UNL     1      18.089 -31.509  -5.783  1.00  0.00     0.210 HD
ENDBRANCH  37  39
ENDBRANCH   4  34
BRANCH   1  41
HETATM   41  C5  UNL     1      22.218 -37.664  -6.496  1.00  0.00     0.080 C 
HETATM   42  N1  UNL     1      21.753 -38.744  -5.964  1.00  0.00    -0.388 N 
ATOM     43  H12 UNL     1      21.508 -39.566  -6.514  1.00  0.00     0.157 HD
ATOM     44  H11 UNL     1      21.656 -38.708  -4.948  1.00  0.00     0.157 HD
BRANCH  41  45
HETATM   45  C2  UNL     1      22.361 -37.715  -7.994  1.00  0.00     0.007 C 
HETATM   46  C1  UNL     1      23.560 -36.935  -8.478  1.00  0.00     0.022 C 
HETATM   47  C3  UNL     1      22.577 -39.163  -8.406  1.00  0.00     0.022 C 
HETATM   48  C4  UNL     1      21.141 -37.190  -8.695  1.00  0.00     0.022 C 
ENDBRANCH  41  45
ENDBRANCH   1  41
TORSDOF 8
ENDMDL
