MODEL 1
REMARK VINA RESULT: -8.814944745      0.000      0.000
REMARK  6 active torsions:
REMARK  status: ('A' for Active; 'I' for Inactive)
REMARK    1  A    between atoms: N1_1  and  C1_4 
REMARK    2  A    between atoms: C2_7  and  C3_8 
REMARK    3  A    between atoms: C6_11  and  N3_12 
REMARK    4  A    between atoms: C14_25  and  N6_26 
REMARK    5  A    between atoms: N6_26  and  N7_28 
REMARK       I    between atoms: N7_28  and  C15_30 
REMARK       I    between atoms: C15_30  and  N8_32 
REMARK    6  A    between atoms: C20_40  and  N10_41 
ROOT
HETATM    1  C1  UNL     1      19.933 -35.254  -6.805  1.00  0.00     0.118 A 
HETATM    2  N2  UNL     1      19.993 -35.944  -7.966  1.00  0.00    -0.327 N 
ATOM      3  H2  UNL     1      19.151 -35.984  -8.540  1.00  0.00     0.169 HD
HETATM    4  C2  UNL     1      21.084 -36.578  -8.414  1.00  0.00     0.118 A 
HETATM    5  N4  UNL     1      22.185 -36.527  -7.666  1.00  0.00    -0.327 N 
ATOM      6  H4  UNL     1      23.032 -36.999  -7.980  1.00  0.00     0.169 HD
HETATM    7  C13 UNL     1      22.186 -35.851  -6.495  1.00  0.00     0.140 A 
HETATM    8  N5  UNL     1      23.292 -35.821  -5.738  1.00  0.00    -0.174 N 
ATOM      9  H5  UNL     1      24.127 -36.302  -6.070  1.00  0.00     0.186 HD
HETATM   10  C14 UNL     1      23.340 -35.181  -4.560  1.00  0.00     0.700 A 
HETATM   11  N9  UNL     1      22.257 -34.547  -4.116  1.00  0.00    -0.174 N 
ATOM     12  H9  UNL     1      22.302 -34.064  -3.219  1.00  0.00     0.186 HD
HETATM   13  C20 UNL     1      21.075 -34.523  -4.827  1.00  0.00     0.137 A 
HETATM   14  C28 UNL     1      21.046 -35.181  -6.017  1.00  0.00     0.097 A 
ENDROOT
BRANCH   4  15
HETATM   15  C3  UNL     1      21.059 -37.309  -9.689  1.00  0.00     0.008 A 
HETATM   16  C4  UNL     1      20.008 -38.204  -9.921  1.00  0.00     0.017 A 
HETATM   17  C5  UNL     1      19.922 -38.918 -11.084  1.00  0.00     0.030 A 
HETATM   18  C6  UNL     1      20.873 -38.769 -12.057  1.00  0.00     0.030 A 
HETATM   19  C11 UNL     1      21.915 -37.879 -11.825  1.00  0.00     0.030 A 
HETATM   20  C12 UNL     1      22.018 -37.150 -10.655  1.00  0.00     0.017 A 
BRANCH  18  21
HETATM   21  N3  UNL     1      20.756 -39.510 -13.257  1.00  0.00    -0.379 N 
HETATM   22  C7  UNL     1      19.738 -40.511 -13.367  1.00  0.00     0.133 C 
HETATM   23  C8  UNL     1      19.255 -40.744 -14.786  1.00  0.00     0.093 C 
HETATM   24  S1  UNL     1      20.666 -41.198 -15.866  1.00  0.00    -0.166 SA
HETATM   25  C9  UNL     1      22.141 -40.558 -14.996  1.00  0.00     0.093 C 
HETATM   26  C10 UNL     1      21.689 -39.237 -14.354  1.00  0.00     0.133 C 
ENDBRANCH  18  21
ENDBRANCH   4  15
BRANCH   1  27
HETATM   27  N1  UNL     1      18.840 -34.704  -6.440  1.00  0.00    -0.385 N 
ATOM     28  H12 UNL     1      18.449 -34.887  -5.516  1.00  0.00     0.157 HD
ATOM     29  H11 UNL     1      18.335 -34.092  -7.080  1.00  0.00     0.157 HD
ENDBRANCH   1  27
BRANCH  13  30
HETATM   30  N10 UNL     1      20.008 -33.769  -4.296  1.00  0.00    -0.364 N 
HETATM   31  C21 UNL     1      18.934 -34.092  -3.385  1.00  0.00     0.135 A 
HETATM   32  C22 UNL     1      18.305 -32.732  -3.564  1.00  0.00    -0.008 A 
HETATM   33  C23 UNL     1      18.149 -31.911  -2.318  1.00  0.00     0.013 C 
HETATM   34  C26 UNL     1      16.947 -32.712  -4.183  1.00  0.00     0.013 C 
HETATM   35  C27 UNL     1      19.462 -32.427  -4.438  1.00  0.00     0.135 A 
HETATM   36  C24 UNL     1      17.286 -30.759  -2.789  1.00  0.00     0.001 C 
HETATM   37  C25 UNL     1      16.464 -31.296  -3.942  1.00  0.00     0.001 C 
ENDBRANCH  13  30
BRANCH  10  38
HETATM   38  N6  UNL     1      24.462 -35.206  -3.885  1.00  0.00    -0.128 N 
ATOM     39  H6  UNL     1      24.939 -36.082  -3.675  1.00  0.00     0.205 HD
BRANCH  38  40
HETATM   40  N7  UNL     1      24.972 -33.980  -3.467  1.00  0.00    -0.237 N 
HETATM   41  C15 UNL     1      25.965 -33.280  -4.206  1.00  0.00     0.337 C 
HETATM   42  O1  UNL     1      26.431 -33.745  -5.281  1.00  0.00    -0.245 OA
HETATM   43  N8  UNL     1      26.452 -32.040  -3.743  1.00  0.00    -0.329 N 
HETATM   44  C16 UNL     1      27.456 -31.341  -4.504  1.00  0.00     0.153 C 
HETATM   45  C19 UNL     1      25.924 -31.497  -2.505  1.00  0.00     0.153 C 
HETATM   46  C17 UNL     1      27.212 -29.855  -4.517  1.00  0.00     0.187 C 
HETATM   47  O2  UNL     1      26.156 -29.508  -3.691  1.00  0.00    -0.388 OA
HETATM   48  C18 UNL     1      26.299 -30.026  -2.406  1.00  0.00     0.187 C 
ATOM     49  H7  UNL     1      24.621 -33.569  -2.601  1.00  0.00     0.192 HD
ENDBRANCH  38  40
ENDBRANCH  10  38
TORSDOF 6
ENDMDL
MODEL 2
REMARK VINA RESULT: -8.541506087      6.469     10.882
REMARK  6 active torsions:
REMARK  status: ('A' for Active; 'I' for Inactive)
REMARK    1  A    between atoms: N1_1  and  C1_4 
REMARK    2  A    between atoms: C2_7  and  C3_8 
REMARK    3  A    between atoms: C6_11  and  N3_12 
REMARK    4  A    between atoms: C14_25  and  N6_26 
REMARK    5  A    between atoms: N6_26  and  N7_28 
REMARK       I    between atoms: N7_28  and  C15_30 
REMARK       I    between atoms: C15_30  and  N8_32 
REMARK    6  A    between atoms: C20_40  and  N10_41 
ROOT
HETATM    1  C1  UNL     1      25.883 -32.033  -3.994  1.00  0.00     0.118 A 
HETATM    2  N2  UNL     1      26.742 -31.093  -4.447  1.00  0.00    -0.327 N 
ATOM      3  H2  UNL     1      27.636 -30.993  -3.966  1.00  0.00     0.169 HD
HETATM    4  C2  UNL     1      26.499 -30.282  -5.484  1.00  0.00     0.118 A 
HETATM    5  N4  UNL     1      25.332 -30.410  -6.114  1.00  0.00    -0.327 N 
ATOM      6  H4  UNL     1      25.117 -29.808  -6.908  1.00  0.00     0.169 HD
HETATM    7  C13 UNL     1      24.432 -31.334  -5.707  1.00  0.00     0.140 A 
HETATM    8  N5  UNL     1      23.252 -31.443  -6.332  1.00  0.00    -0.174 N 
ATOM      9  H5  UNL     1      23.057 -30.830  -7.123  1.00  0.00     0.186 HD
HETATM   10  C14 UNL     1      22.318 -32.330  -5.956  1.00  0.00     0.700 A 
HETATM   11  N9  UNL     1      22.561 -33.138  -4.927  1.00  0.00    -0.174 N 
ATOM     12  H9  UNL     1      21.845 -33.808  -4.648  1.00  0.00     0.186 HD
HETATM   13  C20 UNL     1      23.747 -33.098  -4.224  1.00  0.00     0.137 A 
HETATM   14  C28 UNL     1      24.679 -32.190  -4.619  1.00  0.00     0.097 A 
ENDROOT
BRANCH   4  15
HETATM   15  C3  UNL     1      27.491 -29.283  -5.908  1.00  0.00     0.008 A 
HETATM   16  C4  UNL     1      28.340 -29.601  -6.973  1.00  0.00     0.017 A 
HETATM   17  C5  UNL     1      29.286 -28.720  -7.419  1.00  0.00     0.030 A 
HETATM   18  C6  UNL     1      29.423 -27.495  -6.825  1.00  0.00     0.030 A 
HETATM   19  C11 UNL     1      28.577 -27.181  -5.767  1.00  0.00     0.030 A 
HETATM   20  C12 UNL     1      27.616 -28.059  -5.304  1.00  0.00     0.017 A 
BRANCH  18  21
HETATM   21  N3  UNL     1      30.401 -26.596  -7.311  1.00  0.00    -0.379 N 
HETATM   22  C7  UNL     1      30.711 -26.586  -8.710  1.00  0.00     0.133 C 
HETATM   23  C8  UNL     1      31.197 -25.244  -9.223  1.00  0.00     0.093 C 
HETATM   24  S1  UNL     1      32.671 -24.703  -8.275  1.00  0.00    -0.166 SA
HETATM   25  C9  UNL     1      32.576 -25.628  -6.701  1.00  0.00     0.093 C 
HETATM   26  C10 UNL     1      31.078 -25.703  -6.366  1.00  0.00     0.133 C 
ENDBRANCH  18  21
ENDBRANCH   4  15
BRANCH   1  27
HETATM   27  N1  UNL     1      26.185 -32.743  -2.976  1.00  0.00    -0.385 N 
ATOM     28  H12 UNL     1      27.040 -32.561  -2.451  1.00  0.00     0.157 HD
ATOM     29  H11 UNL     1      25.584 -33.516  -2.693  1.00  0.00     0.157 HD
ENDBRANCH   1  27
BRANCH  13  30
HETATM   30  N10 UNL     1      23.927 -34.042  -3.191  1.00  0.00    -0.364 N 
HETATM   31  C21 UNL     1      24.041 -35.482  -3.186  1.00  0.00     0.135 A 
HETATM   32  C22 UNL     1      24.063 -35.526  -1.678  1.00  0.00    -0.008 A 
HETATM   33  C23 UNL     1      25.279 -36.147  -1.056  1.00  0.00     0.013 C 
HETATM   34  C26 UNL     1      22.921 -36.230  -1.022  1.00  0.00     0.013 C 
HETATM   35  C27 UNL     1      24.013 -34.046  -1.738  1.00  0.00     0.135 A 
HETATM   36  C24 UNL     1      24.881 -36.260   0.401  1.00  0.00     0.001 C 
HETATM   37  C25 UNL     1      23.372 -36.384   0.416  1.00  0.00     0.001 C 
ENDBRANCH  13  30
BRANCH  10  38
HETATM   38  N6  UNL     1      21.191 -32.365  -6.622  1.00  0.00    -0.128 N 
ATOM     39  H6  UNL     1      21.171 -32.537  -7.628  1.00  0.00     0.205 HD
BRANCH  38  40
HETATM   40  N7  UNL     1      20.023 -32.158  -5.895  1.00  0.00    -0.237 N 
HETATM   41  C15 UNL     1      19.444 -33.173  -5.084  1.00  0.00     0.337 C 
HETATM   42  O1  UNL     1      19.970 -34.316  -4.989  1.00  0.00    -0.245 OA
HETATM   43  N8  UNL     1      18.259 -32.917  -4.364  1.00  0.00    -0.329 N 
HETATM   44  C16 UNL     1      17.686 -33.954  -3.543  1.00  0.00     0.153 C 
HETATM   45  C19 UNL     1      17.645 -31.606  -4.468  1.00  0.00     0.153 C 
HETATM   46  C17 UNL     1      17.141 -33.405  -2.251  1.00  0.00     0.187 C 
HETATM   47  O2  UNL     1      17.207 -32.023  -2.220  1.00  0.00    -0.388 OA
HETATM   48  C18 UNL     1      16.631 -31.441  -3.346  1.00  0.00     0.187 C 
ATOM     49  H7  UNL     1      19.566 -31.247  -5.945  1.00  0.00     0.192 HD
ENDBRANCH  38  40
ENDBRANCH  10  38
TORSDOF 6
ENDMDL
MODEL 3
REMARK VINA RESULT: -8.397325647      0.778      1.149
REMARK  6 active torsions:
REMARK  status: ('A' for Active; 'I' for Inactive)
REMARK    1  A    between atoms: N1_1  and  C1_4 
REMARK    2  A    between atoms: C2_7  and  C3_8 
REMARK    3  A    between atoms: C6_11  and  N3_12 
REMARK    4  A    between atoms: C14_25  and  N6_26 
REMARK    5  A    between atoms: N6_26  and  N7_28 
REMARK       I    between atoms: N7_28  and  C15_30 
REMARK       I    between atoms: C15_30  and  N8_32 
REMARK    6  A    between atoms: C20_40  and  N10_41 
ROOT
HETATM    1  C1  UNL     1      20.373 -35.407  -6.795  1.00  0.00     0.118 A 
HETATM    2  N2  UNL     1      20.458 -36.095  -7.955  1.00  0.00    -0.327 N 
ATOM      3  H2  UNL     1      19.605 -36.216  -8.501  1.00  0.00     0.169 HD
HETATM    4  C2  UNL     1      21.588 -36.629  -8.437  1.00  0.00     0.118 A 
HETATM    5  N4  UNL     1      22.703 -36.472  -7.726  1.00  0.00    -0.327 N 
ATOM      6  H4  UNL     1      23.580 -36.867  -8.065  1.00  0.00     0.169 HD
HETATM    7  C13 UNL     1      22.680 -35.793  -6.557  1.00  0.00     0.140 A 
HETATM    8  N5  UNL     1      23.802 -35.656  -5.836  1.00  0.00    -0.174 N 
ATOM      9  H5  UNL     1      24.667 -36.060  -6.194  1.00  0.00     0.186 HD
HETATM   10  C14 UNL     1      23.829 -35.008  -4.663  1.00  0.00     0.700 A 
HETATM   11  N9  UNL     1      22.707 -34.475  -4.185  1.00  0.00    -0.174 N 
ATOM     12  H9  UNL     1      22.736 -33.984  -3.291  1.00  0.00     0.186 HD
HETATM   13  C20 UNL     1      21.505 -34.563  -4.857  1.00  0.00     0.137 A 
HETATM   14  C28 UNL     1      21.499 -35.228  -6.043  1.00  0.00     0.097 A 
ENDROOT
BRANCH   4  15
HETATM   15  C3  UNL     1      21.589 -37.366  -9.709  1.00  0.00     0.008 A 
HETATM   16  C4  UNL     1      22.154 -38.646  -9.733  1.00  0.00     0.017 A 
HETATM   17  C5  UNL     1      22.189 -39.388 -10.881  1.00  0.00     0.030 A 
HETATM   18  C6  UNL     1      21.668 -38.888 -12.044  1.00  0.00     0.030 A 
HETATM   19  C11 UNL     1      21.107 -37.616 -12.016  1.00  0.00     0.030 A 
HETATM   20  C12 UNL     1      21.063 -36.852 -10.865  1.00  0.00     0.017 A 
BRANCH  18  21
HETATM   21  N3  UNL     1      21.706 -39.679 -13.216  1.00  0.00    -0.379 N 
HETATM   22  C7  UNL     1      22.944 -39.832 -13.920  1.00  0.00     0.133 C 
HETATM   23  C8  UNL     1      23.061 -41.137 -14.682  1.00  0.00     0.093 C 
HETATM   24  S1  UNL     1      21.671 -41.304 -15.866  1.00  0.00    -0.166 SA
HETATM   25  C9  UNL     1      20.370 -40.198 -15.212  1.00  0.00     0.093 C 
HETATM   26  C10 UNL     1      20.471 -40.315 -13.684  1.00  0.00     0.133 C 
ENDBRANCH  18  21
ENDBRANCH   4  15
BRANCH   1  27
HETATM   27  N1  UNL     1      19.246 -34.957  -6.396  1.00  0.00    -0.385 N 
ATOM     28  H12 UNL     1      18.573 -34.577  -7.061  1.00  0.00     0.157 HD
ATOM     29  H11 UNL     1      19.018 -34.954  -5.402  1.00  0.00     0.157 HD
ENDBRANCH   1  27
BRANCH  13  30
HETATM   30  N10 UNL     1      20.391 -33.907  -4.293  1.00  0.00    -0.364 N 
HETATM   31  C21 UNL     1      19.404 -34.310  -3.318  1.00  0.00     0.135 A 
HETATM   32  C22 UNL     1      18.625 -33.031  -3.504  1.00  0.00    -0.008 A 
HETATM   33  C23 UNL     1      18.443 -32.187  -2.277  1.00  0.00     0.013 C 
HETATM   34  C26 UNL     1      17.244 -33.175  -4.051  1.00  0.00     0.013 C 
HETATM   35  C27 UNL     1      19.698 -32.636  -4.447  1.00  0.00     0.135 A 
HETATM   36  C24 UNL     1      17.440 -31.150  -2.737  1.00  0.00     0.001 C 
HETATM   37  C25 UNL     1      16.624 -31.811  -3.828  1.00  0.00     0.001 C 
ENDBRANCH  13  30
BRANCH  10  38
HETATM   38  N6  UNL     1      24.969 -34.926  -4.024  1.00  0.00    -0.128 N 
ATOM     39  H6  UNL     1      25.552 -35.747  -3.865  1.00  0.00     0.205 HD
BRANCH  38  40
HETATM   40  N7  UNL     1      25.348 -33.665  -3.571  1.00  0.00    -0.237 N 
HETATM   41  C15 UNL     1      26.240 -32.833  -4.304  1.00  0.00     0.337 C 
HETATM   42  O1  UNL     1      26.730 -33.206  -5.404  1.00  0.00    -0.245 OA
HETATM   43  N8  UNL     1      26.594 -31.563  -3.806  1.00  0.00    -0.329 N 
HETATM   44  C16 UNL     1      27.496 -30.729  -4.560  1.00  0.00     0.153 C 
HETATM   45  C19 UNL     1      26.037 -31.124  -2.539  1.00  0.00     0.153 C 
HETATM   46  C17 UNL     1      27.086 -29.281  -4.515  1.00  0.00     0.187 C 
HETATM   47  O2  UNL     1      26.017 -29.083  -3.657  1.00  0.00    -0.388 OA
HETATM   48  C18 UNL     1      26.246 -29.625  -2.395  1.00  0.00     0.187 C 
ATOM     49  H7  UNL     1      24.973 -33.326  -2.685  1.00  0.00     0.192 HD
ENDBRANCH  38  40
ENDBRANCH  10  38
TORSDOF 6
ENDMDL
MODEL 4
REMARK VINA RESULT: -8.326490419      1.416      2.094
REMARK  6 active torsions:
REMARK  status: ('A' for Active; 'I' for Inactive)
REMARK    1  A    between atoms: N1_1  and  C1_4 
REMARK    2  A    between atoms: C2_7  and  C3_8 
REMARK    3  A    between atoms: C6_11  and  N3_12 
REMARK    4  A    between atoms: C14_25  and  N6_26 
REMARK    5  A    between atoms: N6_26  and  N7_28 
REMARK       I    between atoms: N7_28  and  C15_30 
REMARK       I    between atoms: C15_30  and  N8_32 
REMARK    6  A    between atoms: C20_40  and  N10_41 
ROOT
HETATM    1  C1  UNL     1      19.881 -35.234  -6.778  1.00  0.00     0.118 A 
HETATM    2  N2  UNL     1      19.937 -35.916  -7.945  1.00  0.00    -0.327 N 
ATOM      3  H2  UNL     1      19.104 -35.924  -8.532  1.00  0.00     0.169 HD
HETATM    4  C2  UNL     1      21.014 -36.582  -8.381  1.00  0.00     0.118 A 
HETATM    5  N4  UNL     1      22.103 -36.573  -7.615  1.00  0.00    -0.327 N 
ATOM      6  H4  UNL     1      22.940 -37.071  -7.920  1.00  0.00     0.169 HD
HETATM    7  C13 UNL     1      22.108 -35.908  -6.438  1.00  0.00     0.140 A 
HETATM    8  N5  UNL     1      23.202 -35.921  -5.663  1.00  0.00    -0.174 N 
ATOM      9  H5  UNL     1      24.026 -36.426  -5.986  1.00  0.00     0.186 HD
HETATM   10  C14 UNL     1      23.251 -35.293  -4.479  1.00  0.00     0.700 A 
HETATM   11  N9  UNL     1      22.183 -34.628  -4.046  1.00  0.00    -0.174 N 
ATOM     12  H9  UNL     1      22.229 -34.154  -3.144  1.00  0.00     0.186 HD
HETATM   13  C20 UNL     1      21.014 -34.559  -4.776  1.00  0.00     0.137 A 
HETATM   14  C28 UNL     1      20.983 -35.205  -5.972  1.00  0.00     0.097 A 
ENDROOT
BRANCH   4  15
HETATM   15  C3  UNL     1      20.986 -37.301  -9.663  1.00  0.00     0.008 A 
HETATM   16  C4  UNL     1      19.973 -38.243  -9.874  1.00  0.00     0.017 A 
HETATM   17  C5  UNL     1      19.886 -38.948 -11.042  1.00  0.00     0.030 A 
HETATM   18  C6  UNL     1      20.799 -38.744 -12.041  1.00  0.00     0.030 A 
HETATM   19  C11 UNL     1      21.804 -37.807 -11.829  1.00  0.00     0.030 A 
HETATM   20  C12 UNL     1      21.907 -37.086 -10.655  1.00  0.00     0.017 A 
BRANCH  18  21
HETATM   21  N3  UNL     1      20.682 -39.478 -13.246  1.00  0.00    -0.379 N 
HETATM   22  C7  UNL     1      19.679 -40.495 -13.352  1.00  0.00     0.133 C 
HETATM   23  C8  UNL     1      19.186 -40.725 -14.768  1.00  0.00     0.093 C 
HETATM   24  S1  UNL     1      20.592 -41.148 -15.866  1.00  0.00    -0.166 SA
HETATM   25  C9  UNL     1      22.065 -40.489 -15.007  1.00  0.00     0.093 C 
HETATM   26  C10 UNL     1      21.598 -39.181 -14.350  1.00  0.00     0.133 C 
ENDBRANCH  18  21
ENDBRANCH   4  15
BRANCH   1  27
HETATM   27  N1  UNL     1      18.801 -34.652  -6.426  1.00  0.00    -0.385 N 
ATOM     28  H12 UNL     1      17.983 -34.662  -7.034  1.00  0.00     0.157 HD
ATOM     29  H11 UNL     1      18.754 -34.150  -5.540  1.00  0.00     0.157 HD
ENDBRANCH   1  27
BRANCH  13  30
HETATM   30  N10 UNL     1      19.964 -33.775  -4.255  1.00  0.00    -0.364 N 
HETATM   31  C21 UNL     1      18.869 -34.069  -3.361  1.00  0.00     0.135 A 
HETATM   32  C22 UNL     1      18.284 -32.690  -3.540  1.00  0.00    -0.008 A 
HETATM   33  C23 UNL     1      18.137 -31.870  -2.292  1.00  0.00     0.013 C 
HETATM   34  C26 UNL     1      16.936 -32.624  -4.177  1.00  0.00     0.013 C 
HETATM   35  C27 UNL     1      19.462 -32.416  -4.397  1.00  0.00     0.135 A 
HETATM   36  C24 UNL     1      17.317 -30.690  -2.768  1.00  0.00     0.001 C 
HETATM   37  C25 UNL     1      16.493 -31.195  -3.935  1.00  0.00     0.001 C 
ENDBRANCH  13  30
BRANCH  10  38
HETATM   38  N6  UNL     1      24.361 -35.361  -3.786  1.00  0.00    -0.128 N 
ATOM     39  H6  UNL     1      24.351 -35.436  -2.769  1.00  0.00     0.205 HD
BRANCH  38  40
HETATM   40  N7  UNL     1      25.554 -35.325  -4.502  1.00  0.00    -0.237 N 
HETATM   41  C15 UNL     1      26.502 -34.277  -4.343  1.00  0.00     0.337 C 
HETATM   42  O1  UNL     1      26.301 -33.326  -3.541  1.00  0.00    -0.245 OA
HETATM   43  N8  UNL     1      27.698 -34.285  -5.090  1.00  0.00    -0.329 N 
HETATM   44  C16 UNL     1      28.652 -33.218  -4.917  1.00  0.00     0.153 C 
HETATM   45  C19 UNL     1      27.940 -35.373  -6.019  1.00  0.00     0.153 C 
HETATM   46  C17 UNL     1      30.069 -33.727  -4.942  1.00  0.00     0.187 C 
HETATM   47  O2  UNL     1      30.117 -35.075  -5.253  1.00  0.00    -0.388 OA
HETATM   48  C18 UNL     1      29.409 -35.376  -6.413  1.00  0.00     0.187 C 
ATOM     49  H7  UNL     1      25.755 -36.077  -5.162  1.00  0.00     0.192 HD
ENDBRANCH  38  40
ENDBRANCH  10  38
TORSDOF 6
ENDMDL
MODEL 5
REMARK VINA RESULT: -8.288417608      1.500      2.185
REMARK  6 active torsions:
REMARK  status: ('A' for Active; 'I' for Inactive)
REMARK    1  A    between atoms: N1_1  and  C1_4 
REMARK    2  A    between atoms: C2_7  and  C3_8 
REMARK    3  A    between atoms: C6_11  and  N3_12 
REMARK    4  A    between atoms: C14_25  and  N6_26 
REMARK    5  A    between atoms: N6_26  and  N7_28 
REMARK       I    between atoms: N7_28  and  C15_30 
REMARK       I    between atoms: C15_30  and  N8_32 
REMARK    6  A    between atoms: C20_40  and  N10_41 
ROOT
HETATM    1  C1  UNL     1      19.118 -34.309  -5.940  1.00  0.00     0.118 A 
HETATM    2  N2  UNL     1      19.445 -35.100  -6.986  1.00  0.00    -0.327 N 
ATOM      3  H2  UNL     1      18.767 -35.193  -7.743  1.00  0.00     0.169 HD
HETATM    4  C2  UNL     1      20.599 -35.770  -7.097  1.00  0.00     0.118 A 
HETATM    5  N4  UNL     1      21.485 -35.651  -6.110  1.00  0.00    -0.327 N 
ATOM      6  H4  UNL     1      22.373 -36.148  -6.164  1.00  0.00     0.169 HD
HETATM    7  C13 UNL     1      21.214 -34.873  -5.037  1.00  0.00     0.140 A 
HETATM    8  N5  UNL     1      22.102 -34.774  -4.038  1.00  0.00    -0.174 N 
ATOM      9  H5  UNL     1      22.984 -35.281  -4.112  1.00  0.00     0.186 HD
HETATM   10  C14 UNL     1      21.874 -34.031  -2.944  1.00  0.00     0.700 A 
HETATM   11  N9  UNL     1      20.729 -33.362  -2.835  1.00  0.00    -0.174 N 
ATOM     12  H9  UNL     1      20.564 -32.801  -2.000  1.00  0.00     0.186 HD
HETATM   13  C20 UNL     1      19.757 -33.404  -3.814  1.00  0.00     0.137 A 
HETATM   14  C28 UNL     1      20.006 -34.165  -4.912  1.00  0.00     0.097 A 
ENDROOT
BRANCH   4  15
HETATM   15  C3  UNL     1      20.871 -36.612  -8.271  1.00  0.00     0.008 A 
HETATM   16  C4  UNL     1      21.308 -37.924  -8.060  1.00  0.00     0.017 A 
HETATM   17  C5  UNL     1      21.580 -38.763  -9.106  1.00  0.00     0.030 A 
HETATM   18  C6  UNL     1      21.429 -38.330 -10.395  1.00  0.00     0.030 A 
HETATM   19  C11 UNL     1      20.993 -37.026 -10.602  1.00  0.00     0.030 A 
HETATM   20  C12 UNL     1      20.714 -36.165  -9.557  1.00  0.00     0.017 A 
BRANCH  18  21
HETATM   21  N3  UNL     1      21.705 -39.219 -11.460  1.00  0.00    -0.379 N 
HETATM   22  C7  UNL     1      22.981 -39.866 -11.520  1.00  0.00     0.133 C 
HETATM   23  C8  UNL     1      22.955 -41.214 -12.215  1.00  0.00     0.093 C 
HETATM   24  S1  UNL     1      22.290 -41.036 -13.914  1.00  0.00    -0.166 SA
HETATM   25  C9  UNL     1      21.324 -39.484 -13.873  1.00  0.00     0.093 C 
HETATM   26  C10 UNL     1      20.677 -39.447 -12.480  1.00  0.00     0.133 C 
ENDBRANCH  18  21
ENDBRANCH   4  15
BRANCH   1  27
HETATM   27  N1  UNL     1      17.980 -33.730  -5.903  1.00  0.00    -0.385 N 
ATOM     28  H12 UNL     1      17.780 -32.939  -6.513  1.00  0.00     0.157 HD
ATOM     29  H11 UNL     1      17.267 -34.041  -5.243  1.00  0.00     0.157 HD
ENDBRANCH   1  27
BRANCH  13  30
HETATM   30  N10 UNL     1      18.608 -32.606  -3.628  1.00  0.00    -0.364 N 
HETATM   31  C21 UNL     1      17.916 -31.668  -4.480  1.00  0.00     0.135 A 
HETATM   32  C22 UNL     1      16.967 -31.283  -3.371  1.00  0.00    -0.008 A 
HETATM   33  C23 UNL     1      15.509 -31.504  -3.646  1.00  0.00     0.013 C 
HETATM   34  C26 UNL     1      17.037 -29.865  -2.908  1.00  0.00     0.013 C 
HETATM   35  C27 UNL     1      17.668 -32.305  -2.558  1.00  0.00     0.135 A 
HETATM   36  C24 UNL     1      14.845 -30.803  -2.479  1.00  0.00     0.001 C 
HETATM   37  C25 UNL     1      15.797 -29.705  -2.053  1.00  0.00     0.001 C 
ENDBRANCH  13  30
BRANCH  10  38
HETATM   38  N6  UNL     1      22.797 -33.994  -2.015  1.00  0.00    -0.128 N 
ATOM     39  H6  UNL     1      22.834 -34.692  -1.272  1.00  0.00     0.205 HD
BRANCH  38  40
HETATM   40  N7  UNL     1      23.723 -32.957  -2.089  1.00  0.00    -0.237 N 
HETATM   41  C15 UNL     1      24.821 -32.984  -2.992  1.00  0.00     0.337 C 
HETATM   42  O1  UNL     1      25.005 -33.958  -3.772  1.00  0.00    -0.245 OA
HETATM   43  N8  UNL     1      25.734 -31.910  -3.031  1.00  0.00    -0.329 N 
HETATM   44  C16 UNL     1      26.840 -31.949  -3.954  1.00  0.00     0.153 C 
HETATM   45  C19 UNL     1      25.533 -30.786  -2.136  1.00  0.00     0.153 C 
HETATM   46  C17 UNL     1      27.106 -30.599  -4.564  1.00  0.00     0.187 C 
HETATM   47  O2  UNL     1      26.306 -29.621  -3.996  1.00  0.00    -0.388 OA
HETATM   48  C18 UNL     1      26.384 -29.616  -2.606  1.00  0.00     0.187 C 
ATOM     49  H7  UNL     1      23.610 -32.151  -1.474  1.00  0.00     0.192 HD
ENDBRANCH  38  40
ENDBRANCH  10  38
TORSDOF 6
ENDMDL
