MODEL 1
REMARK VINA RESULT: -8.303299096      0.000      0.000
REMARK  5 active torsions:
REMARK  status: ('A' for Active; 'I' for Inactive)
REMARK    1  A    between atoms: S1_2  and  N1_5 
REMARK    2  A    between atoms: N1_5  and  C2_7 
REMARK    3  A    between atoms: C15_22  and  C16_23 
REMARK    4  A    between atoms: C17_24  and  C18_25 
REMARK    5  A    between atoms: C21_28  and  N3_29 
ROOT
HETATM    1  C2  UNL     1      22.082 -39.179  -8.523  1.00  0.00     0.044 A 
HETATM    2  C3  UNL     1      21.323 -38.544  -9.477  1.00  0.00     0.032 A 
HETATM    3  C4  UNL     1      20.825 -37.259  -9.173  1.00  0.00     0.030 A 
HETATM    4  C5  UNL     1      21.094 -36.695  -7.990  1.00  0.00     0.106 A 
HETATM    5  C6  UNL     1      21.864 -37.329  -7.005  1.00  0.00     0.058 A 
HETATM    6  C7  UNL     1      22.347 -38.565  -7.293  1.00  0.00     0.061 A 
HETATM    7  N2  UNL     1      22.085 -36.770  -5.730  1.00  0.00    -0.352 N 
ATOM      8  H2  UNL     1      21.955 -37.386  -4.927  1.00  0.00     0.166 HD
HETATM    9  C8  UNL     1      22.445 -35.523  -5.478  1.00  0.00     0.071 C 
HETATM   10  C9  UNL     1      22.546 -35.294  -4.052  1.00  0.00    -0.007 A 
HETATM   11  C10 UNL     1      22.547 -34.052  -3.494  1.00  0.00     0.014 A 
HETATM   12  C11 UNL     1      22.624 -33.810  -2.116  1.00  0.00     0.001 A 
HETATM   13  C12 UNL     1      22.703 -34.911  -1.300  1.00  0.00     0.000 A 
HETATM   14  C13 UNL     1      22.706 -36.201  -1.809  1.00  0.00     0.001 A 
HETATM   15  C14 UNL     1      22.629 -36.381  -3.171  1.00  0.00     0.014 A 
HETATM   16  C15 UNL     1      22.695 -34.422  -6.357  1.00  0.00     0.086 C 
HETATM   17  N7  UNL     1      21.889 -34.101  -7.401  1.00  0.00    -0.277 N 
ATOM     18  H7  UNL     1      22.119 -33.284  -7.966  1.00  0.00     0.179 HD
HETATM   19  S2  UNL     1      20.457 -35.046  -7.814  1.00  0.00     0.265 S 
HETATM   20  O4  UNL     1      19.948 -34.605  -9.124  1.00  0.00    -0.200 OA
HETATM   21  O5  UNL     1      19.437 -35.039  -6.773  1.00  0.00    -0.200 OA
ENDROOT
BRANCH  16  22
HETATM   22  C16 UNL     1      23.828 -33.557  -6.163  1.00  0.00     0.075 A 
HETATM   23  C17 UNL     1      25.065 -34.179  -6.019  1.00  0.00    -0.004 A 
HETATM   24  C23 UNL     1      26.118 -33.458  -5.500  1.00  0.00     0.046 A 
HETATM   25  C24 UNL     1      26.005 -32.145  -5.118  1.00  0.00     0.077 A 
HETATM   26  N5  UNL     1      24.822 -31.566  -5.261  1.00  0.00    -0.219 N 
HETATM   27  C26 UNL     1      26.490 -30.864  -4.583  1.00  0.00     0.139 A 
HETATM   28  C25 UNL     1      23.731 -32.209  -5.760  1.00  0.00     0.280 A 
HETATM   29  N6  UNL     1      25.305 -30.354  -4.749  1.00  0.00    -0.300 N 
HETATM   30  O3  UNL     1      22.672 -31.558  -5.819  1.00  0.00    -0.265 OA
ATOM     31  H6  UNL     1      24.892 -29.437  -4.575  1.00  0.00     0.186 HD
BRANCH  23  32
HETATM   32  C18 UNL     1      25.427 -35.519  -6.476  1.00  0.00    -0.009 A 
HETATM   33  C19 UNL     1      25.451 -35.770  -7.822  1.00  0.00     0.017 A 
HETATM   34  C20 UNL     1      25.819 -36.987  -8.291  1.00  0.00     0.049 A 
HETATM   35  C21 UNL     1      26.175 -37.986  -7.425  1.00  0.00     0.098 A 
HETATM   36  N4  UNL     1      26.156 -37.751  -6.102  1.00  0.00    -0.352 N 
HETATM   37  C22 UNL     1      25.792 -36.548  -5.623  1.00  0.00     0.102 A 
ATOM     38  H4  UNL     1      26.420 -38.493  -5.455  1.00  0.00     0.166 HD
BRANCH  35  39
HETATM   39  N3  UNL     1      26.526 -39.145  -7.874  1.00  0.00    -0.385 N 
ATOM     40  H32 UNL     1      26.179 -39.472  -8.775  1.00  0.00     0.157 HD
ATOM     41  H31 UNL     1      27.152 -39.740  -7.331  1.00  0.00     0.157 HD
ENDBRANCH  35  39
ENDBRANCH  23  32
ENDBRANCH  16  22
BRANCH   1  42
HETATM   42  N1  UNL     1      22.623 -40.463  -8.752  1.00  0.00    -0.285 N 
ATOM     43  H1  UNL     1      22.144 -41.255  -8.323  1.00  0.00     0.178 HD
BRANCH  42  44
HETATM   44  S1  UNL     1      24.009 -40.800  -9.683  1.00  0.00     0.227 S 
HETATM   45  C1  UNL     1      23.685 -41.859 -11.053  1.00  0.00     0.186 C 
HETATM   46  O1  UNL     1      24.639 -39.538 -10.227  1.00  0.00    -0.206 OA
HETATM   47  O2  UNL     1      25.071 -41.414  -8.784  1.00  0.00    -0.206 OA
ENDBRANCH  42  44
ENDBRANCH   1  42
TORSDOF 5
ENDMDL
MODEL 2
REMARK VINA RESULT: -8.014368073      3.147      7.533
REMARK  5 active torsions:
REMARK  status: ('A' for Active; 'I' for Inactive)
REMARK    1  A    between atoms: S1_2  and  N1_5 
REMARK    2  A    between atoms: N1_5  and  C2_7 
REMARK    3  A    between atoms: C15_22  and  C16_23 
REMARK    4  A    between atoms: C17_24  and  C18_25 
REMARK    5  A    between atoms: C21_28  and  N3_29 
ROOT
HETATM    1  C2  UNL     1      25.490 -32.556  -2.913  1.00  0.00     0.044 A 
HETATM    2  C3  UNL     1      25.398 -33.299  -1.760  1.00  0.00     0.032 A 
HETATM    3  C4  UNL     1      24.462 -34.355  -1.731  1.00  0.00     0.030 A 
HETATM    4  C5  UNL     1      23.699 -34.608  -2.800  1.00  0.00     0.106 A 
HETATM    5  C6  UNL     1      23.778 -33.859  -3.983  1.00  0.00     0.058 A 
HETATM    6  C7  UNL     1      24.678 -32.842  -4.017  1.00  0.00     0.061 A 
HETATM    7  N2  UNL     1      22.923 -34.075  -5.082  1.00  0.00    -0.352 N 
ATOM      8  H2  UNL     1      22.494 -33.250  -5.503  1.00  0.00     0.166 HD
HETATM    9  C8  UNL     1      22.625 -35.245  -5.620  1.00  0.00     0.071 C 
HETATM   10  C9  UNL     1      21.689 -35.088  -6.713  1.00  0.00    -0.007 A 
HETATM   11  C10 UNL     1      20.943 -36.113  -7.211  1.00  0.00     0.014 A 
HETATM   12  C11 UNL     1      20.018 -35.976  -8.255  1.00  0.00     0.001 A 
HETATM   13  C12 UNL     1      19.874 -34.721  -8.790  1.00  0.00     0.000 A 
HETATM   14  C13 UNL     1      20.604 -33.638  -8.326  1.00  0.00     0.001 A 
HETATM   15  C14 UNL     1      21.500 -33.829  -7.299  1.00  0.00     0.014 A 
HETATM   16  C15 UNL     1      23.037 -36.571  -5.272  1.00  0.00     0.086 C 
HETATM   17  N7  UNL     1      23.068 -37.033  -3.996  1.00  0.00    -0.277 N 
ATOM     18  H7  UNL     1      23.348 -38.000  -3.830  1.00  0.00     0.179 HD
HETATM   19  S2  UNL     1      22.640 -36.023  -2.614  1.00  0.00     0.265 S 
HETATM   20  O4  UNL     1      23.014 -36.719  -1.371  1.00  0.00    -0.200 OA
HETATM   21  O5  UNL     1      21.251 -35.581  -2.626  1.00  0.00    -0.200 OA
ENDROOT
BRANCH  16  22
HETATM   22  C16 UNL     1      23.427 -37.519  -6.281  1.00  0.00     0.075 A 
HETATM   23  C17 UNL     1      24.474 -37.139  -7.116  1.00  0.00    -0.004 A 
HETATM   24  C23 UNL     1      24.673 -37.826  -8.293  1.00  0.00     0.046 A 
HETATM   25  C24 UNL     1      23.882 -38.878  -8.684  1.00  0.00     0.077 A 
HETATM   26  N5  UNL     1      22.889 -39.227  -7.880  1.00  0.00    -0.219 N 
HETATM   27  C26 UNL     1      23.450 -39.962  -9.577  1.00  0.00     0.139 A 
HETATM   28  C25 UNL     1      22.623 -38.598  -6.703  1.00  0.00     0.280 A 
HETATM   29  N6  UNL     1      22.494 -40.257  -8.745  1.00  0.00    -0.300 N 
HETATM   30  O3  UNL     1      21.645 -39.009  -6.053  1.00  0.00    -0.265 OA
ATOM     31  H6  UNL     1      21.752 -40.957  -8.730  1.00  0.00     0.186 HD
BRANCH  23  32
HETATM   32  C18 UNL     1      25.501 -36.137  -6.830  1.00  0.00    -0.009 A 
HETATM   33  C19 UNL     1      25.546 -35.005  -7.597  1.00  0.00     0.017 A 
HETATM   34  C20 UNL     1      26.455 -34.034  -7.343  1.00  0.00     0.049 A 
HETATM   35  C21 UNL     1      27.345 -34.169  -6.311  1.00  0.00     0.098 A 
HETATM   36  N4  UNL     1      27.311 -35.276  -5.551  1.00  0.00    -0.352 N 
HETATM   37  C22 UNL     1      26.413 -36.248  -5.793  1.00  0.00     0.102 A 
ATOM     38  H4  UNL     1      27.972 -35.381  -4.782  1.00  0.00     0.166 HD
BRANCH  35  39
HETATM   39  N3  UNL     1      28.211 -33.242  -6.069  1.00  0.00    -0.385 N 
ATOM     40  H32 UNL     1      28.878 -33.351  -5.305  1.00  0.00     0.157 HD
ATOM     41  H31 UNL     1      28.235 -32.397  -6.639  1.00  0.00     0.157 HD
ENDBRANCH  35  39
ENDBRANCH  23  32
ENDBRANCH  16  22
BRANCH   1  42
HETATM   42  N1  UNL     1      26.405 -31.487  -3.026  1.00  0.00    -0.285 N 
ATOM     43  H1  UNL     1      27.290 -31.677  -3.498  1.00  0.00     0.178 HD
BRANCH  42  44
HETATM   44  S1  UNL     1      26.156 -29.907  -2.439  1.00  0.00     0.227 S 
HETATM   45  C1  UNL     1      25.929 -28.718  -3.718  1.00  0.00     0.186 C 
HETATM   46  O1  UNL     1      24.950 -29.831  -1.531  1.00  0.00    -0.206 OA
HETATM   47  O2  UNL     1      27.335 -29.515  -1.561  1.00  0.00    -0.206 OA
ENDBRANCH  42  44
ENDBRANCH   1  42
TORSDOF 5
ENDMDL
MODEL 3
REMARK VINA RESULT: -7.819420509      4.017      7.490
REMARK  5 active torsions:
REMARK  status: ('A' for Active; 'I' for Inactive)
REMARK    1  A    between atoms: S1_2  and  N1_5 
REMARK    2  A    between atoms: N1_5  and  C2_7 
REMARK    3  A    between atoms: C15_22  and  C16_23 
REMARK    4  A    between atoms: C17_24  and  C18_25 
REMARK    5  A    between atoms: C21_28  and  N3_29 
ROOT
HETATM    1  C2  UNL     1      25.274 -34.244  -2.964  1.00  0.00     0.044 A 
HETATM    2  C3  UNL     1      24.542 -33.579  -2.009  1.00  0.00     0.032 A 
HETATM    3  C4  UNL     1      24.816 -32.210  -1.807  1.00  0.00     0.030 A 
HETATM    4  C5  UNL     1      25.759 -31.597  -2.531  1.00  0.00     0.106 A 
HETATM    5  C6  UNL     1      26.515 -32.261  -3.508  1.00  0.00     0.058 A 
HETATM    6  C7  UNL     1      26.256 -33.578  -3.707  1.00  0.00     0.061 A 
HETATM    7  N2  UNL     1      27.561 -31.637  -4.218  1.00  0.00    -0.352 N 
ATOM      8  H2  UNL     1      28.438 -32.152  -4.296  1.00  0.00     0.166 HD
HETATM    9  C8  UNL     1      27.511 -30.448  -4.793  1.00  0.00     0.071 C 
HETATM   10  C9  UNL     1      28.781 -30.117  -5.404  1.00  0.00    -0.007 A 
HETATM   11  C10 UNL     1      29.136 -28.847  -5.748  1.00  0.00     0.014 A 
HETATM   12  C11 UNL     1      30.368 -28.504  -6.322  1.00  0.00     0.001 A 
HETATM   13  C12 UNL     1      31.254 -29.529  -6.538  1.00  0.00     0.000 A 
HETATM   14  C13 UNL     1      30.951 -30.841  -6.209  1.00  0.00     0.001 A 
HETATM   15  C14 UNL     1      29.726 -31.123  -5.649  1.00  0.00     0.014 A 
HETATM   16  C15 UNL     1      26.458 -29.480  -4.861  1.00  0.00     0.086 C 
HETATM   17  N7  UNL     1      25.701 -29.124  -3.793  1.00  0.00    -0.277 N 
ATOM     18  H7  UNL     1      24.987 -28.407  -3.914  1.00  0.00     0.179 HD
HETATM   19  S2  UNL     1      25.908 -29.858  -2.201  1.00  0.00     0.265 S 
HETATM   20  O4  UNL     1      24.789 -29.455  -1.333  1.00  0.00    -0.200 OA
HETATM   21  O5  UNL     1      27.214 -29.598  -1.608  1.00  0.00    -0.200 OA
ENDROOT
BRANCH  16  22
HETATM   22  C16 UNL     1      26.154 -28.796  -6.089  1.00  0.00     0.075 A 
HETATM   23  C17 UNL     1      26.068 -29.585  -7.233  1.00  0.00    -0.004 A 
HETATM   24  C23 UNL     1      26.119 -28.978  -8.468  1.00  0.00     0.046 A 
HETATM   25  C24 UNL     1      26.250 -27.620  -8.626  1.00  0.00     0.077 A 
HETATM   26  N5  UNL     1      26.332 -26.883  -7.529  1.00  0.00    -0.219 N 
HETATM   27  C26 UNL     1      26.364 -26.371  -9.392  1.00  0.00     0.139 A 
HETATM   28  C25 UNL     1      26.293 -27.405  -6.272  1.00  0.00     0.280 A 
HETATM   29  N6  UNL     1      26.439 -25.703  -8.278  1.00  0.00    -0.300 N 
HETATM   30  O3  UNL     1      26.405 -26.604  -5.327  1.00  0.00    -0.265 OA
ATOM     31  H6  UNL     1      26.536 -24.715  -8.044  1.00  0.00     0.186 HD
BRANCH  23  32
HETATM   32  C18 UNL     1      25.801 -31.022  -7.286  1.00  0.00    -0.009 A 
HETATM   33  C19 UNL     1      26.674 -31.827  -7.966  1.00  0.00     0.017 A 
HETATM   34  C20 UNL     1      26.487 -33.168  -8.008  1.00  0.00     0.049 A 
HETATM   35  C21 UNL     1      25.421 -33.740  -7.368  1.00  0.00     0.098 A 
HETATM   36  N4  UNL     1      24.557 -32.960  -6.697  1.00  0.00    -0.352 N 
HETATM   37  C22 UNL     1      24.731 -31.627  -6.648  1.00  0.00     0.102 A 
ATOM     38  H4  UNL     1      23.762 -33.383  -6.219  1.00  0.00     0.166 HD
BRANCH  35  39
HETATM   39  N3  UNL     1      25.244 -35.019  -7.408  1.00  0.00    -0.385 N 
ATOM     40  H32 UNL     1      24.647 -35.475  -6.719  1.00  0.00     0.157 HD
ATOM     41  H31 UNL     1      25.699 -35.581  -8.128  1.00  0.00     0.157 HD
ENDBRANCH  35  39
ENDBRANCH  23  32
ENDBRANCH  16  22
BRANCH   1  42
HETATM   42  N1  UNL     1      25.057 -35.614  -3.232  1.00  0.00    -0.285 N 
ATOM     43  H1  UNL     1      25.671 -36.283  -2.767  1.00  0.00     0.178 HD
BRANCH  42  44
HETATM   44  S1  UNL     1      23.857 -36.241  -4.265  1.00  0.00     0.227 S 
HETATM   45  C1  UNL     1      22.570 -37.082  -3.406  1.00  0.00     0.186 C 
HETATM   46  O1  UNL     1      23.211 -35.155  -5.096  1.00  0.00    -0.206 OA
HETATM   47  O2  UNL     1      24.511 -37.173  -5.273  1.00  0.00    -0.206 OA
ENDBRANCH  42  44
ENDBRANCH   1  42
TORSDOF 5
ENDMDL
MODEL 4
REMARK VINA RESULT: -7.732674614      1.860      2.349
REMARK  5 active torsions:
REMARK  status: ('A' for Active; 'I' for Inactive)
REMARK    1  A    between atoms: S1_2  and  N1_5 
REMARK    2  A    between atoms: N1_5  and  C2_7 
REMARK    3  A    between atoms: C15_22  and  C16_23 
REMARK    4  A    between atoms: C17_24  and  C18_25 
REMARK    5  A    between atoms: C21_28  and  N3_29 
ROOT
HETATM    1  C2  UNL     1      21.837 -37.445  -7.209  1.00  0.00     0.044 A 
HETATM    2  C3  UNL     1      20.949 -36.679  -7.926  1.00  0.00     0.032 A 
HETATM    3  C4  UNL     1      20.812 -35.321  -7.567  1.00  0.00     0.030 A 
HETATM    4  C5  UNL     1      21.532 -34.815  -6.559  1.00  0.00     0.106 A 
HETATM    5  C6  UNL     1      22.441 -35.582  -5.817  1.00  0.00     0.058 A 
HETATM    6  C7  UNL     1      22.577 -36.889  -6.158  1.00  0.00     0.061 A 
HETATM    7  N2  UNL     1      23.144 -35.072  -4.707  1.00  0.00    -0.352 N 
ATOM      8  H2  UNL     1      23.159 -35.647  -3.864  1.00  0.00     0.166 HD
HETATM    9  C8  UNL     1      23.785 -33.916  -4.655  1.00  0.00     0.071 C 
HETATM   10  C9  UNL     1      24.363 -33.706  -3.345  1.00  0.00    -0.007 A 
HETATM   11  C10 UNL     1      24.763 -32.485  -2.892  1.00  0.00     0.014 A 
HETATM   12  C11 UNL     1      25.307 -32.258  -1.621  1.00  0.00     0.001 A 
HETATM   13  C12 UNL     1      25.432 -33.350  -0.800  1.00  0.00     0.000 A 
HETATM   14  C13 UNL     1      25.043 -34.618  -1.203  1.00  0.00     0.001 A 
HETATM   15  C14 UNL     1      24.516 -34.785  -2.463  1.00  0.00     0.014 A 
HETATM   16  C15 UNL     1      23.947 -32.887  -5.636  1.00  0.00     0.086 C 
HETATM   17  N7  UNL     1      22.930 -32.420  -6.404  1.00  0.00    -0.277 N 
ATOM     18  H7  UNL     1      23.118 -31.665  -7.063  1.00  0.00     0.179 HD
HETATM   19  S2  UNL     1      21.293 -33.073  -6.303  1.00  0.00     0.265 S 
HETATM   20  O4  UNL     1      20.492 -32.548  -7.422  1.00  0.00    -0.200 OA
HETATM   21  O5  UNL     1      20.665 -32.867  -5.004  1.00  0.00    -0.200 OA
ENDROOT
BRANCH  16  22
HETATM   22  C16 UNL     1      25.221 -32.256  -5.850  1.00  0.00     0.075 A 
HETATM   23  C17 UNL     1      26.320 -33.103  -5.969  1.00  0.00    -0.004 A 
HETATM   24  C23 UNL     1      27.586 -32.577  -5.835  1.00  0.00     0.046 A 
HETATM   25  C24 UNL     1      27.817 -31.246  -5.590  1.00  0.00     0.077 A 
HETATM   26  N5  UNL     1      26.763 -30.453  -5.478  1.00  0.00    -0.219 N 
HETATM   27  C26 UNL     1      28.651 -30.059  -5.353  1.00  0.00     0.139 A 
HETATM   28  C25 UNL     1      25.480 -30.894  -5.593  1.00  0.00     0.280 A 
HETATM   29  N6  UNL     1      27.575 -29.333  -5.254  1.00  0.00    -0.300 N 
HETATM   30  O3  UNL     1      24.579 -30.049  -5.442  1.00  0.00    -0.265 OA
ATOM     31  H6  UNL     1      27.396 -28.343  -5.083  1.00  0.00     0.186 HD
BRANCH  23  32
HETATM   32  C18 UNL     1      26.298 -34.514  -6.351  1.00  0.00    -0.009 A 
HETATM   33  C19 UNL     1      26.765 -35.442  -5.460  1.00  0.00     0.017 A 
HETATM   34  C20 UNL     1      26.728 -36.764  -5.756  1.00  0.00     0.049 A 
HETATM   35  C21 UNL     1      26.219 -37.192  -6.953  1.00  0.00     0.098 A 
HETATM   36  N4  UNL     1      25.757 -36.291  -7.835  1.00  0.00    -0.352 N 
HETATM   37  C22 UNL     1      25.789 -34.976  -7.554  1.00  0.00     0.102 A 
ATOM     38  H4  UNL     1      25.378 -36.607  -8.727  1.00  0.00     0.166 HD
BRANCH  35  39
HETATM   39  N3  UNL     1      26.184 -38.453  -7.234  1.00  0.00    -0.385 N 
ATOM     40  H32 UNL     1      27.048 -38.993  -7.276  1.00  0.00     0.157 HD
ATOM     41  H31 UNL     1      25.293 -38.916  -7.415  1.00  0.00     0.157 HD
ENDBRANCH  35  39
ENDBRANCH  23  32
ENDBRANCH  16  22
BRANCH   1  42
HETATM   42  N1  UNL     1      22.037 -38.810  -7.509  1.00  0.00    -0.285 N 
ATOM     43  H1  UNL     1      21.672 -39.493  -6.845  1.00  0.00     0.178 HD
BRANCH  42  44
HETATM   44  S1  UNL     1      22.837 -39.411  -8.888  1.00  0.00     0.227 S 
HETATM   45  C1  UNL     1      21.875 -39.290 -10.358  1.00  0.00     0.186 C 
HETATM   46  O1  UNL     1      24.141 -38.688  -9.139  1.00  0.00    -0.206 OA
HETATM   47  O2  UNL     1      23.232 -40.859  -8.637  1.00  0.00    -0.206 OA
ENDBRANCH  42  44
ENDBRANCH   1  42
TORSDOF 5
ENDMDL
MODEL 5
REMARK VINA RESULT: -7.719133615      3.271      6.304
REMARK  5 active torsions:
REMARK  status: ('A' for Active; 'I' for Inactive)
REMARK    1  A    between atoms: S1_2  and  N1_5 
REMARK    2  A    between atoms: N1_5  and  C2_7 
REMARK    3  A    between atoms: C15_22  and  C16_23 
REMARK    4  A    between atoms: C17_24  and  C18_25 
REMARK    5  A    between atoms: C21_28  and  N3_29 
ROOT
HETATM    1  C2  UNL     1      17.687 -32.970  -5.486  1.00  0.00     0.044 A 
HETATM    2  C3  UNL     1      17.406 -34.167  -6.101  1.00  0.00     0.032 A 
HETATM    3  C4  UNL     1      18.479 -34.873  -6.687  1.00  0.00     0.030 A 
HETATM    4  C5  UNL     1      19.720 -34.377  -6.635  1.00  0.00     0.106 A 
HETATM    5  C6  UNL     1      20.024 -33.157  -6.013  1.00  0.00     0.058 A 
HETATM    6  C7  UNL     1      18.996 -32.474  -5.447  1.00  0.00     0.061 A 
HETATM    7  N2  UNL     1      21.316 -32.596  -6.023  1.00  0.00    -0.352 N 
ATOM      8  H2  UNL     1      21.389 -31.607  -6.261  1.00  0.00     0.166 HD
HETATM    9  C8  UNL     1      22.444 -33.232  -5.753  1.00  0.00     0.071 C 
HETATM   10  C9  UNL     1      23.581 -32.348  -5.893  1.00  0.00    -0.007 A 
HETATM   11  C10 UNL     1      24.861 -32.793  -6.027  1.00  0.00     0.014 A 
HETATM   12  C11 UNL     1      25.973 -31.954  -6.184  1.00  0.00     0.001 A 
HETATM   13  C12 UNL     1      25.728 -30.604  -6.201  1.00  0.00     0.000 A 
HETATM   14  C13 UNL     1      24.447 -30.090  -6.069  1.00  0.00     0.001 A 
HETATM   15  C14 UNL     1      23.392 -30.959  -5.917  1.00  0.00     0.014 A 
HETATM   16  C15 UNL     1      22.691 -34.598  -5.402  1.00  0.00     0.086 C 
HETATM   17  N7  UNL     1      22.115 -35.649  -6.038  1.00  0.00    -0.277 N 
ATOM     18  H7  UNL     1      22.362 -36.594  -5.747  1.00  0.00     0.179 HD
HETATM   19  S2  UNL     1      20.953 -35.438  -7.349  1.00  0.00     0.265 S 
HETATM   20  O4  UNL     1      20.326 -36.736  -7.653  1.00  0.00    -0.200 OA
HETATM   21  O5  UNL     1      21.517 -34.786  -8.525  1.00  0.00    -0.200 OA
ENDROOT
BRANCH  16  22
HETATM   22  C16 UNL     1      23.607 -34.941  -4.347  1.00  0.00     0.075 A 
HETATM   23  C17 UNL     1      24.453 -36.019  -4.588  1.00  0.00    -0.004 A 
HETATM   24  C23 UNL     1      25.101 -36.610  -3.525  1.00  0.00     0.046 A 
HETATM   25  C24 UNL     1      24.954 -36.179  -2.230  1.00  0.00     0.077 A 
HETATM   26  N5  UNL     1      24.145 -35.152  -2.016  1.00  0.00    -0.219 N 
HETATM   27  C26 UNL     1      25.200 -36.199  -0.781  1.00  0.00     0.139 A 
HETATM   28  C25 UNL     1      23.465 -34.517  -3.010  1.00  0.00     0.280 A 
HETATM   29  N6  UNL     1      24.395 -35.187  -0.638  1.00  0.00    -0.300 N 
HETATM   30  O3  UNL     1      22.718 -33.581  -2.671  1.00  0.00    -0.265 OA
ATOM     31  H6  UNL     1      24.073 -34.639   0.160  1.00  0.00     0.186 HD
BRANCH  23  32
HETATM   32  C18 UNL     1      24.844 -36.550  -5.893  1.00  0.00    -0.009 A 
HETATM   33  C19 UNL     1      25.835 -35.913  -6.591  1.00  0.00     0.017 A 
HETATM   34  C20 UNL     1      26.255 -36.393  -7.786  1.00  0.00     0.049 A 
HETATM   35  C21 UNL     1      25.694 -37.523  -8.316  1.00  0.00     0.098 A 
HETATM   36  N4  UNL     1      24.721 -38.157  -7.641  1.00  0.00    -0.352 N 
HETATM   37  C22 UNL     1      24.294 -37.691  -6.453  1.00  0.00     0.102 A 
ATOM     38  H4  UNL     1      24.301 -38.999  -8.033  1.00  0.00     0.166 HD
BRANCH  35  39
HETATM   39  N3  UNL     1      26.096 -37.980  -9.456  1.00  0.00    -0.385 N 
ATOM     40  H32 UNL     1      26.971 -37.648  -9.861  1.00  0.00     0.157 HD
ATOM     41  H31 UNL     1      25.543 -38.675  -9.957  1.00  0.00     0.157 HD
ENDBRANCH  35  39
ENDBRANCH  23  32
ENDBRANCH  16  22
BRANCH   1  42
HETATM   42  N1  UNL     1      16.672 -32.206  -4.871  1.00  0.00    -0.285 N 
ATOM     43  H1  UNL     1      15.819 -32.044  -5.406  1.00  0.00     0.178 HD
BRANCH  42  44
HETATM   44  S1  UNL     1      16.753 -31.532  -3.309  1.00  0.00     0.227 S 
HETATM   45  C1  UNL     1      17.739 -32.474  -2.195  1.00  0.00     0.186 C 
HETATM   46  O1  UNL     1      17.313 -30.128  -3.333  1.00  0.00    -0.206 OA
HETATM   47  O2  UNL     1      15.341 -31.382  -2.761  1.00  0.00    -0.206 OA
ENDBRANCH  42  44
ENDBRANCH   1  42
TORSDOF 5
ENDMDL
