MODEL 1
REMARK VINA RESULT: -7.351937721      0.000      0.000
REMARK  5 active torsions:
REMARK  status: ('A' for Active; 'I' for Inactive)
REMARK    1  A    between atoms: N1_1  and  C1_4 
REMARK    2  A    between atoms: C3_11  and  N5_12 
REMARK    3  A    between atoms: N5_12  and  O1_14 
REMARK    4  A    between atoms: O1_14  and  S1_15 
REMARK    5  A    between atoms: S1_15  and  N6_16 
ROOT
HETATM    1  C1  UNL     1      -9.863  28.786  18.436  1.00  0.00     0.693 A 
HETATM    2  N2  UNL     1     -10.328  28.790  17.166  1.00  0.00    -0.163 N 
ATOM      3  H2  UNL     1     -10.933  28.037  16.840  1.00  0.00     0.187 HD
HETATM    4  C2  UNL     1      -9.993  29.783  16.341  1.00  0.00     0.221 A 
HETATM    5  N3  UNL     1     -10.476  29.793  15.008  1.00  0.00    -0.062 NA
HETATM    6  N4  UNL     1      -9.193  30.778  16.773  1.00  0.00    -0.161 N 
ATOM      7  H4  UNL     1      -8.932  31.542  16.150  1.00  0.00     0.187 HD
HETATM    8  C3  UNL     1      -8.749  30.745  18.032  1.00  0.00     0.720 A 
HETATM    9  N7  UNL     1      -9.073  29.759  18.879  1.00  0.00    -0.021 N 
ATOM     10  H7  UNL     1      -8.724  29.755  19.837  1.00  0.00     0.203 HD
ENDROOT
BRANCH   8  11
HETATM   11  N5  UNL     1      -7.991  31.680  18.458  1.00  0.00    -0.077 N 
ATOM     12  H5  UNL     1      -7.028  31.752  18.129  1.00  0.00     0.214 HD
BRANCH  11  13
HETATM   13  O1  UNL     1      -8.477  32.576  19.349  1.00  0.00    -0.120 OA
BRANCH  13  14
HETATM   14  S1  UNL     1      -7.634  34.039  19.595  1.00  0.00     0.377 S 
HETATM   15  O2  UNL     1      -7.865  34.419  21.045  1.00  0.00    -0.174 OA
HETATM   16  O3  UNL     1      -8.165  35.134  18.699  1.00  0.00    -0.174 OA
BRANCH  14  17
HETATM   17  N6  UNL     1      -5.968  33.747  19.304  1.00  0.00    -0.304 N 
ATOM     18  H62 UNL     1      -5.434  34.118  18.518  1.00  0.00     0.171 HD
ATOM     19  H61 UNL     1      -5.618  33.146  20.050  1.00  0.00     0.171 HD
ENDBRANCH  14  17
ENDBRANCH  13  14
ENDBRANCH  11  13
ENDBRANCH   8  11
BRANCH   1  20
HETATM   20  N1  UNL     1     -10.201  27.822  19.202  1.00  0.00    -0.234 N 
ATOM     21  H12 UNL     1      -9.970  27.842  20.195  1.00  0.00     0.174 HD
ATOM     22  H11 UNL     1     -10.707  27.034  18.797  1.00  0.00     0.174 HD
ENDBRANCH   1  20
TORSDOF 5
ENDMDL
MODEL 2
REMARK VINA RESULT: -7.254847148      0.933      1.134
REMARK  5 active torsions:
REMARK  status: ('A' for Active; 'I' for Inactive)
REMARK    1  A    between atoms: N1_1  and  C1_4 
REMARK    2  A    between atoms: C3_11  and  N5_12 
REMARK    3  A    between atoms: N5_12  and  O1_14 
REMARK    4  A    between atoms: O1_14  and  S1_15 
REMARK    5  A    between atoms: S1_15  and  N6_16 
ROOT
HETATM    1  C1  UNL     1      -9.714  28.316  18.642  1.00  0.00     0.693 A 
HETATM    2  N2  UNL     1     -10.043  28.452  17.337  1.00  0.00    -0.163 N 
ATOM      3  H2  UNL     1     -10.470  27.675  16.833  1.00  0.00     0.187 HD
HETATM    4  C2  UNL     1      -9.808  29.606  16.711  1.00  0.00     0.221 A 
HETATM    5  N3  UNL     1     -10.150  29.755  15.343  1.00  0.00    -0.062 NA
HETATM    6  N4  UNL     1      -9.244  30.632  17.379  1.00  0.00    -0.161 N 
ATOM      7  H4  UNL     1      -9.060  31.519  16.909  1.00  0.00     0.187 HD
HETATM    8  C3  UNL     1      -8.929  30.467  18.665  1.00  0.00     0.720 A 
HETATM    9  N7  UNL     1      -9.157  29.318  19.315  1.00  0.00    -0.021 N 
ATOM     10  H7  UNL     1      -8.909  29.214  20.299  1.00  0.00     0.203 HD
ENDROOT
BRANCH   8  11
HETATM   11  N5  UNL     1      -8.394  31.429  19.312  1.00  0.00    -0.077 N 
ATOM     12  H5  UNL     1      -7.682  31.242  20.018  1.00  0.00     0.214 HD
BRANCH  11  13
HETATM   13  O1  UNL     1      -8.780  32.700  19.052  1.00  0.00    -0.120 OA
BRANCH  13  14
HETATM   14  S1  UNL     1      -7.595  33.858  18.643  1.00  0.00     0.377 S 
HETATM   15  O2  UNL     1      -8.313  35.193  18.587  1.00  0.00    -0.174 OA
HETATM   16  O3  UNL     1      -6.983  33.561  17.293  1.00  0.00    -0.174 OA
BRANCH  14  17
HETATM   17  N6  UNL     1      -6.407  33.862  19.881  1.00  0.00    -0.304 N 
ATOM     18  H62 UNL     1      -5.941  33.033  20.252  1.00  0.00     0.171 HD
ATOM     19  H61 UNL     1      -6.255  34.828  20.170  1.00  0.00     0.171 HD
ENDBRANCH  14  17
ENDBRANCH  13  14
ENDBRANCH  11  13
ENDBRANCH   8  11
BRANCH   1  20
HETATM   20  N1  UNL     1      -9.951  27.200  19.214  1.00  0.00    -0.234 N 
ATOM     21  H12 UNL     1     -10.858  27.018  19.643  1.00  0.00     0.174 HD
ATOM     22  H11 UNL     1      -9.212  26.497  19.231  1.00  0.00     0.174 HD
ENDBRANCH   1  20
TORSDOF 5
ENDMDL
MODEL 3
REMARK VINA RESULT: -7.216626744      3.692      4.872
REMARK  5 active torsions:
REMARK  status: ('A' for Active; 'I' for Inactive)
REMARK    1  A    between atoms: N1_1  and  C1_4 
REMARK    2  A    between atoms: C3_11  and  N5_12 
REMARK    3  A    between atoms: N5_12  and  O1_14 
REMARK    4  A    between atoms: O1_14  and  S1_15 
REMARK    5  A    between atoms: S1_15  and  N6_16 
ROOT
HETATM    1  C1  UNL     1      -9.202  30.915  19.341  1.00  0.00     0.693 A 
HETATM    2  N2  UNL     1      -8.983  29.600  19.565  1.00  0.00    -0.163 N 
ATOM      3  H2  UNL     1      -8.197  29.303  20.144  1.00  0.00     0.187 HD
HETATM    4  C2  UNL     1      -9.798  28.691  19.027  1.00  0.00     0.221 A 
HETATM    5  N3  UNL     1      -9.573  27.311  19.257  1.00  0.00    -0.062 NA
HETATM    6  N4  UNL     1     -10.835  29.086  18.262  1.00  0.00    -0.161 N 
ATOM      7  H4  UNL     1     -11.464  28.399  17.846  1.00  0.00     0.187 HD
HETATM    8  C3  UNL     1     -11.025  30.391  18.058  1.00  0.00     0.720 A 
HETATM    9  N7  UNL     1     -10.220  31.322  18.590  1.00  0.00    -0.021 N 
ATOM     10  H7  UNL     1     -10.385  32.314  18.422  1.00  0.00     0.203 HD
ENDROOT
BRANCH   8  11
HETATM   11  N5  UNL     1     -12.003  30.782  17.336  1.00  0.00    -0.077 N 
ATOM     12  H5  UNL     1     -12.760  31.329  17.747  1.00  0.00     0.214 HD
BRANCH  11  13
HETATM   13  O1  UNL     1     -12.027  30.463  16.021  1.00  0.00    -0.120 OA
BRANCH  13  14
HETATM   14  S1  UNL     1     -10.563  30.452  15.146  1.00  0.00     0.377 S 
HETATM   15  O2  UNL     1     -10.896  29.896  13.774  1.00  0.00    -0.174 OA
HETATM   16  O3  UNL     1      -9.535  29.565  15.809  1.00  0.00    -0.174 OA
BRANCH  14  17
HETATM   17  N6  UNL     1     -10.006  32.071  15.023  1.00  0.00    -0.304 N 
ATOM     18  H62 UNL     1     -10.316  32.846  15.608  1.00  0.00     0.171 HD
ATOM     19  H61 UNL     1      -9.319  32.112  14.270  1.00  0.00     0.171 HD
ENDBRANCH  14  17
ENDBRANCH  13  14
ENDBRANCH  11  13
ENDBRANCH   8  11
BRANCH   1  20
HETATM   20  N1  UNL     1      -8.405  31.762  19.870  1.00  0.00    -0.234 N 
ATOM     21  H12 UNL     1      -7.506  31.464  20.247  1.00  0.00     0.174 HD
ATOM     22  H11 UNL     1      -8.691  32.740  19.906  1.00  0.00     0.174 HD
ENDBRANCH   1  20
TORSDOF 5
ENDMDL
MODEL 4
REMARK VINA RESULT: -7.120314233      0.397      2.129
REMARK  5 active torsions:
REMARK  status: ('A' for Active; 'I' for Inactive)
REMARK    1  A    between atoms: N1_1  and  C1_4 
REMARK    2  A    between atoms: C3_11  and  N5_12 
REMARK    3  A    between atoms: N5_12  and  O1_14 
REMARK    4  A    between atoms: O1_14  and  S1_15 
REMARK    5  A    between atoms: S1_15  and  N6_16 
ROOT
HETATM    1  C1  UNL     1     -10.398  29.963  16.587  1.00  0.00     0.693 A 
HETATM    2  N2  UNL     1     -10.389  28.823  17.313  1.00  0.00    -0.163 N 
ATOM      3  H2  UNL     1     -10.987  28.041  17.046  1.00  0.00     0.187 HD
HETATM    4  C2  UNL     1      -9.594  28.723  18.380  1.00  0.00     0.221 A 
HETATM    5  N3  UNL     1      -9.581  27.530  19.146  1.00  0.00    -0.062 NA
HETATM    6  N4  UNL     1      -8.805  29.757  18.732  1.00  0.00    -0.161 N 
ATOM      7  H4  UNL     1      -8.194  29.690  19.545  1.00  0.00     0.187 HD
HETATM    8  C3  UNL     1      -8.837  30.870  17.996  1.00  0.00     0.720 A 
HETATM    9  N7  UNL     1      -9.625  30.993  16.919  1.00  0.00    -0.021 N 
ATOM     10  H7  UNL     1      -9.633  31.853  16.371  1.00  0.00     0.203 HD
ENDROOT
BRANCH   8  11
HETATM   11  N5  UNL     1      -8.094  31.859  18.315  1.00  0.00    -0.077 N 
ATOM     12  H5  UNL     1      -7.288  32.104  17.740  1.00  0.00     0.214 HD
BRANCH  11  13
HETATM   13  O1  UNL     1      -8.387  32.578  19.424  1.00  0.00    -0.120 OA
BRANCH  13  14
HETATM   14  S1  UNL     1      -7.558  34.043  19.702  1.00  0.00     0.377 S 
HETATM   15  O2  UNL     1      -7.818  34.405  21.152  1.00  0.00    -0.174 OA
HETATM   16  O3  UNL     1      -8.080  35.146  18.810  1.00  0.00    -0.174 OA
BRANCH  14  17
HETATM   17  N6  UNL     1      -5.885  33.765  19.439  1.00  0.00    -0.304 N 
ATOM     18  H62 UNL     1      -5.494  32.982  18.915  1.00  0.00     0.171 HD
ATOM     19  H61 UNL     1      -5.365  34.515  19.895  1.00  0.00     0.171 HD
ENDBRANCH  14  17
ENDBRANCH  13  14
ENDBRANCH  11  13
ENDBRANCH   8  11
BRANCH   1  20
HETATM   20  N1  UNL     1     -11.168  30.030  15.571  1.00  0.00    -0.234 N 
ATOM     21  H12 UNL     1     -11.891  29.327  15.420  1.00  0.00     0.174 HD
ATOM     22  H11 UNL     1     -11.042  30.802  14.916  1.00  0.00     0.174 HD
ENDBRANCH   1  20
TORSDOF 5
ENDMDL
MODEL 5
REMARK VINA RESULT: -7.117738355      1.811      2.618
REMARK  5 active torsions:
REMARK  status: ('A' for Active; 'I' for Inactive)
REMARK    1  A    between atoms: N1_1  and  C1_4 
REMARK    2  A    between atoms: C3_11  and  N5_12 
REMARK    3  A    between atoms: N5_12  and  O1_14 
REMARK    4  A    between atoms: O1_14  and  S1_15 
REMARK    5  A    between atoms: S1_15  and  N6_16 
ROOT
HETATM    1  C1  UNL     1     -11.041  30.830  17.976  1.00  0.00     0.693 A 
HETATM    2  N2  UNL     1     -10.838  29.501  18.122  1.00  0.00    -0.163 N 
ATOM      3  H2  UNL     1     -11.490  28.835  17.709  1.00  0.00     0.187 HD
HETATM    4  C2  UNL     1      -9.780  29.064  18.807  1.00  0.00     0.221 A 
HETATM    5  N3  UNL     1      -9.561  27.672  18.963  1.00  0.00    -0.062 NA
HETATM    6  N4  UNL     1      -8.919  29.945  19.352  1.00  0.00    -0.161 N 
ATOM      7  H4  UNL     1      -8.107  29.621  19.878  1.00  0.00     0.187 HD
HETATM    8  C3  UNL     1      -9.147  31.251  19.193  1.00  0.00     0.720 A 
HETATM    9  N7  UNL     1     -10.201  31.713  18.508  1.00  0.00    -0.021 N 
ATOM     10  H7  UNL     1     -10.356  32.716  18.397  1.00  0.00     0.203 HD
ENDROOT
BRANCH   8  11
HETATM   11  N5  UNL     1      -8.340  32.099  19.703  1.00  0.00    -0.077 N 
ATOM     12  H5  UNL     1      -7.832  32.750  19.105  1.00  0.00     0.214 HD
BRANCH  11  13
HETATM   13  O1  UNL     1      -8.166  32.126  21.045  1.00  0.00    -0.120 OA
BRANCH  13  14
HETATM   14  S1  UNL     1      -7.250  33.389  21.735  1.00  0.00     0.377 S 
HETATM   15  O2  UNL     1      -7.469  33.299  23.234  1.00  0.00    -0.174 OA
HETATM   16  O3  UNL     1      -7.719  34.739  21.242  1.00  0.00    -0.174 OA
BRANCH  14  17
HETATM   17  N6  UNL     1      -5.600  33.121  21.348  1.00  0.00    -0.304 N 
ATOM     18  H62 UNL     1      -4.862  33.824  21.399  1.00  0.00     0.171 HD
ATOM     19  H61 UNL     1      -5.496  32.147  21.064  1.00  0.00     0.171 HD
ENDBRANCH  14  17
ENDBRANCH  13  14
ENDBRANCH  11  13
ENDBRANCH   8  11
BRANCH   1  20
HETATM   20  N1  UNL     1     -12.062  31.219  17.315  1.00  0.00    -0.234 N 
ATOM     21  H12 UNL     1     -12.378  30.702  16.495  1.00  0.00     0.174 HD
ATOM     22  H11 UNL     1     -12.551  32.057  17.628  1.00  0.00     0.174 HD
ENDBRANCH   1  20
TORSDOF 5
ENDMDL
