MODEL 1
REMARK VINA RESULT: -8.368735370      0.000      0.000
REMARK  4 active torsions:
REMARK  status: ('A' for Active; 'I' for Inactive)
REMARK    1  A    between atoms: N1_1  and  C1_4 
REMARK    2  A    between atoms: C2_7  and  C3_8 
REMARK    3  A    between atoms: N3_9  and  N4_11 
REMARK       I    between atoms: C4_13  and  N6_15 
REMARK    4  A    between atoms: N6_15  and  N7_17 
ROOT
HETATM    1  C1  UNL     1      -9.498  31.791  15.659  1.00  0.00     0.679 A 
HETATM    2  N2  UNL     1      -8.996  31.379  16.817  1.00  0.00    -0.191 N 
ATOM      3  H2  UNL     1      -7.984  31.392  16.950  1.00  0.00     0.184 HD
HETATM    4  C2  UNL     1      -9.798  30.935  17.845  1.00  0.00     0.071 A 
HETATM    5  C5  UNL     1     -11.139  30.947  17.596  1.00  0.00     0.106 A 
HETATM    6  C6  UNL     1     -11.638  31.386  16.366  1.00  0.00     0.261 A 
HETATM    7  O3  UNL     1     -12.883  31.383  16.174  1.00  0.00    -0.268 OA
HETATM    8  N8  UNL     1     -10.818  31.806  15.402  1.00  0.00    -0.156 N 
ATOM      9  H8  UNL     1     -11.179  32.126  14.503  1.00  0.00     0.187 HD
ENDROOT
BRANCH   4  10
HETATM   10  C3  UNL     1      -9.180  30.501  19.081  1.00  0.00     0.137 C 
HETATM   11  N3  UNL     1      -8.609  31.196  19.919  1.00  0.00    -0.307 N 
ATOM     12  H3  UNL     1      -8.250  30.663  20.712  1.00  0.00     0.186 HD
BRANCH  11  13
HETATM   13  N4  UNL     1      -8.362  32.508  20.004  1.00  0.00    -0.273 N 
HETATM   14  C4  UNL     1      -7.838  33.134  21.021  1.00  0.00     0.226 C 
HETATM   15  N5  UNL     1      -7.633  34.541  20.966  1.00  0.00    -0.060 NA
HETATM   16  N6  UNL     1      -7.454  32.465  22.202  1.00  0.00    -0.212 N 
ATOM     17  H6  UNL     1      -7.992  31.662  22.530  1.00  0.00     0.196 HD
ATOM     18  H4  UNL     1      -8.609  33.075  19.193  1.00  0.00     0.189 HD
BRANCH  16  19
HETATM   19  N7  UNL     1      -6.348  32.891  22.921  1.00  0.00    -0.036 N 
HETATM   20  O1  UNL     1      -6.393  33.661  23.887  1.00  0.00    -0.516 OA
HETATM   21  O2  UNL     1      -5.097  32.432  22.542  1.00  0.00    -0.516 OA
ENDBRANCH  16  19
ENDBRANCH  11  13
ENDBRANCH   4  10
BRANCH   1  22
HETATM   22  N1  UNL     1      -8.650  32.191  14.750  1.00  0.00    -0.234 N 
ATOM     23  H12 UNL     1      -7.703  31.813  14.733  1.00  0.00     0.174 HD
ATOM     24  H11 UNL     1      -8.981  32.883  14.077  1.00  0.00     0.174 HD
ENDBRANCH   1  22
TORSDOF 4
ENDMDL
MODEL 2
REMARK VINA RESULT: -8.262451612      3.111      6.342
REMARK  4 active torsions:
REMARK  status: ('A' for Active; 'I' for Inactive)
REMARK    1  A    between atoms: N1_1  and  C1_4 
REMARK    2  A    between atoms: C2_7  and  C3_8 
REMARK    3  A    between atoms: N3_9  and  N4_11 
REMARK       I    between atoms: C4_13  and  N6_15 
REMARK    4  A    between atoms: N6_15  and  N7_17 
ROOT
HETATM    1  C1  UNL     1      -7.151  33.347  19.738  1.00  0.00     0.679 A 
HETATM    2  N2  UNL     1      -8.361  32.812  19.855  1.00  0.00    -0.191 N 
ATOM      3  H2  UNL     1      -8.747  32.663  20.787  1.00  0.00     0.184 HD
HETATM    4  C2  UNL     1      -9.111  32.453  18.757  1.00  0.00     0.071 A 
HETATM    5  C5  UNL     1      -8.530  32.683  17.545  1.00  0.00     0.106 A 
HETATM    6  C6  UNL     1      -7.255  33.248  17.453  1.00  0.00     0.261 A 
HETATM    7  O3  UNL     1      -6.753  33.446  16.315  1.00  0.00    -0.268 OA
HETATM    8  N8  UNL     1      -6.569  33.578  18.548  1.00  0.00    -0.156 N 
ATOM      9  H8  UNL     1      -5.638  33.989  18.485  1.00  0.00     0.187 HD
ENDROOT
BRANCH   4  10
HETATM   10  C3  UNL     1     -10.423  31.875  18.961  1.00  0.00     0.137 C 
HETATM   11  N3  UNL     1     -10.800  30.744  18.659  1.00  0.00    -0.307 N 
ATOM     12  H3  UNL     1     -11.774  30.563  18.902  1.00  0.00     0.186 HD
BRANCH  11  13
HETATM   13  N4  UNL     1     -10.194  29.703  18.078  1.00  0.00    -0.273 N 
HETATM   14  C4  UNL     1     -10.153  29.444  16.801  1.00  0.00     0.226 C 
HETATM   15  N5  UNL     1      -9.465  28.292  16.326  1.00  0.00    -0.060 NA
HETATM   16  N6  UNL     1     -10.775  30.272  15.843  1.00  0.00    -0.212 N 
ATOM     17  H6  UNL     1     -11.648  30.748  16.072  1.00  0.00     0.196 HD
ATOM     18  H4  UNL     1      -9.716  29.047  18.695  1.00  0.00     0.189 HD
BRANCH  16  19
HETATM   19  N7  UNL     1     -10.205  30.444  14.591  1.00  0.00    -0.036 N 
HETATM   20  O1  UNL     1     -10.585  29.873  13.562  1.00  0.00    -0.516 OA
HETATM   21  O2  UNL     1      -9.135  31.314  14.467  1.00  0.00    -0.516 OA
ENDBRANCH  16  19
ENDBRANCH  11  13
ENDBRANCH   4  10
BRANCH   1  22
HETATM   22  N1  UNL     1      -6.524  33.651  20.843  1.00  0.00    -0.234 N 
ATOM     23  H12 UNL     1      -7.032  34.076  21.618  1.00  0.00     0.174 HD
ATOM     24  H11 UNL     1      -5.526  33.446  20.884  1.00  0.00     0.174 HD
ENDBRANCH   1  22
TORSDOF 4
ENDMDL
MODEL 3
REMARK VINA RESULT: -8.240182074      2.469      6.470
REMARK  4 active torsions:
REMARK  status: ('A' for Active; 'I' for Inactive)
REMARK    1  A    between atoms: N1_1  and  C1_4 
REMARK    2  A    between atoms: C2_7  and  C3_8 
REMARK    3  A    between atoms: N3_9  and  N4_11 
REMARK       I    between atoms: C4_13  and  N6_15 
REMARK    4  A    between atoms: N6_15  and  N7_17 
ROOT
HETATM    1  C1  UNL     1      -8.013  32.786  21.098  1.00  0.00     0.679 A 
HETATM    2  N2  UNL     1      -8.501  31.615  20.706  1.00  0.00    -0.191 N 
ATOM      3  H2  UNL     1      -8.646  30.883  21.400  1.00  0.00     0.184 HD
HETATM    4  C2  UNL     1      -8.816  31.359  19.389  1.00  0.00     0.071 A 
HETATM    5  C5  UNL     1      -8.595  32.385  18.518  1.00  0.00     0.106 A 
HETATM    6  C6  UNL     1      -8.081  33.607  18.961  1.00  0.00     0.261 A 
HETATM    7  O3  UNL     1      -7.892  34.531  18.126  1.00  0.00    -0.268 OA
HETATM    8  N8  UNL     1      -7.791  33.805  20.248  1.00  0.00    -0.156 N 
ATOM      9  H8  UNL     1      -7.416  34.695  20.575  1.00  0.00     0.187 HD
ENDROOT
BRANCH   4  10
HETATM   10  C3  UNL     1      -9.343  30.057  19.034  1.00  0.00     0.137 C 
HETATM   11  N3  UNL     1     -10.343  29.810  18.363  1.00  0.00    -0.307 N 
ATOM     12  H3  UNL     1     -10.517  28.812  18.247  1.00  0.00     0.186 HD
BRANCH  11  13
HETATM   13  N4  UNL     1     -11.249  30.583  17.754  1.00  0.00    -0.273 N 
HETATM   14  C4  UNL     1     -11.149  31.103  16.562  1.00  0.00     0.226 C 
HETATM   15  N5  UNL     1     -12.201  31.909  16.043  1.00  0.00    -0.060 NA
HETATM   16  N6  UNL     1     -10.019  30.899  15.742  1.00  0.00    -0.212 N 
ATOM     17  H6  UNL     1      -9.093  30.818  16.164  1.00  0.00     0.196 HD
ATOM     18  H4  UNL     1     -12.103  30.786  18.273  1.00  0.00     0.189 HD
BRANCH  16  19
HETATM   19  N7  UNL     1     -10.159  30.807  14.367  1.00  0.00    -0.036 N 
HETATM   20  O1  UNL     1     -10.621  29.826  13.772  1.00  0.00    -0.516 OA
HETATM   21  O2  UNL     1      -9.759  31.881  13.589  1.00  0.00    -0.516 OA
ENDBRANCH  16  19
ENDBRANCH  11  13
ENDBRANCH   4  10
BRANCH   1  22
HETATM   22  N1  UNL     1      -7.747  32.926  22.369  1.00  0.00    -0.234 N 
ATOM     23  H12 UNL     1      -6.880  33.375  22.663  1.00  0.00     0.174 HD
ATOM     24  H11 UNL     1      -8.436  32.570  23.032  1.00  0.00     0.174 HD
ENDBRANCH   1  22
TORSDOF 4
ENDMDL
MODEL 4
REMARK VINA RESULT: -8.218382094      1.382      1.899
REMARK  4 active torsions:
REMARK  status: ('A' for Active; 'I' for Inactive)
REMARK    1  A    between atoms: N1_1  and  C1_4 
REMARK    2  A    between atoms: C2_7  and  C3_8 
REMARK    3  A    between atoms: N3_9  and  N4_11 
REMARK       I    between atoms: C4_13  and  N6_15 
REMARK    4  A    between atoms: N6_15  and  N7_17 
ROOT
HETATM    1  C1  UNL     1     -11.633  31.582  16.454  1.00  0.00     0.679 A 
HETATM    2  N2  UNL     1     -11.134  31.213  17.628  1.00  0.00    -0.191 N 
ATOM      3  H2  UNL     1     -11.756  31.164  18.436  1.00  0.00     0.184 HD
HETATM    4  C2  UNL     1      -9.804  30.895  17.791  1.00  0.00     0.071 A 
HETATM    5  C5  UNL     1      -9.034  30.983  16.668  1.00  0.00     0.106 A 
HETATM    6  C6  UNL     1      -9.587  31.374  15.445  1.00  0.00     0.261 A 
HETATM    7  O3  UNL     1      -8.844  31.443  14.431  1.00  0.00    -0.268 OA
HETATM    8  N8  UNL     1     -10.883  31.672  15.341  1.00  0.00    -0.156 N 
ATOM      9  H8  UNL     1     -11.290  31.959  14.451  1.00  0.00     0.187 HD
ENDROOT
BRANCH   4  10
HETATM   10  C3  UNL     1      -9.330  30.501  19.102  1.00  0.00     0.137 C 
HETATM   11  N3  UNL     1      -8.777  31.206  19.943  1.00  0.00    -0.307 N 
ATOM     12  H3  UNL     1      -8.532  30.704  20.796  1.00  0.00     0.186 HD
BRANCH  11  13
HETATM   13  N4  UNL     1      -8.432  32.498  19.969  1.00  0.00    -0.273 N 
HETATM   14  C4  UNL     1      -7.873  33.132  20.962  1.00  0.00     0.226 C 
HETATM   15  N5  UNL     1      -7.560  34.515  20.842  1.00  0.00    -0.060 NA
HETATM   16  N6  UNL     1      -7.556  32.495  22.180  1.00  0.00    -0.212 N 
ATOM     17  H6  UNL     1      -8.159  31.753  22.537  1.00  0.00     0.196 HD
ATOM     18  H4  UNL     1      -8.624  33.042  19.127  1.00  0.00     0.189 HD
BRANCH  16  19
HETATM   19  N7  UNL     1      -6.430  32.871  22.895  1.00  0.00    -0.036 N 
HETATM   20  O1  UNL     1      -6.433  33.660  23.847  1.00  0.00    -0.516 OA
HETATM   21  O2  UNL     1      -5.207  32.335  22.529  1.00  0.00    -0.516 OA
ENDBRANCH  16  19
ENDBRANCH  11  13
ENDBRANCH   4  10
BRANCH   1  22
HETATM   22  N1  UNL     1     -12.907  31.862  16.408  1.00  0.00    -0.234 N 
ATOM     23  H12 UNL     1     -13.503  31.419  15.710  1.00  0.00     0.174 HD
ATOM     24  H11 UNL     1     -13.262  32.531  17.092  1.00  0.00     0.174 HD
ENDBRANCH   1  22
TORSDOF 4
ENDMDL
MODEL 5
REMARK VINA RESULT: -8.179419655      2.281      2.899
REMARK  4 active torsions:
REMARK  status: ('A' for Active; 'I' for Inactive)
REMARK    1  A    between atoms: N1_1  and  C1_4 
REMARK    2  A    between atoms: C2_7  and  C3_8 
REMARK    3  A    between atoms: N3_9  and  N4_11 
REMARK       I    between atoms: C4_13  and  N6_15 
REMARK    4  A    between atoms: N6_15  and  N7_17 
ROOT
HETATM    1  C1  UNL     1     -10.068  29.189  18.145  1.00  0.00     0.679 A 
HETATM    2  N2  UNL     1      -9.011  29.985  18.022  1.00  0.00    -0.191 N 
ATOM      3  H2  UNL     1      -8.111  29.671  18.386  1.00  0.00     0.184 HD
HETATM    4  C2  UNL     1      -9.093  31.220  17.419  1.00  0.00     0.071 A 
HETATM    5  C5  UNL     1     -10.326  31.572  16.957  1.00  0.00     0.106 A 
HETATM    6  C6  UNL     1     -11.420  30.713  17.100  1.00  0.00     0.261 A 
HETATM    7  O3  UNL     1     -12.544  31.074  16.659  1.00  0.00    -0.268 OA
HETATM    8  N8  UNL     1     -11.289  29.526  17.693  1.00  0.00    -0.156 N 
ATOM      9  H8  UNL     1     -12.085  28.897  17.801  1.00  0.00     0.187 HD
ENDROOT
BRANCH   4  10
HETATM   10  C3  UNL     1      -7.899  32.034  17.321  1.00  0.00     0.137 C 
HETATM   11  N3  UNL     1      -7.452  32.815  18.158  1.00  0.00    -0.307 N 
ATOM     12  H3  UNL     1      -6.593  33.279  17.862  1.00  0.00     0.186 HD
BRANCH  11  13
HETATM   13  N4  UNL     1      -7.862  33.181  19.378  1.00  0.00    -0.273 N 
HETATM   14  C4  UNL     1      -7.161  33.820  20.272  1.00  0.00     0.226 C 
HETATM   15  N5  UNL     1      -7.734  34.144  21.533  1.00  0.00    -0.060 NA
HETATM   16  N6  UNL     1      -5.826  34.217  20.042  1.00  0.00    -0.212 N 
ATOM     17  H6  UNL     1      -5.213  33.631  19.475  1.00  0.00     0.196 HD
ATOM     18  H4  UNL     1      -8.818  32.935  19.633  1.00  0.00     0.189 HD
BRANCH  16  19
HETATM   19  N7  UNL     1      -5.343  35.398  20.583  1.00  0.00    -0.036 N 
HETATM   20  O1  UNL     1      -4.427  35.469  21.410  1.00  0.00    -0.516 OA
HETATM   21  O2  UNL     1      -5.917  36.592  20.178  1.00  0.00    -0.516 OA
ENDBRANCH  16  19
ENDBRANCH  11  13
ENDBRANCH   4  10
BRANCH   1  22
HETATM   22  N1  UNL     1      -9.883  28.039  18.734  1.00  0.00    -0.234 N 
ATOM     23  H12 UNL     1      -8.947  27.637  18.787  1.00  0.00     0.174 HD
ATOM     24  H11 UNL     1     -10.704  27.578  19.126  1.00  0.00     0.174 HD
ENDBRANCH   1  22
TORSDOF 4
ENDMDL
