MODEL 1
REMARK VINA RESULT: -7.436621382      0.000      0.000
REMARK  3 active torsions:
REMARK  status: ('A' for Active; 'I' for Inactive)
REMARK       I    between atoms: N1_2  and  C2_4 
REMARK       I    between atoms: C2_4  and  N2_6 
REMARK    1  A    between atoms: N2_6  and  C3_8 
REMARK    2  A    between atoms: C3_8  and  C5_10 
REMARK       I    between atoms: C5_10  and  N3_12 
REMARK    3  A    between atoms: N4_15  and  C8_16 
ROOT
HETATM    1  C5  UNL     1     -12.744  70.424   4.627  1.00  0.00     0.246 C 
HETATM    2  O2  UNL     1     -13.466  71.400   4.218  1.00  0.00    -0.271 OA
HETATM    3  N3  UNL     1     -11.420  70.307   4.077  1.00  0.00    -0.327 N 
HETATM    4  C6  UNL     1     -10.625  69.294   4.609  1.00  0.00     0.082 C 
HETATM    5  C7  UNL     1      -9.410  69.515   5.463  1.00  0.00     0.149 C 
HETATM    6  N4  UNL     1      -8.457  70.517   4.923  1.00  0.00    -0.240 NA
HETATM    7  C12 UNL     1      -9.114  71.268   4.018  1.00  0.00    -0.085 C 
HETATM    8  C13 UNL     1      -9.859  71.986   3.083  1.00  0.00     0.036 C 
HETATM    9  C14 UNL     1      -9.248  71.999   1.672  1.00  0.00     0.031 C 
HETATM   10  C15 UNL     1     -10.088  73.472   3.402  1.00  0.00     0.031 C 
HETATM   11  C16 UNL     1     -11.260  71.325   3.003  1.00  0.00     0.153 C 
ENDROOT
BRANCH   1  12
HETATM   12  C3  UNL     1     -13.350  69.527   5.616  1.00  0.00     0.174 C 
HETATM   13  C4  UNL     1     -12.932  68.076   5.410  1.00  0.00     0.042 C 
BRANCH  12  14
HETATM   14  N2  UNL     1     -14.810  69.571   5.427  1.00  0.00    -0.330 N 
HETATM   15  C2  UNL     1     -15.670  70.363   6.215  1.00  0.00     0.316 C 
HETATM   16  N1  UNL     1     -17.059  70.350   5.963  1.00  0.00    -0.347 N 
HETATM   17  O1  UNL     1     -15.234  71.087   7.143  1.00  0.00    -0.247 OA
HETATM   18  C1  UNL     1     -17.979  71.159   6.758  1.00  0.00     0.151 C 
ATOM     19  H1  UNL     1     -17.427  69.766   5.212  1.00  0.00     0.163 HD
ATOM     20  H2  UNL     1     -15.220  69.000   4.688  1.00  0.00     0.165 HD
ENDBRANCH  12  14
ENDBRANCH   1  12
BRANCH   6  21
HETATM   21  C8  UNL     1      -7.679  71.146   5.934  1.00  0.00     0.014 C 
HETATM   22  C9  UNL     1      -7.735  70.279   7.146  1.00  0.00     0.032 C 
HETATM   23  C10 UNL     1      -8.113  72.541   6.301  1.00  0.00     0.032 C 
HETATM   24  C11 UNL     1      -6.245  71.192   5.464  1.00  0.00     0.032 C 
ENDBRANCH   6  21
TORSDOF 3
ENDMDL
MODEL 2
REMARK VINA RESULT: -7.397233431      7.822     10.845
REMARK  3 active torsions:
REMARK  status: ('A' for Active; 'I' for Inactive)
REMARK       I    between atoms: N1_2  and  C2_4 
REMARK       I    between atoms: C2_4  and  N2_6 
REMARK    1  A    between atoms: N2_6  and  C3_8 
REMARK    2  A    between atoms: C3_8  and  C5_10 
REMARK       I    between atoms: C5_10  and  N3_12 
REMARK    3  A    between atoms: N4_15  and  C8_16 
ROOT
HETATM    1  C5  UNL     1     -11.490  73.216  -6.267  1.00  0.00     0.246 C 
HETATM    2  O2  UNL     1     -10.912  72.772  -7.320  1.00  0.00    -0.271 OA
HETATM    3  N3  UNL     1     -12.407  72.335  -5.595  1.00  0.00    -0.327 N 
HETATM    4  C6  UNL     1     -12.948  72.810  -4.402  1.00  0.00     0.082 C 
HETATM    5  C7  UNL     1     -12.637  72.260  -3.040  1.00  0.00     0.149 C 
HETATM    6  N4  UNL     1     -12.717  70.781  -2.945  1.00  0.00    -0.240 NA
HETATM    7  C12 UNL     1     -12.649  70.281  -4.194  1.00  0.00    -0.085 C 
HETATM    8  C13 UNL     1     -12.592  69.844  -5.518  1.00  0.00     0.036 C 
HETATM    9  C14 UNL     1     -13.779  68.964  -5.939  1.00  0.00     0.031 C 
HETATM   10  C15 UNL     1     -11.359  69.010  -5.899  1.00  0.00     0.031 C 
HETATM   11  C16 UNL     1     -12.574  71.106  -6.419  1.00  0.00     0.153 C 
ENDROOT
BRANCH   1  12
HETATM   12  C3  UNL     1     -11.151  74.583  -5.858  1.00  0.00     0.174 C 
HETATM   13  C4  UNL     1     -10.736  75.452  -7.039  1.00  0.00     0.042 C 
BRANCH  12  14
HETATM   14  N2  UNL     1      -9.982  74.508  -4.964  1.00  0.00    -0.330 N 
HETATM   15  C2  UNL     1     -10.015  74.902  -3.611  1.00  0.00     0.316 C 
HETATM   16  N1  UNL     1      -8.848  74.793  -2.823  1.00  0.00    -0.347 N 
HETATM   17  O1  UNL     1     -11.059  75.353  -3.080  1.00  0.00    -0.247 OA
HETATM   18  C1  UNL     1      -8.845  75.190  -1.418  1.00  0.00     0.151 C 
ATOM     19  H1  UNL     1      -7.992  74.429  -3.242  1.00  0.00     0.163 HD
ATOM     20  H2  UNL     1      -9.105  74.152  -5.344  1.00  0.00     0.165 HD
ENDBRANCH  12  14
ENDBRANCH   1  12
BRANCH   6  21
HETATM   21  C8  UNL     1     -11.889  70.243  -1.921  1.00  0.00     0.014 C 
HETATM   22  C9  UNL     1     -10.637  71.053  -1.889  1.00  0.00     0.032 C 
HETATM   23  C10 UNL     1     -11.536  68.788  -2.081  1.00  0.00     0.032 C 
HETATM   24  C11 UNL     1     -12.594  70.430  -0.599  1.00  0.00     0.032 C 
ENDBRANCH   6  21
TORSDOF 3
ENDMDL
MODEL 3
REMARK VINA RESULT: -7.188182095      8.268     11.182
REMARK  3 active torsions:
REMARK  status: ('A' for Active; 'I' for Inactive)
REMARK       I    between atoms: N1_2  and  C2_4 
REMARK       I    between atoms: C2_4  and  N2_6 
REMARK    1  A    between atoms: N2_6  and  C3_8 
REMARK    2  A    between atoms: C3_8  and  C5_10 
REMARK       I    between atoms: C5_10  and  N3_12 
REMARK    3  A    between atoms: N4_15  and  C8_16 
ROOT
HETATM    1  C5  UNL     1     -11.003  73.849  -4.222  1.00  0.00     0.246 C 
HETATM    2  O2  UNL     1     -10.066  74.519  -4.782  1.00  0.00    -0.271 OA
HETATM    3  N3  UNL     1     -12.104  73.435  -5.050  1.00  0.00    -0.327 N 
HETATM    4  C6  UNL     1     -13.060  72.629  -4.437  1.00  0.00     0.082 C 
HETATM    5  C7  UNL     1     -13.290  71.178  -4.750  1.00  0.00     0.149 C 
HETATM    6  N4  UNL     1     -13.395  70.876  -6.200  1.00  0.00    -0.240 NA
HETATM    7  C12 UNL     1     -12.854  71.906  -6.879  1.00  0.00    -0.085 C 
HETATM    8  C13 UNL     1     -12.295  73.019  -7.507  1.00  0.00     0.036 C 
HETATM    9  C14 UNL     1     -13.229  73.702  -8.518  1.00  0.00     0.031 C 
HETATM   10  C15 UNL     1     -11.006  72.765  -8.304  1.00  0.00     0.031 C 
HETATM   11  C16 UNL     1     -11.940  74.044  -6.399  1.00  0.00     0.153 C 
ENDROOT
BRANCH   1  12
HETATM   12  C3  UNL     1     -10.852  73.577  -2.789  1.00  0.00     0.174 C 
HETATM   13  C4  UNL     1      -9.819  74.487  -2.136  1.00  0.00     0.042 C 
BRANCH  12  14
HETATM   14  N2  UNL     1     -10.345  72.201  -2.645  1.00  0.00    -0.330 N 
HETATM   15  C2  UNL     1     -10.961  71.230  -1.831  1.00  0.00     0.316 C 
HETATM   16  N1  UNL     1     -10.412  69.931  -1.753  1.00  0.00    -0.347 N 
HETATM   17  O1  UNL     1     -11.994  71.486  -1.165  1.00  0.00    -0.247 OA
HETATM   18  C1  UNL     1     -11.024  68.899  -0.921  1.00  0.00     0.151 C 
ATOM     19  H1  UNL     1      -9.572  69.709  -2.288  1.00  0.00     0.163 HD
ATOM     20  H2  UNL     1      -9.506  71.938  -3.162  1.00  0.00     0.165 HD
ENDBRANCH  12  14
ENDBRANCH   1  12
BRANCH   6  21
HETATM   21  C8  UNL     1     -13.017  69.542  -6.518  1.00  0.00     0.014 C 
HETATM   22  C9  UNL     1     -12.730  68.840  -5.234  1.00  0.00     0.032 C 
HETATM   23  C10 UNL     1     -11.827  69.414  -7.432  1.00  0.00     0.032 C 
HETATM   24  C11 UNL     1     -14.199  68.859  -7.163  1.00  0.00     0.032 C 
ENDBRANCH   6  21
TORSDOF 3
ENDMDL
MODEL 4
REMARK VINA RESULT: -7.126895849      3.671      6.690
REMARK  3 active torsions:
REMARK  status: ('A' for Active; 'I' for Inactive)
REMARK       I    between atoms: N1_2  and  C2_4 
REMARK       I    between atoms: C2_4  and  N2_6 
REMARK    1  A    between atoms: N2_6  and  C3_8 
REMARK    2  A    between atoms: C3_8  and  C5_10 
REMARK       I    between atoms: C5_10  and  N3_12 
REMARK    3  A    between atoms: N4_15  and  C8_16 
ROOT
HETATM    1  C5  UNL     1     -10.150  71.506   0.914  1.00  0.00     0.246 C 
HETATM    2  O2  UNL     1     -10.099  70.437   0.209  1.00  0.00    -0.271 OA
HETATM    3  N3  UNL     1     -10.537  71.370   2.292  1.00  0.00    -0.327 N 
HETATM    4  C6  UNL     1     -10.492  72.534   3.057  1.00  0.00     0.082 C 
HETATM    5  C7  UNL     1      -9.514  72.796   4.165  1.00  0.00     0.149 C 
HETATM    6  N4  UNL     1      -9.381  71.683   5.138  1.00  0.00    -0.240 NA
HETATM    7  C12 UNL     1      -9.862  70.566   4.559  1.00  0.00    -0.085 C 
HETATM    8  C13 UNL     1     -10.395  69.460   3.897  1.00  0.00     0.036 C 
HETATM    9  C14 UNL     1     -11.538  68.767   4.656  1.00  0.00     0.031 C 
HETATM   10  C15 UNL     1      -9.411  68.321   3.588  1.00  0.00     0.031 C 
HETATM   11  C16 UNL     1     -10.944  69.958   2.535  1.00  0.00     0.153 C 
ENDROOT
BRANCH   1  12
HETATM   12  C3  UNL     1      -9.806  72.759   0.233  1.00  0.00     0.174 C 
HETATM   13  C4  UNL     1      -9.984  72.662  -1.277  1.00  0.00     0.042 C 
BRANCH  12  14
HETATM   14  N2  UNL     1      -8.375  73.019   0.469  1.00  0.00    -0.330 N 
HETATM   15  C2  UNL     1      -7.728  74.205   0.069  1.00  0.00     0.316 C 
HETATM   16  N1  UNL     1      -6.352  74.376   0.338  1.00  0.00    -0.347 N 
HETATM   17  O1  UNL     1      -8.342  75.125  -0.525  1.00  0.00    -0.247 OA
HETATM   18  C1  UNL     1      -5.648  75.592  -0.060  1.00  0.00     0.151 C 
ATOM     19  H1  UNL     1      -5.840  73.637   0.820  1.00  0.00     0.163 HD
ATOM     20  H2  UNL     1      -7.826  72.305   0.946  1.00  0.00     0.165 HD
ENDBRANCH  12  14
ENDBRANCH   1  12
BRANCH   6  21
HETATM   21  C8  UNL     1      -8.113  71.657   5.782  1.00  0.00     0.014 C 
HETATM   22  C9  UNL     1      -8.075  72.796   6.743  1.00  0.00     0.032 C 
HETATM   23  C10 UNL     1      -6.924  71.743   4.861  1.00  0.00     0.032 C 
HETATM   24  C11 UNL     1      -8.016  70.377   6.579  1.00  0.00     0.032 C 
ENDBRANCH   6  21
TORSDOF 3
ENDMDL
MODEL 5
REMARK VINA RESULT: -7.116711711      3.526      6.266
REMARK  3 active torsions:
REMARK  status: ('A' for Active; 'I' for Inactive)
REMARK       I    between atoms: N1_2  and  C2_4 
REMARK       I    between atoms: C2_4  and  N2_6 
REMARK    1  A    between atoms: N2_6  and  C3_8 
REMARK    2  A    between atoms: C3_8  and  C5_10 
REMARK       I    between atoms: C5_10  and  N3_12 
REMARK    3  A    between atoms: N4_15  and  C8_16 
ROOT
HETATM    1  C5  UNL     1     -10.281  71.151   0.654  1.00  0.00     0.246 C 
HETATM    2  O2  UNL     1     -11.031  70.161   0.342  1.00  0.00    -0.271 OA
HETATM    3  N3  UNL     1     -10.381  71.658   1.997  1.00  0.00    -0.327 N 
HETATM    4  C6  UNL     1      -9.486  72.672   2.335  1.00  0.00     0.082 C 
HETATM    5  C7  UNL     1      -8.349  72.525   3.304  1.00  0.00     0.149 C 
HETATM    6  N4  UNL     1      -8.722  71.886   4.591  1.00  0.00    -0.240 NA
HETATM    7  C12 UNL     1      -9.886  71.233   4.409  1.00  0.00    -0.085 C 
HETATM    8  C13 UNL     1     -11.100  70.600   4.143  1.00  0.00     0.036 C 
HETATM    9  C14 UNL     1     -12.244  71.024   5.077  1.00  0.00     0.031 C 
HETATM   10  C15 UNL     1     -11.093  69.066   4.236  1.00  0.00     0.031 C 
HETATM   11  C16 UNL     1     -11.498  70.957   2.687  1.00  0.00     0.153 C 
ENDROOT
BRANCH   1  12
HETATM   12  C3  UNL     1      -9.397  71.664  -0.398  1.00  0.00     0.174 C 
HETATM   13  C4  UNL     1      -9.719  73.106  -0.769  1.00  0.00     0.042 C 
BRANCH  12  14
HETATM   14  N2  UNL     1      -9.628  70.859  -1.610  1.00  0.00    -0.330 N 
HETATM   15  C2  UNL     1     -10.646  71.140  -2.543  1.00  0.00     0.316 C 
HETATM   16  N1  UNL     1     -10.797  70.319  -3.683  1.00  0.00    -0.347 N 
HETATM   17  O1  UNL     1     -11.432  72.107  -2.392  1.00  0.00    -0.247 OA
HETATM   18  C1  UNL     1     -11.839  70.580  -4.671  1.00  0.00     0.151 C 
ATOM     19  H1  UNL     1     -10.166  69.528  -3.818  1.00  0.00     0.163 HD
ATOM     20  H2  UNL     1      -9.021  70.058  -1.782  1.00  0.00     0.165 HD
ENDBRANCH  12  14
ENDBRANCH   1  12
BRANCH   6  21
HETATM   21  C8  UNL     1      -7.630  71.225   5.220  1.00  0.00     0.014 C 
HETATM   22  C9  UNL     1      -7.972  71.072   6.664  1.00  0.00     0.032 C 
HETATM   23  C10 UNL     1      -6.301  71.922   5.095  1.00  0.00     0.032 C 
HETATM   24  C11 UNL     1      -7.511  69.842   4.625  1.00  0.00     0.032 C 
ENDBRANCH   6  21
TORSDOF 3
ENDMDL
