MODEL 1
REMARK VINA RESULT: -6.676541961      0.000      0.000
REMARK  6 active torsions:
REMARK  status: ('A' for Active; 'I' for Inactive)
REMARK    1  A    between atoms: C2_2  and  C3_3 
REMARK    2  A    between atoms: C3_3  and  C4_4 
REMARK    3  A    between atoms: C4_4  and  N1_5 
REMARK    4  A    between atoms: N1_5  and  C5_7 
REMARK    5  A    between atoms: C5_7  and  C6_8 
REMARK    6  A    between atoms: C6_8  and  C7_9 
ROOT
HETATM    1  N1  UNL     1      33.804  11.048 109.279  1.00  0.00    -0.413 N 
ATOM      2  H1  UNL     1      34.528  11.124 109.993  1.00  0.00     0.154 HD
ENDROOT
BRANCH   1   3
HETATM    3  C4  UNL     1      33.729   9.900 108.415  1.00  0.00     0.025 C 
HETATM    4  C10 UNL     1      32.919  10.214 107.159  1.00  0.00     0.030 C 
HETATM    5  C11 UNL     1      33.231   9.218 106.074  1.00  0.00     0.002 C 
HETATM    6  C12 UNL     1      34.610   9.618 105.526  1.00  0.00     0.000 C 
HETATM    7  C13 UNL     1      35.540   9.940 106.659  1.00  0.00     0.002 C 
HETATM    8  C14 UNL     1      35.065   9.387 107.997  1.00  0.00     0.030 C 
BRANCH   3   9
HETATM    9  C3  UNL     1      32.946   8.822 109.076  1.00  0.00     0.030 C 
BRANCH   9  10
HETATM   10  C2  UNL     1      33.506   7.497 109.299  1.00  0.00    -0.002 C 
HETATM   11  C1  UNL     1      33.256   6.432 108.261  1.00  0.00     0.005 C 
ENDBRANCH   9  10
ENDBRANCH   3   9
ENDBRANCH   1   3
BRANCH   1  12
HETATM   12  C5  UNL     1      32.841  12.067 109.105  1.00  0.00     0.115 C 
BRANCH  12  13
HETATM   13  C6  UNL     1      31.970  12.163 110.341  1.00  0.00     0.027 C 
BRANCH  13  14
HETATM   14  C7  UNL     1      30.845  13.135 110.229  1.00  0.00     0.038 C 
HETATM   15  C8  UNL     1      29.561  12.467 110.701  1.00  0.00     0.238 C 
HETATM   16  N2  UNL     1      28.871  13.133 109.616  1.00  0.00    -0.074 N 
HETATM   17  C9  UNL     1      30.128  13.132 108.892  1.00  0.00     0.238 C 
ATOM     18  H22 UNL     1      28.027  12.732 109.205  1.00  0.00     0.277 HD
ATOM     19  H21 UNL     1      28.356  14.000 109.774  1.00  0.00     0.277 HD
ENDBRANCH  13  14
ENDBRANCH  12  13
ENDBRANCH   1  12
TORSDOF 6
ENDMDL
MODEL 2
REMARK VINA RESULT: -6.644929691      1.179      2.840
REMARK  6 active torsions:
REMARK  status: ('A' for Active; 'I' for Inactive)
REMARK    1  A    between atoms: C2_2  and  C3_3 
REMARK    2  A    between atoms: C3_3  and  C4_4 
REMARK    3  A    between atoms: C4_4  and  N1_5 
REMARK    4  A    between atoms: N1_5  and  C5_7 
REMARK    5  A    between atoms: C5_7  and  C6_8 
REMARK    6  A    between atoms: C6_8  and  C7_9 
ROOT
HETATM    1  N1  UNL     1      32.713   9.866 109.118  1.00  0.00    -0.413 N 
ATOM      2  H1  UNL     1      31.749   9.686 109.401  1.00  0.00     0.154 HD
ENDROOT
BRANCH   1   3
HETATM    3  C4  UNL     1      33.406   8.970 108.232  1.00  0.00     0.025 C 
HETATM    4  C10 UNL     1      34.880   9.353 108.112  1.00  0.00     0.030 C 
HETATM    5  C11 UNL     1      35.682   8.187 107.596  1.00  0.00     0.002 C 
HETATM    6  C12 UNL     1      35.824   7.222 108.784  1.00  0.00     0.000 C 
HETATM    7  C13 UNL     1      34.508   7.084 109.494  1.00  0.00     0.002 C 
HETATM    8  C14 UNL     1      33.324   7.541 108.652  1.00  0.00     0.030 C 
BRANCH   3   9
HETATM    9  C3  UNL     1      32.890   9.131 106.847  1.00  0.00     0.030 C 
BRANCH   9  10
HETATM   10  C2  UNL     1      33.308  10.237 105.997  1.00  0.00    -0.002 C 
HETATM   11  C1  UNL     1      32.377  11.414 105.850  1.00  0.00     0.005 C 
ENDBRANCH   9  10
ENDBRANCH   3   9
ENDBRANCH   1   3
BRANCH   1  12
HETATM   12  C5  UNL     1      33.410  11.002 109.583  1.00  0.00     0.115 C 
BRANCH  12  13
HETATM   13  C6  UNL     1      32.586  12.248 109.330  1.00  0.00     0.027 C 
BRANCH  13  14
HETATM   14  C7  UNL     1      31.120  12.071 109.540  1.00  0.00     0.038 C 
HETATM   15  C8  UNL     1      30.370  13.085 108.687  1.00  0.00     0.238 C 
HETATM   16  N2  UNL     1      29.452  13.266 109.792  1.00  0.00    -0.074 N 
HETATM   17  C9  UNL     1      30.535  12.886 110.679  1.00  0.00     0.238 C 
ATOM     18  H22 UNL     1      28.952  14.146 109.921  1.00  0.00     0.277 HD
ATOM     19  H21 UNL     1      28.557  12.778 109.817  1.00  0.00     0.277 HD
ENDBRANCH  13  14
ENDBRANCH  12  13
ENDBRANCH   1  12
TORSDOF 6
ENDMDL
MODEL 3
REMARK VINA RESULT: -6.585115152      2.170      4.223
REMARK  6 active torsions:
REMARK  status: ('A' for Active; 'I' for Inactive)
REMARK    1  A    between atoms: C2_2  and  C3_3 
REMARK    2  A    between atoms: C3_3  and  C4_4 
REMARK    3  A    between atoms: C4_4  and  N1_5 
REMARK    4  A    between atoms: N1_5  and  C5_7 
REMARK    5  A    between atoms: C5_7  and  C6_8 
REMARK    6  A    between atoms: C6_8  and  C7_9 
ROOT
HETATM    1  N1  UNL     1      33.776   7.874 106.049  1.00  0.00    -0.413 N 
ATOM      2  H1  UNL     1      33.206   7.506 105.288  1.00  0.00     0.154 HD
ENDROOT
BRANCH   1   3
HETATM    3  C4  UNL     1      34.352   6.998 107.035  1.00  0.00     0.025 C 
HETATM    4  C10 UNL     1      35.528   7.670 107.742  1.00  0.00     0.030 C 
HETATM    5  C11 UNL     1      35.814   6.981 109.050  1.00  0.00     0.002 C 
HETATM    6  C12 UNL     1      34.711   7.445 110.014  1.00  0.00     0.000 C 
HETATM    7  C13 UNL     1      33.378   7.411 109.325  1.00  0.00     0.002 C 
HETATM    8  C14 UNL     1      33.376   6.549 108.069  1.00  0.00     0.030 C 
BRANCH   3   9
HETATM    9  C3  UNL     1      34.972   5.824 106.366  1.00  0.00     0.030 C 
BRANCH   9  10
HETATM   10  C2  UNL     1      34.245   4.574 106.187  1.00  0.00    -0.002 C 
HETATM   11  C1  UNL     1      33.409   4.407 104.943  1.00  0.00     0.005 C 
ENDBRANCH   9  10
ENDBRANCH   3   9
ENDBRANCH   1   3
BRANCH   1  12
HETATM   12  C5  UNL     1      34.028   9.258 106.171  1.00  0.00     0.115 C 
BRANCH  12  13
HETATM   13  C6  UNL     1      32.767   9.969 106.617  1.00  0.00     0.027 C 
BRANCH  13  14
HETATM   14  C7  UNL     1      32.832  10.534 107.995  1.00  0.00     0.038 C 
HETATM   15  C8  UNL     1      32.404  11.994 107.956  1.00  0.00     0.238 C 
HETATM   16  N2  UNL     1      33.454  12.280 108.911  1.00  0.00    -0.074 N 
HETATM   17  C9  UNL     1      34.170  11.137 108.377  1.00  0.00     0.238 C 
ATOM     18  H22 UNL     1      33.890  13.201 108.952  1.00  0.00     0.277 HD
ATOM     19  H21 UNL     1      33.252  12.354 109.908  1.00  0.00     0.277 HD
ENDBRANCH  13  14
ENDBRANCH  12  13
ENDBRANCH   1  12
TORSDOF 6
ENDMDL
MODEL 4
REMARK VINA RESULT: -6.535075611      2.369      3.773
REMARK  6 active torsions:
REMARK  status: ('A' for Active; 'I' for Inactive)
REMARK    1  A    between atoms: C2_2  and  C3_3 
REMARK    2  A    between atoms: C3_3  and  C4_4 
REMARK    3  A    between atoms: C4_4  and  N1_5 
REMARK    4  A    between atoms: N1_5  and  C5_7 
REMARK    5  A    between atoms: C5_7  and  C6_8 
REMARK    6  A    between atoms: C6_8  and  C7_9 
ROOT
HETATM    1  N1  UNL     1      34.580   8.002 109.425  1.00  0.00    -0.413 N 
ATOM      2  H1  UNL     1      35.195   8.530 110.044  1.00  0.00     0.154 HD
ENDROOT
BRANCH   1   3
HETATM    3  C4  UNL     1      35.116   7.125 108.418  1.00  0.00     0.025 C 
HETATM    4  C10 UNL     1      34.057   6.135 107.937  1.00  0.00     0.030 C 
HETATM    5  C11 UNL     1      34.447   5.561 106.600  1.00  0.00     0.002 C 
HETATM    6  C12 UNL     1      34.164   6.669 105.574  1.00  0.00     0.000 C 
HETATM    7  C13 UNL     1      34.654   7.989 106.093  1.00  0.00     0.002 C 
HETATM    8  C14 UNL     1      35.657   7.848 107.231  1.00  0.00     0.030 C 
BRANCH   3   9
HETATM    9  C3  UNL     1      36.164   6.255 109.013  1.00  0.00     0.030 C 
BRANCH   9  10
HETATM   10  C2  UNL     1      37.454   6.058 108.366  1.00  0.00    -0.002 C 
HETATM   11  C1  UNL     1      37.790   4.682 107.849  1.00  0.00     0.005 C 
ENDBRANCH   9  10
ENDBRANCH   3   9
ENDBRANCH   1   3
BRANCH   1  12
HETATM   12  C5  UNL     1      33.176   8.107 109.526  1.00  0.00     0.115 C 
BRANCH  12  13
HETATM   13  C6  UNL     1      32.718   9.423 108.932  1.00  0.00     0.027 C 
BRANCH  13  14
HETATM   14  C7  UNL     1      33.559  10.596 109.306  1.00  0.00     0.038 C 
HETATM   15  C8  UNL     1      32.684  11.841 109.352  1.00  0.00     0.238 C 
HETATM   16  N2  UNL     1      33.773  12.573 108.740  1.00  0.00    -0.074 N 
HETATM   17  C9  UNL     1      34.197  11.323 108.137  1.00  0.00     0.238 C 
ATOM     18  H22 UNL     1      33.595  13.399 108.167  1.00  0.00     0.277 HD
ATOM     19  H21 UNL     1      34.416  13.128 109.304  1.00  0.00     0.277 HD
ENDBRANCH  13  14
ENDBRANCH  12  13
ENDBRANCH   1  12
TORSDOF 6
ENDMDL
MODEL 5
REMARK VINA RESULT: -6.530889164      1.853      3.020
REMARK  6 active torsions:
REMARK  status: ('A' for Active; 'I' for Inactive)
REMARK    1  A    between atoms: C2_2  and  C3_3 
REMARK    2  A    between atoms: C3_3  and  C4_4 
REMARK    3  A    between atoms: C4_4  and  N1_5 
REMARK    4  A    between atoms: N1_5  and  C5_7 
REMARK    5  A    between atoms: C5_7  and  C6_8 
REMARK    6  A    between atoms: C6_8  and  C7_9 
ROOT
HETATM    1  N1  UNL     1      32.852   9.026 107.445  1.00  0.00    -0.413 N 
ATOM      2  H1  UNL     1      31.862   9.066 107.207  1.00  0.00     0.154 HD
ENDROOT
BRANCH   1   3
HETATM    3  C4  UNL     1      33.560   7.774 107.473  1.00  0.00     0.025 C 
HETATM    4  C10 UNL     1      35.045   7.980 107.179  1.00  0.00     0.030 C 
HETATM    5  C11 UNL     1      35.842   6.797 107.665  1.00  0.00     0.002 C 
HETATM    6  C12 UNL     1      35.919   6.946 109.192  1.00  0.00     0.000 C 
HETATM    7  C13 UNL     1      34.576   7.331 109.740  1.00  0.00     0.002 C 
HETATM    8  C14 UNL     1      33.433   7.051 108.772  1.00  0.00     0.030 C 
BRANCH   3   9
HETATM    9  C3  UNL     1      33.100   6.909 106.355  1.00  0.00     0.030 C 
BRANCH   9  10
HETATM   10  C2  UNL     1      32.654   5.541 106.579  1.00  0.00    -0.002 C 
HETATM   11  C1  UNL     1      33.449   4.421 105.958  1.00  0.00     0.005 C 
ENDBRANCH   9  10
ENDBRANCH   3   9
ENDBRANCH   1   3
BRANCH   1  12
HETATM   12  C5  UNL     1      33.575  10.198 107.758  1.00  0.00     0.115 C 
BRANCH  12  13
HETATM   13  C6  UNL     1      33.123  10.735 109.101  1.00  0.00     0.027 C 
BRANCH  13  14
HETATM   14  C7  UNL     1      32.571  12.119 109.058  1.00  0.00     0.038 C 
HETATM   15  C8  UNL     1      31.485  12.255 110.116  1.00  0.00     0.238 C 
HETATM   16  N2  UNL     1      30.722  13.037 109.166  1.00  0.00    -0.074 N 
HETATM   17  C9  UNL     1      31.402  12.312 108.110  1.00  0.00     0.238 C 
ATOM     18  H22 UNL     1      29.703  13.070 109.210  1.00  0.00     0.277 HD
ATOM     19  H21 UNL     1      30.735  14.057 109.196  1.00  0.00     0.277 HD
ENDBRANCH  13  14
ENDBRANCH  12  13
ENDBRANCH   1  12
TORSDOF 6
ENDMDL
