MODEL 1
REMARK VINA RESULT: -7.479309680      0.000      0.000
REMARK  12 active torsions:
REMARK  status: ('A' for Active; 'I' for Inactive)
REMARK    1  A    between atoms: O1_2  and  C2_3 
REMARK    2  A    between atoms: C3_4  and  O2_5 
REMARK    3  A    between atoms: C4_7  and  C5_8 
REMARK    4  A    between atoms: C5_8  and  O3_9 
REMARK    5  A    between atoms: C6_12  and  N1_13 
REMARK    6  A    between atoms: N1_13  and  C7_15 
REMARK    7  A    between atoms: C12_20  and  N2_21 
REMARK       I    between atoms: N2_21  and  C13_23 
REMARK    8  A    between atoms: C13_23  and  C14_25 
REMARK    9  A    between atoms: C14_25  and  N3_26 
REMARK   10  A    between atoms: C14_25  and  C15_30 
REMARK   11  A    between atoms: C19_34  and  O6_35 
REMARK   12  A    between atoms: C21_38  and  O7_39 
ROOT
HETATM    1  O6  UNL     1      11.184  -3.208  11.714  1.00  0.00    -0.274 OA
HETATM    2  C20 UNL     1      10.413  -4.170  12.269  1.00  0.00     0.229 C 
HETATM    3  N4  UNL     1       9.767  -5.007  12.738  1.00  0.00    -0.164 NA
ENDROOT
BRANCH   1   4
HETATM    4  C19 UNL     1      11.336  -1.952  12.343  1.00  0.00     0.187 C 
HETATM    5  C7  UNL     1      10.218  -1.857  13.355  1.00  0.00     0.112 C 
HETATM    6  C8  UNL     1      10.393  -0.869  14.416  1.00  0.00     0.032 C 
HETATM    7  C9  UNL     1      11.763  -0.220  14.509  1.00  0.00    -0.015 C 
HETATM    8  C10 UNL     1      11.811   0.988  13.647  1.00  0.00     0.010 C 
HETATM    9  C11 UNL     1      12.786  -1.260  14.267  1.00  0.00     0.032 C 
HETATM   10  C12 UNL     1      12.703  -1.851  12.897  1.00  0.00     0.117 C 
BRANCH   5  11
HETATM   11  N1  UNL     1       9.010  -1.781  12.658  1.00  0.00    -0.388 N 
ATOM     12  H1  UNL     1       8.384  -2.582  12.730  1.00  0.00     0.156 HD
BRANCH  11  13
HETATM   13  C6  UNL     1       8.582  -0.723  11.881  1.00  0.00     0.249 C 
HETATM   14  O4  UNL     1       7.598   0.072  12.533  1.00  0.00    -0.354 OA
HETATM   15  C4  UNL     1       6.326  -0.419  12.356  1.00  0.00     0.179 C 
HETATM   16  C3  UNL     1       5.863  -0.241  10.907  1.00  0.00     0.180 C 
HETATM   17  C2  UNL     1       7.105   0.167  10.141  1.00  0.00     0.185 C 
HETATM   18  C21 UNL     1       8.164  -0.920  10.471  1.00  0.00     0.198 C 
BRANCH  15  19
HETATM   19  C5  UNL     1       5.385   0.364  13.226  1.00  0.00     0.198 C 
BRANCH  19  20
HETATM   20  O3  UNL     1       5.146  -0.256  14.459  1.00  0.00    -0.398 OA
ATOM     21  H3  UNL     1       4.458   0.170  14.956  1.00  0.00     0.209 HD
ENDBRANCH  19  20
ENDBRANCH  15  19
BRANCH  16  22
HETATM   22  O2  UNL     1       5.470  -1.511  10.466  1.00  0.00    -0.390 OA
ATOM     23  H2  UNL     1       4.899  -1.404   9.715  1.00  0.00     0.210 HD
ENDBRANCH  16  22
BRANCH  17  24
HETATM   24  O1  UNL     1       7.576   1.390  10.545  1.00  0.00    -0.385 OA
HETATM   25  C1  UNL     1       7.532   2.340   9.509  1.00  0.00     0.202 C 
ENDBRANCH  17  24
BRANCH  18  26
HETATM   26  O7  UNL     1       9.187  -0.817   9.529  1.00  0.00    -0.389 OA
ATOM     27  H7  UNL     1       9.852  -1.456   9.753  1.00  0.00     0.210 HD
ENDBRANCH  18  26
ENDBRANCH  11  13
ENDBRANCH   5  11
BRANCH  10  28
HETATM   28  N2  UNL     1      13.611  -1.109  12.041  1.00  0.00    -0.352 N 
HETATM   29  C13 UNL     1      14.521  -1.753  11.136  1.00  0.00     0.249 C 
HETATM   30  O5  UNL     1      14.516  -3.008  11.097  1.00  0.00    -0.271 OA
ATOM     31  H2  UNL     1      13.601  -0.089  12.084  1.00  0.00     0.163 HD
BRANCH  29  32
HETATM   32  C14 UNL     1      15.443  -1.029  10.268  1.00  0.00     0.282 C 
BRANCH  32  33
HETATM   33  N3  UNL     1      16.808  -1.477  10.330  1.00  0.00    -0.066 N 
ATOM     34  H33 UNL     1      17.025  -1.820  11.266  1.00  0.00     0.275 HD
ATOM     35  H32 UNL     1      16.922  -2.338   9.796  1.00  0.00     0.275 HD
ATOM     36  H31 UNL     1      17.499  -0.785  10.038  1.00  0.00     0.275 HD
ENDBRANCH  32  33
BRANCH  32  37
HETATM   37  C15 UNL     1      14.981  -0.980   8.848  1.00  0.00    -0.014 C 
HETATM   38  C16 UNL     1      15.393  -2.224   8.087  1.00  0.00     0.017 C 
HETATM   39  C17 UNL     1      13.471  -0.863   8.742  1.00  0.00     0.017 C 
HETATM   40  C18 UNL     1      15.604   0.249   8.190  1.00  0.00     0.017 C 
ENDBRANCH  32  37
ENDBRANCH  29  32
ENDBRANCH  10  28
ENDBRANCH   1   4
TORSDOF 12
ENDMDL
MODEL 2
REMARK VINA RESULT: -7.391751546      1.429      1.794
REMARK  12 active torsions:
REMARK  status: ('A' for Active; 'I' for Inactive)
REMARK    1  A    between atoms: O1_2  and  C2_3 
REMARK    2  A    between atoms: C3_4  and  O2_5 
REMARK    3  A    between atoms: C4_7  and  C5_8 
REMARK    4  A    between atoms: C5_8  and  O3_9 
REMARK    5  A    between atoms: C6_12  and  N1_13 
REMARK    6  A    between atoms: N1_13  and  C7_15 
REMARK    7  A    between atoms: C12_20  and  N2_21 
REMARK       I    between atoms: N2_21  and  C13_23 
REMARK    8  A    between atoms: C13_23  and  C14_25 
REMARK    9  A    between atoms: C14_25  and  N3_26 
REMARK   10  A    between atoms: C14_25  and  C15_30 
REMARK   11  A    between atoms: C19_34  and  O6_35 
REMARK   12  A    between atoms: C21_38  and  O7_39 
ROOT
HETATM    1  O6  UNL     1      10.322  -3.367  11.475  1.00  0.00    -0.274 OA
HETATM    2  C20 UNL     1       9.947  -4.326  12.351  1.00  0.00     0.229 C 
HETATM    3  N4  UNL     1       9.631  -5.160  13.087  1.00  0.00    -0.164 NA
ENDROOT
BRANCH   1   4
HETATM    4  C19 UNL     1      10.949  -2.183  11.926  1.00  0.00     0.187 C 
HETATM    5  C7  UNL     1      10.525  -2.011  13.365  1.00  0.00     0.112 C 
HETATM    6  C8  UNL     1      11.352  -1.123  14.178  1.00  0.00     0.032 C 
HETATM    7  C9  UNL     1      12.656  -0.661  13.551  1.00  0.00    -0.015 C 
HETATM    8  C10 UNL     1      12.431   0.583  12.773  1.00  0.00     0.010 C 
HETATM    9  C11 UNL     1      13.255  -1.805  12.831  1.00  0.00     0.032 C 
HETATM   10  C12 UNL     1      12.406  -2.293  11.701  1.00  0.00     0.117 C 
BRANCH   5  11
HETATM   11  N1  UNL     1       9.155  -1.738  13.382  1.00  0.00    -0.388 N 
ATOM     12  H1  UNL     1       8.600  -2.205  14.099  1.00  0.00     0.156 HD
BRANCH  11  13
HETATM   13  C6  UNL     1       8.481  -0.894  12.522  1.00  0.00     0.249 C 
HETATM   14  O4  UNL     1       8.167   0.358  13.119  1.00  0.00    -0.354 OA
HETATM   15  C4  UNL     1       6.986   0.324  13.821  1.00  0.00     0.179 C 
HETATM   16  C3  UNL     1       5.786   0.194  12.877  1.00  0.00     0.180 C 
HETATM   17  C2  UNL     1       6.381  -0.126  11.521  1.00  0.00     0.185 C 
HETATM   18  C21 UNL     1       7.297  -1.358  11.758  1.00  0.00     0.198 C 
BRANCH  15  19
HETATM   19  C5  UNL     1       6.832   1.619  14.566  1.00  0.00     0.198 C 
BRANCH  19  20
HETATM   20  O3  UNL     1       5.505   1.880  14.928  1.00  0.00    -0.398 OA
ATOM     21  H3  UNL     1       5.208   1.337  15.648  1.00  0.00     0.209 HD
ENDBRANCH  19  20
ENDBRANCH  15  19
BRANCH  16  22
HETATM   22  O2  UNL     1       5.064  -0.921  13.317  1.00  0.00    -0.390 OA
ATOM     23  H2  UNL     1       4.675  -0.714  14.158  1.00  0.00     0.210 HD
ENDBRANCH  16  22
BRANCH  17  24
HETATM   24  O1  UNL     1       7.140   0.911  11.037  1.00  0.00    -0.385 OA
HETATM   25  C1  UNL     1       6.609   1.441   9.848  1.00  0.00     0.202 C 
ENDBRANCH  17  24
BRANCH  18  26
HETATM   26  O7  UNL     1       7.578  -1.923  10.514  1.00  0.00    -0.389 OA
ATOM     27  H7  UNL     1       8.265  -2.567  10.637  1.00  0.00     0.210 HD
ENDBRANCH  18  26
ENDBRANCH  11  13
ENDBRANCH   5  11
BRANCH  10  28
HETATM   28  N2  UNL     1      12.849  -1.619  10.494  1.00  0.00    -0.352 N 
HETATM   29  C13 UNL     1      13.913  -2.125   9.673  1.00  0.00     0.249 C 
HETATM   30  O5  UNL     1      14.468  -3.193  10.028  1.00  0.00    -0.271 OA
ATOM     31  H2  UNL     1      12.386  -0.752  10.219  1.00  0.00     0.163 HD
BRANCH  29  32
HETATM   32  C14 UNL     1      14.376  -1.465   8.457  1.00  0.00     0.282 C 
BRANCH  32  33
HETATM   33  N3  UNL     1      13.369  -0.717   7.755  1.00  0.00    -0.066 N 
ATOM     34  H33 UNL     1      13.449  -0.874   6.750  1.00  0.00     0.275 HD
ATOM     35  H32 UNL     1      12.448  -1.121   7.924  1.00  0.00     0.275 HD
ATOM     36  H31 UNL     1      13.360   0.283   7.957  1.00  0.00     0.275 HD
ENDBRANCH  32  33
BRANCH  32  37
HETATM   37  C15 UNL     1      15.584  -0.615   8.686  1.00  0.00    -0.014 C 
HETATM   38  C16 UNL     1      15.573   0.003  10.069  1.00  0.00     0.017 C 
HETATM   39  C17 UNL     1      16.873  -1.405   8.553  1.00  0.00     0.017 C 
HETATM   40  C18 UNL     1      15.590   0.492   7.634  1.00  0.00     0.017 C 
ENDBRANCH  32  37
ENDBRANCH  29  32
ENDBRANCH  10  28
ENDBRANCH   1   4
TORSDOF 12
ENDMDL
MODEL 3
REMARK VINA RESULT: -7.105298001      3.997      7.011
REMARK  12 active torsions:
REMARK  status: ('A' for Active; 'I' for Inactive)
REMARK    1  A    between atoms: O1_2  and  C2_3 
REMARK    2  A    between atoms: C3_4  and  O2_5 
REMARK    3  A    between atoms: C4_7  and  C5_8 
REMARK    4  A    between atoms: C5_8  and  O3_9 
REMARK    5  A    between atoms: C6_12  and  N1_13 
REMARK    6  A    between atoms: N1_13  and  C7_15 
REMARK    7  A    between atoms: C12_20  and  N2_21 
REMARK       I    between atoms: N2_21  and  C13_23 
REMARK    8  A    between atoms: C13_23  and  C14_25 
REMARK    9  A    between atoms: C14_25  and  N3_26 
REMARK   10  A    between atoms: C14_25  and  C15_30 
REMARK   11  A    between atoms: C19_34  and  O6_35 
REMARK   12  A    between atoms: C21_38  and  O7_39 
ROOT
HETATM    1  O6  UNL     1       9.306   1.825  10.920  1.00  0.00    -0.274 OA
HETATM    2  C20 UNL     1      10.102   1.050  10.149  1.00  0.00     0.229 C 
HETATM    3  N4  UNL     1      10.798   0.393   9.499  1.00  0.00    -0.164 NA
ENDROOT
BRANCH   1   4
HETATM    4  C19 UNL     1       8.053   1.351  11.368  1.00  0.00     0.187 C 
HETATM    5  C7  UNL     1       7.170   1.290  10.143  1.00  0.00     0.112 C 
HETATM    6  C8  UNL     1       5.982   0.447  10.247  1.00  0.00     0.032 C 
HETATM    7  C9  UNL     1       5.894  -0.438  11.478  1.00  0.00    -0.015 C 
HETATM    8  C10 UNL     1       5.228   0.297  12.583  1.00  0.00     0.010 C 
HETATM    9  C11 UNL     1       7.238  -0.988  11.751  1.00  0.00     0.032 C 
HETATM   10  C12 UNL     1       8.246   0.067  12.076  1.00  0.00     0.117 C 
BRANCH   5  11
HETATM   11  N1  UNL     1       6.941   2.599   9.710  1.00  0.00    -0.388 N 
ATOM     12  H1  UNL     1       6.233   3.134  10.212  1.00  0.00     0.156 HD
BRANCH  11  13
HETATM   13  C6  UNL     1       7.584   3.237   8.668  1.00  0.00     0.249 C 
HETATM   14  O4  UNL     1       7.109   4.562   8.462  1.00  0.00    -0.354 OA
HETATM   15  C4  UNL     1       6.002   4.602   7.649  1.00  0.00     0.179 C 
HETATM   16  C3  UNL     1       6.364   4.245   6.204  1.00  0.00     0.180 C 
HETATM   17  C2  UNL     1       7.780   3.708   6.272  1.00  0.00     0.185 C 
HETATM   18  C21 UNL     1       7.739   2.585   7.344  1.00  0.00     0.198 C 
BRANCH  15  19
HETATM   19  C5  UNL     1       5.462   6.004   7.642  1.00  0.00     0.198 C 
BRANCH  19  20
HETATM   20  O3  UNL     1       6.473   6.972   7.612  1.00  0.00    -0.398 OA
ATOM     21  H3  UNL     1       6.227   7.744   7.116  1.00  0.00     0.209 HD
ENDBRANCH  19  20
ENDBRANCH  15  19
BRANCH  16  22
HETATM   22  O2  UNL     1       5.512   3.198   5.837  1.00  0.00    -0.390 OA
ATOM     23  H2  UNL     1       4.871   3.534   5.222  1.00  0.00     0.210 HD
ENDBRANCH  16  22
BRANCH  17  24
HETATM   24  O1  UNL     1       8.674   4.672   6.665  1.00  0.00    -0.385 OA
HETATM   25  C1  UNL     1       9.391   5.200   5.576  1.00  0.00     0.202 C 
ENDBRANCH  17  24
BRANCH  18  26
HETATM   26  O7  UNL     1       8.891   1.814   7.194  1.00  0.00    -0.389 OA
ATOM     27  H7  UNL     1       8.641   0.901   7.277  1.00  0.00     0.210 HD
ENDBRANCH  18  26
ENDBRANCH  11  13
ENDBRANCH   5  11
BRANCH  10  28
HETATM   28  N2  UNL     1       8.283   0.213  13.519  1.00  0.00    -0.352 N 
HETATM   29  C13 UNL     1       9.460   0.637  14.224  1.00  0.00     0.249 C 
HETATM   30  O5  UNL     1      10.487   0.890  13.547  1.00  0.00    -0.271 OA
ATOM     31  H2  UNL     1       7.439   0.005  14.054  1.00  0.00     0.163 HD
BRANCH  29  32
HETATM   32  C14 UNL     1       9.522   0.789  15.673  1.00  0.00     0.282 C 
BRANCH  32  33
HETATM   33  N3  UNL     1      10.839   1.025  16.200  1.00  0.00    -0.066 N 
ATOM     34  H33 UNL     1      11.546   0.678  15.551  1.00  0.00     0.275 HD
ATOM     35  H32 UNL     1      11.054   2.022  16.179  1.00  0.00     0.275 HD
ATOM     36  H31 UNL     1      11.000   0.647  17.133  1.00  0.00     0.275 HD
ENDBRANCH  32  33
BRANCH  32  37
HETATM   37  C15 UNL     1       8.569   1.820  16.187  1.00  0.00    -0.014 C 
HETATM   38  C16 UNL     1       8.292   2.885  15.147  1.00  0.00     0.017 C 
HETATM   39  C17 UNL     1       7.235   1.216  16.585  1.00  0.00     0.017 C 
HETATM   40  C18 UNL     1       9.192   2.464  17.424  1.00  0.00     0.017 C 
ENDBRANCH  32  37
ENDBRANCH  29  32
ENDBRANCH  10  28
ENDBRANCH   1   4
TORSDOF 12
ENDMDL
MODEL 4
REMARK VINA RESULT: -7.044871699      2.903      4.776
REMARK  12 active torsions:
REMARK  status: ('A' for Active; 'I' for Inactive)
REMARK    1  A    between atoms: O1_2  and  C2_3 
REMARK    2  A    between atoms: C3_4  and  O2_5 
REMARK    3  A    between atoms: C4_7  and  C5_8 
REMARK    4  A    between atoms: C5_8  and  O3_9 
REMARK    5  A    between atoms: C6_12  and  N1_13 
REMARK    6  A    between atoms: N1_13  and  C7_15 
REMARK    7  A    between atoms: C12_20  and  N2_21 
REMARK       I    between atoms: N2_21  and  C13_23 
REMARK    8  A    between atoms: C13_23  and  C14_25 
REMARK    9  A    between atoms: C14_25  and  N3_26 
REMARK   10  A    between atoms: C14_25  and  C15_30 
REMARK   11  A    between atoms: C19_34  and  O6_35 
REMARK   12  A    between atoms: C21_38  and  O7_39 
ROOT
HETATM    1  O6  UNL     1       8.932   1.761  11.121  1.00  0.00    -0.274 OA
HETATM    2  C20 UNL     1       8.089   1.923  10.075  1.00  0.00     0.229 C 
HETATM    3  N4  UNL     1       7.381   2.075   9.174  1.00  0.00    -0.164 NA
ENDROOT
BRANCH   1   4
HETATM    4  C19 UNL     1       9.146   0.483  11.683  1.00  0.00     0.187 C 
HETATM    5  C7  UNL     1       7.782  -0.032  12.078  1.00  0.00     0.112 C 
HETATM    6  C8  UNL     1       7.673  -1.474  12.283  1.00  0.00     0.032 C 
HETATM    7  C9  UNL     1       8.871  -2.304  11.860  1.00  0.00    -0.015 C 
HETATM    8  C10 UNL     1       9.834  -2.416  12.985  1.00  0.00     0.010 C 
HETATM    9  C11 UNL     1       9.387  -1.758  10.586  1.00  0.00     0.032 C 
HETATM   10  C12 UNL     1       9.884  -0.354  10.712  1.00  0.00     0.117 C 
BRANCH   5  11
HETATM   11  N1  UNL     1       7.308   0.761  13.126  1.00  0.00    -0.388 N 
ATOM     12  H1  UNL     1       6.371   1.149  13.024  1.00  0.00     0.156 HD
BRANCH  11  13
HETATM   13  C6  UNL     1       7.988   1.068  14.287  1.00  0.00     0.249 C 
HETATM   14  O4  UNL     1       7.164   0.975  15.444  1.00  0.00    -0.354 OA
HETATM   15  C4  UNL     1       6.466   2.134  15.686  1.00  0.00     0.179 C 
HETATM   16  C3  UNL     1       7.402   3.258  16.142  1.00  0.00     0.180 C 
HETATM   17  C2  UNL     1       8.801   2.736  15.887  1.00  0.00     0.185 C 
HETATM   18  C21 UNL     1       8.810   2.299  14.397  1.00  0.00     0.198 C 
BRANCH  15  19
HETATM   19  C5  UNL     1       5.491   1.883  16.800  1.00  0.00     0.198 C 
BRANCH  19  20
HETATM   20  O3  UNL     1       4.935   3.063  17.309  1.00  0.00    -0.398 OA
ATOM     21  H3  UNL     1       5.417   3.406  18.052  1.00  0.00     0.209 HD
ENDBRANCH  19  20
ENDBRANCH  15  19
BRANCH  16  22
HETATM   22  O2  UNL     1       7.168   4.333  15.277  1.00  0.00    -0.390 OA
ATOM     23  H2  UNL     1       6.994   3.988  14.409  1.00  0.00     0.210 HD
ENDBRANCH  16  22
BRANCH  17  24
HETATM   24  O1  UNL     1       9.093   1.650  16.675  1.00  0.00    -0.385 OA
HETATM   25  C1  UNL     1      10.271   1.842  17.420  1.00  0.00     0.202 C 
ENDBRANCH  17  24
BRANCH  18  26
HETATM   26  O7  UNL     1      10.140   2.160  14.003  1.00  0.00    -0.389 OA
ATOM     27  H7  UNL     1      10.148   1.737  13.153  1.00  0.00     0.210 HD
ENDBRANCH  18  26
ENDBRANCH  11  13
ENDBRANCH   5  11
BRANCH  10  28
HETATM   28  N2  UNL     1      11.309  -0.413  10.978  1.00  0.00    -0.352 N 
HETATM   29  C13 UNL     1      12.285  -0.564   9.935  1.00  0.00     0.249 C 
HETATM   30  O5  UNL     1      11.869  -0.645   8.753  1.00  0.00    -0.271 OA
ATOM     31  H2  UNL     1      11.630  -0.345  11.944  1.00  0.00     0.163 HD
BRANCH  29  32
HETATM   32  C14 UNL     1      13.722  -0.628  10.178  1.00  0.00     0.282 C 
BRANCH  32  33
HETATM   33  N3  UNL     1      14.209   0.299  11.163  1.00  0.00    -0.066 N 
ATOM     34  H33 UNL     1      14.114   1.257  10.825  1.00  0.00     0.275 HD
ATOM     35  H32 UNL     1      13.575   0.331  11.962  1.00  0.00     0.275 HD
ATOM     36  H31 UNL     1      15.164   0.128  11.477  1.00  0.00     0.275 HD
ENDBRANCH  32  33
BRANCH  32  37
HETATM   37  C15 UNL     1      14.194  -2.010  10.494  1.00  0.00    -0.014 C 
HETATM   38  C16 UNL     1      15.195  -2.008  11.630  1.00  0.00     0.017 C 
HETATM   39  C17 UNL     1      13.052  -2.926  10.897  1.00  0.00     0.017 C 
HETATM   40  C18 UNL     1      14.848  -2.584   9.239  1.00  0.00     0.017 C 
ENDBRANCH  32  37
ENDBRANCH  29  32
ENDBRANCH  10  28
ENDBRANCH   1   4
TORSDOF 12
ENDMDL
MODEL 5
REMARK VINA RESULT: -7.036169380      2.337      8.080
REMARK  12 active torsions:
REMARK  status: ('A' for Active; 'I' for Inactive)
REMARK    1  A    between atoms: O1_2  and  C2_3 
REMARK    2  A    between atoms: C3_4  and  O2_5 
REMARK    3  A    between atoms: C4_7  and  C5_8 
REMARK    4  A    between atoms: C5_8  and  O3_9 
REMARK    5  A    between atoms: C6_12  and  N1_13 
REMARK    6  A    between atoms: N1_13  and  C7_15 
REMARK    7  A    between atoms: C12_20  and  N2_21 
REMARK       I    between atoms: N2_21  and  C13_23 
REMARK    8  A    between atoms: C13_23  and  C14_25 
REMARK    9  A    between atoms: C14_25  and  N3_26 
REMARK   10  A    between atoms: C14_25  and  C15_30 
REMARK   11  A    between atoms: C19_34  and  O6_35 
REMARK   12  A    between atoms: C21_38  and  O7_39 
ROOT
HETATM    1  O6  UNL     1      11.397  -0.747   9.671  1.00  0.00    -0.274 OA
HETATM    2  C20 UNL     1      10.223  -0.243   9.227  1.00  0.00     0.229 C 
HETATM    3  N4  UNL     1       9.220   0.176   8.832  1.00  0.00    -0.164 NA
ENDROOT
BRANCH   1   4
HETATM    4  C19 UNL     1      11.601  -0.997  11.046  1.00  0.00     0.187 C 
HETATM    5  C7  UNL     1      13.096  -1.086  11.236  1.00  0.00     0.112 C 
HETATM    6  C8  UNL     1      13.583  -0.914  12.602  1.00  0.00     0.032 C 
HETATM    7  C9  UNL     1      12.562  -0.446  13.624  1.00  0.00    -0.015 C 
HETATM    8  C10 UNL     1      11.875  -1.617  14.226  1.00  0.00     0.010 C 
HETATM    9  C11 UNL     1      11.710   0.582  12.990  1.00  0.00     0.032 C 
HETATM   10  C12 UNL     1      10.922   0.054  11.834  1.00  0.00     0.117 C 
BRANCH   5  11
HETATM   11  N1  UNL     1      13.548  -2.233  10.578  1.00  0.00    -0.388 N 
ATOM     12  H1  UNL     1      13.301  -3.131  10.993  1.00  0.00     0.156 HD
BRANCH  11  13
HETATM   13  C6  UNL     1      14.296  -2.266   9.418  1.00  0.00     0.249 C 
HETATM   14  O4  UNL     1      15.518  -2.976   9.577  1.00  0.00    -0.354 OA
HETATM   15  C4  UNL     1      16.528  -2.182  10.065  1.00  0.00     0.179 C 
HETATM   16  C3  UNL     1      16.976  -1.153   9.022  1.00  0.00     0.180 C 
HETATM   17  C2  UNL     1      15.934  -1.223   7.924  1.00  0.00     0.185 C 
HETATM   18  C21 UNL     1      14.570  -1.031   8.643  1.00  0.00     0.198 C 
BRANCH  15  19
HETATM   19  C5  UNL     1      17.714  -3.049  10.377  1.00  0.00     0.198 C 
BRANCH  19  20
HETATM   20  O3  UNL     1      18.073  -3.879   9.308  1.00  0.00    -0.398 OA
ATOM     21  H3  UNL     1      18.956  -3.719   9.000  1.00  0.00     0.209 HD
ENDBRANCH  19  20
ENDBRANCH  15  19
BRANCH  16  22
HETATM   22  O2  UNL     1      16.880   0.098   9.643  1.00  0.00    -0.390 OA
ATOM     23  H2  UNL     1      16.291   0.020  10.384  1.00  0.00     0.210 HD
ENDBRANCH  16  22
BRANCH  17  24
HETATM   24  O1  UNL     1      15.940  -2.440   7.290  1.00  0.00    -0.385 OA
HETATM   25  C1  UNL     1      16.860  -2.475   6.227  1.00  0.00     0.202 C 
ENDBRANCH  17  24
BRANCH  18  26
HETATM   26  O7  UNL     1      13.620  -0.717   7.671  1.00  0.00    -0.389 OA
ATOM     27  H7  UNL     1      13.613  -1.423   7.036  1.00  0.00     0.210 HD
ENDBRANCH  18  26
ENDBRANCH  11  13
ENDBRANCH   5  11
BRANCH  10  28
HETATM   28  N2  UNL     1       9.624  -0.359  12.337  1.00  0.00    -0.352 N 
HETATM   29  C13 UNL     1       8.500   0.533  12.401  1.00  0.00     0.249 C 
HETATM   30  O5  UNL     1       8.666   1.712  11.999  1.00  0.00    -0.271 OA
ATOM     31  H2  UNL     1       9.506  -1.320  12.657  1.00  0.00     0.163 HD
BRANCH  29  32
HETATM   32  C14 UNL     1       7.188   0.142  12.903  1.00  0.00     0.282 C 
BRANCH  32  33
HETATM   33  N3  UNL     1       6.565   1.101  13.774  1.00  0.00    -0.066 N 
ATOM     34  H33 UNL     1       6.816   0.912  14.745  1.00  0.00     0.275 HD
ATOM     35  H32 UNL     1       6.996   2.018  13.656  1.00  0.00     0.275 HD
ATOM     36  H31 UNL     1       5.552   1.172  13.679  1.00  0.00     0.275 HD
ENDBRANCH  32  33
BRANCH  32  37
HETATM   37  C15 UNL     1       6.246  -0.251  11.811  1.00  0.00    -0.014 C 
HETATM   38  C16 UNL     1       5.960   0.910  10.881  1.00  0.00     0.017 C 
HETATM   39  C17 UNL     1       6.793  -1.386  10.965  1.00  0.00     0.017 C 
HETATM   40  C18 UNL     1       4.943  -0.720  12.457  1.00  0.00     0.017 C 
ENDBRANCH  32  37
ENDBRANCH  29  32
ENDBRANCH  10  28
ENDBRANCH   1   4
TORSDOF 12
ENDMDL
