MODEL 1
REMARK VINA RESULT: -4.911619930      0.000      0.000
REMARK  1 active torsions:
REMARK  status: ('A' for Active; 'I' for Inactive)
REMARK    1  A    between atoms: O1_1  and  C1_3 
ROOT
HETATM    1  C1  UNL     1      13.763  -2.250  24.886  1.00  0.00     0.126 C 
HETATM    2  C2  UNL     1      15.062  -2.838  25.445  1.00  0.00     0.032 C 
HETATM    3  C3  UNL     1      16.085  -2.558  24.388  1.00  0.00     0.002 C 
HETATM    4  C4  UNL     1      16.300  -1.097  24.211  1.00  0.00     0.001 C 
HETATM    5  C5  UNL     1      15.206  -0.203  24.641  1.00  0.00     0.012 C 
HETATM    6  C6  UNL     1      13.866  -0.766  24.839  1.00  0.00    -0.014 C 
HETATM    7  C7  UNL     1      13.279  -0.205  26.136  1.00  0.00     0.012 C 
HETATM    8  C8  UNL     1      12.196   0.750  25.731  1.00  0.00     0.001 C 
HETATM    9  C9  UNL     1      11.608   0.043  24.511  1.00  0.00     0.001 C 
HETATM   10  C10 UNL     1      12.877  -0.308  23.760  1.00  0.00     0.012 C 
ENDROOT
BRANCH   1  11
HETATM   11  O1  UNL     1      12.654  -2.696  25.574  1.00  0.00    -0.395 OA
ATOM     12  H1  UNL     1      11.978  -2.031  25.631  1.00  0.00     0.210 HD
ENDBRANCH   1  11
TORSDOF 1
ENDMDL
MODEL 2
REMARK VINA RESULT: -4.846006907      1.205      3.562
REMARK  1 active torsions:
REMARK  status: ('A' for Active; 'I' for Inactive)
REMARK    1  A    between atoms: O1_1  and  C1_3 
ROOT
HETATM    1  C1  UNL     1      12.980  -0.850  25.593  1.00  0.00     0.126 C 
HETATM    2  C2  UNL     1      11.984   0.313  25.591  1.00  0.00     0.032 C 
HETATM    3  C3  UNL     1      12.503   1.252  26.635  1.00  0.00     0.002 C 
HETATM    4  C4  UNL     1      13.831   1.805  26.260  1.00  0.00     0.001 C 
HETATM    5  C5  UNL     1      14.634   1.024  25.299  1.00  0.00     0.012 C 
HETATM    6  C6  UNL     1      14.293  -0.384  25.070  1.00  0.00    -0.014 C 
HETATM    7  C7  UNL     1      14.336  -0.667  23.567  1.00  0.00     0.012 C 
HETATM    8  C8  UNL     1      15.551  -1.514  23.331  1.00  0.00     0.001 C 
HETATM    9  C9  UNL     1      15.559  -2.390  24.582  1.00  0.00     0.001 C 
HETATM   10  C10 UNL     1      15.343  -1.339  25.653  1.00  0.00     0.012 C 
ENDROOT
BRANCH   1  11
HETATM   11  O1  UNL     1      12.490  -1.953  24.925  1.00  0.00    -0.395 OA
ATOM     12  H1  UNL     1      12.199  -2.632  25.523  1.00  0.00     0.210 HD
ENDBRANCH   1  11
TORSDOF 1
ENDMDL
MODEL 3
REMARK VINA RESULT: -4.674881057      2.424      3.650
REMARK  1 active torsions:
REMARK  status: ('A' for Active; 'I' for Inactive)
REMARK    1  A    between atoms: O1_1  and  C1_3 
ROOT
HETATM    1  C1  UNL     1      12.662   1.220  25.938  1.00  0.00     0.126 C 
HETATM    2  C2  UNL     1      11.994  -0.069  25.452  1.00  0.00     0.032 C 
HETATM    3  C3  UNL     1      12.459  -0.221  24.037  1.00  0.00     0.002 C 
HETATM    4  C4  UNL     1      13.929  -0.429  23.965  1.00  0.00     0.001 C 
HETATM    5  C5  UNL     1      14.729   0.048  25.110  1.00  0.00     0.012 C 
HETATM    6  C6  UNL     1      14.133   1.014  26.038  1.00  0.00    -0.014 C 
HETATM    7  C7  UNL     1      14.459   0.591  27.472  1.00  0.00     0.012 C 
HETATM    8  C8  UNL     1      15.463   1.579  27.986  1.00  0.00     0.001 C 
HETATM    9  C9  UNL     1      14.973   2.874  27.342  1.00  0.00     0.001 C 
HETATM   10  C10 UNL     1      14.764   2.407  25.915  1.00  0.00     0.012 C 
ENDROOT
BRANCH   1  11
HETATM   11  O1  UNL     1      12.098   1.687  27.107  1.00  0.00    -0.395 OA
ATOM     12  H1  UNL     1      12.410   1.212  27.868  1.00  0.00     0.210 HD
ENDBRANCH   1  11
TORSDOF 1
ENDMDL
MODEL 4
REMARK VINA RESULT: -4.601603093      2.102      3.490
REMARK  1 active torsions:
REMARK  status: ('A' for Active; 'I' for Inactive)
REMARK    1  A    between atoms: O1_1  and  C1_3 
ROOT
HETATM    1  C1  UNL     1      12.613   0.691  26.371  1.00  0.00     0.126 C 
HETATM    2  C2  UNL     1      13.170   1.897  27.131  1.00  0.00     0.032 C 
HETATM    3  C3  UNL     1      13.961   1.299  28.254  1.00  0.00     0.002 C 
HETATM    4  C4  UNL     1      15.122   0.519  27.747  1.00  0.00     0.001 C 
HETATM    5  C5  UNL     1      15.037   0.018  26.362  1.00  0.00     0.012 C 
HETATM    6  C6  UNL     1      13.726  -0.040  25.707  1.00  0.00    -0.014 C 
HETATM    7  C7  UNL     1      13.861   0.492  24.278  1.00  0.00     0.012 C 
HETATM    8  C8  UNL     1      13.732  -0.694  23.371  1.00  0.00     0.001 C 
HETATM    9  C9  UNL     1      12.681  -1.525  24.105  1.00  0.00     0.001 C 
HETATM   10  C10 UNL     1      13.233  -1.480  25.516  1.00  0.00     0.012 C 
ENDROOT
BRANCH   1  11
HETATM   11  O1  UNL     1      11.602   1.047  25.502  1.00  0.00    -0.395 OA
ATOM     12  H1  UNL     1      11.692   0.623  24.657  1.00  0.00     0.210 HD
ENDBRANCH   1  11
TORSDOF 1
ENDMDL
MODEL 5
REMARK VINA RESULT: -4.576350696      1.464      2.350
REMARK  1 active torsions:
REMARK  status: ('A' for Active; 'I' for Inactive)
REMARK    1  A    between atoms: O1_1  and  C1_3 
ROOT
HETATM    1  C1  UNL     1      15.072  -0.477  24.218  1.00  0.00     0.126 C 
HETATM    2  C2  UNL     1      15.673  -1.630  23.410  1.00  0.00     0.032 C 
HETATM    3  C3  UNL     1      16.285  -2.530  24.438  1.00  0.00     0.002 C 
HETATM    4  C4  UNL     1      15.253  -3.110  25.338  1.00  0.00     0.001 C 
HETATM    5  C5  UNL     1      13.977  -2.377  25.453  1.00  0.00     0.012 C 
HETATM    6  C6  UNL     1      13.922  -0.977  25.021  1.00  0.00    -0.014 C 
HETATM    7  C7  UNL     1      12.643  -0.756  24.211  1.00  0.00     0.012 C 
HETATM    8  C8  UNL     1      11.734   0.068  25.073  1.00  0.00     0.001 C 
HETATM    9  C9  UNL     1      12.730   0.995  25.766  1.00  0.00     0.001 C 
HETATM   10  C10 UNL     1      13.780  -0.009  26.203  1.00  0.00     0.012 C 
ENDROOT
BRANCH   1  11
HETATM   11  O1  UNL     1      14.750   0.602  23.422  1.00  0.00    -0.395 OA
ATOM     12  H1  UNL     1      13.963   0.448  22.913  1.00  0.00     0.210 HD
ENDBRANCH   1  11
TORSDOF 1
ENDMDL
