MODEL 1
REMARK VINA RESULT: -9.170379937      0.000      0.000
REMARK  4 active torsions:
REMARK  status: ('A' for Active; 'I' for Inactive)
REMARK    1  A    between atoms: N1_6  and  C5_7 
REMARK    2  A    between atoms: N3_19  and  C14_20 
REMARK    3  A    between atoms: C14_20  and  O3_21 
REMARK    4  A    between atoms: C14_20  and  C15_23 
ROOT
HETATM    1  O1  UNL     1      32.426  72.755  82.263  1.00  0.00    -0.271 OA
HETATM    2  C1  UNL     1      31.295  73.297  82.299  1.00  0.00     0.245 C 
HETATM    3  C2  UNL     1      30.879  74.379  83.184  1.00  0.00     0.212 C 
HETATM    4  C3  UNL     1      29.391  74.491  82.928  1.00  0.00     0.136 C 
HETATM    5  C4  UNL     1      29.291  74.046  81.469  1.00  0.00     0.154 C 
HETATM    6  N1  UNL     1      30.208  72.914  81.444  1.00  0.00    -0.344 N 
HETATM    7  N2  UNL     1      28.842  73.458  83.779  1.00  0.00    -0.334 N 
ATOM      8  H2  UNL     1      27.866  73.163  83.805  1.00  0.00     0.164 HD
HETATM    9  C13 UNL     1      29.910  72.910  84.589  1.00  0.00     0.325 C 
HETATM   10  O2  UNL     1      29.897  71.770  85.104  1.00  0.00    -0.247 OA
HETATM   11  N3  UNL     1      30.884  73.924  84.631  1.00  0.00    -0.267 N 
ENDROOT
BRANCH  11  12
HETATM   12  C14 UNL     1      31.721  74.436  85.600  1.00  0.00     0.131 C 
BRANCH  12  13
HETATM   13  O3  UNL     1      31.290  75.586  86.114  1.00  0.00    -0.348 OA
ATOM     14  H3  UNL     1      31.565  75.722  87.013  1.00  0.00     0.219 HD
ENDBRANCH  12  13
BRANCH  12  15
HETATM   15  C15 UNL     1      32.963  73.994  86.191  1.00  0.00     0.026 C 
HETATM   16  C16 UNL     1      33.493  74.874  87.267  1.00  0.00     0.022 C 
HETATM   17  C17 UNL     1      34.771  74.314  87.909  1.00  0.00    -0.013 C 
HETATM   18  C18 UNL     1      34.492  72.956  88.436  1.00  0.00     0.009 C 
HETATM   19  C22 UNL     1      35.850  74.236  86.843  1.00  0.00     0.009 C 
HETATM   20  C19 UNL     1      34.060  72.055  87.292  1.00  0.00    -0.013 C 
HETATM   21  C20 UNL     1      35.064  71.985  86.191  1.00  0.00     0.009 C 
HETATM   22  C24 UNL     1      32.772  72.572  86.747  1.00  0.00     0.022 C 
HETATM   23  C21 UNL     1      35.338  73.409  85.711  1.00  0.00    -0.013 C 
HETATM   24  C23 UNL     1      34.043  73.913  85.118  1.00  0.00     0.022 C 
ENDBRANCH  12  15
ENDBRANCH  11  12
BRANCH   6  25
HETATM   25  C5  UNL     1      30.074  71.665  80.720  1.00  0.00     0.087 C 
HETATM   26  C6  UNL     1      29.170  71.801  79.521  1.00  0.00     0.025 C 
HETATM   27  C7  UNL     1      29.876  71.621  78.215  1.00  0.00     0.002 C 
HETATM   28  C8  UNL     1      30.249  70.219  77.891  1.00  0.00     0.000 C 
HETATM   29  C9  UNL     1      29.463  69.172  78.609  1.00  0.00     0.000 C 
HETATM   30  C10 UNL     1      30.022  68.897  79.992  1.00  0.00     0.000 C 
HETATM   31  C11 UNL     1      29.073  69.382  81.043  1.00  0.00     0.002 C 
HETATM   32  C12 UNL     1      29.523  70.647  81.693  1.00  0.00     0.025 C 
ENDBRANCH   6  25
TORSDOF 4
ENDMDL
MODEL 2
REMARK VINA RESULT: -9.144448930      0.395      1.280
REMARK  4 active torsions:
REMARK  status: ('A' for Active; 'I' for Inactive)
REMARK    1  A    between atoms: N1_6  and  C5_7 
REMARK    2  A    between atoms: N3_19  and  C14_20 
REMARK    3  A    between atoms: C14_20  and  O3_21 
REMARK    4  A    between atoms: C14_20  and  C15_23 
ROOT
HETATM    1  O1  UNL     1      32.241  72.952  81.885  1.00  0.00    -0.271 OA
HETATM    2  C1  UNL     1      31.056  73.300  82.105  1.00  0.00     0.245 C 
HETATM    3  C2  UNL     1      30.606  74.270  83.098  1.00  0.00     0.212 C 
HETATM    4  C3  UNL     1      29.098  74.146  83.053  1.00  0.00     0.136 C 
HETATM    5  C4  UNL     1      28.862  73.740  81.598  1.00  0.00     0.154 C 
HETATM    6  N1  UNL     1      29.931  72.774  81.385  1.00  0.00    -0.344 N 
HETATM    7  N2  UNL     1      28.845  73.009  83.911  1.00  0.00    -0.334 N 
ATOM      8  H2  UNL     1      27.941  72.558  84.052  1.00  0.00     0.164 HD
HETATM    9  C13 UNL     1      30.091  72.616  84.537  1.00  0.00     0.325 C 
HETATM   10  O2  UNL     1      30.330  71.472  84.983  1.00  0.00    -0.247 OA
HETATM   11  N3  UNL     1      30.889  73.773  84.503  1.00  0.00    -0.267 N 
ENDROOT
BRANCH  11  12
HETATM   12  C14 UNL     1      31.766  74.381  85.377  1.00  0.00     0.131 C 
BRANCH  12  13
HETATM   13  O3  UNL     1      31.383  75.604  85.740  1.00  0.00    -0.348 OA
ATOM     14  H3  UNL     1      31.067  76.129  85.014  1.00  0.00     0.219 HD
ENDBRANCH  12  13
BRANCH  12  15
HETATM   15  C15 UNL     1      33.008  73.981  85.996  1.00  0.00     0.026 C 
HETATM   16  C16 UNL     1      32.898  72.830  86.933  1.00  0.00     0.022 C 
HETATM   17  C17 UNL     1      34.260  72.401  87.499  1.00  0.00    -0.013 C 
HETATM   18  C18 UNL     1      35.169  72.073  86.375  1.00  0.00     0.009 C 
HETATM   19  C22 UNL     1      34.834  73.557  88.299  1.00  0.00     0.009 C 
HETATM   20  C19 UNL     1      35.346  73.302  85.500  1.00  0.00    -0.013 C 
HETATM   21  C20 UNL     1      35.859  74.485  86.250  1.00  0.00     0.009 C 
HETATM   22  C24 UNL     1      34.027  73.642  84.895  1.00  0.00     0.022 C 
HETATM   23  C21 UNL     1      34.906  74.756  87.413  1.00  0.00    -0.013 C 
HETATM   24  C23 UNL     1      33.583  75.144  86.794  1.00  0.00     0.022 C 
ENDBRANCH  12  15
ENDBRANCH  11  12
BRANCH   6  25
HETATM   25  C5  UNL     1      29.893  71.546  80.616  1.00  0.00     0.087 C 
HETATM   26  C6  UNL     1      29.119  71.706  79.332  1.00  0.00     0.025 C 
HETATM   27  C7  UNL     1      29.962  71.572  78.105  1.00  0.00     0.002 C 
HETATM   28  C8  UNL     1      30.387  70.183  77.784  1.00  0.00     0.000 C 
HETATM   29  C9  UNL     1      29.544  69.108  78.385  1.00  0.00     0.000 C 
HETATM   30  C10 UNL     1      29.957  68.799  79.811  1.00  0.00     0.000 C 
HETATM   31  C11 UNL     1      28.896  69.243  80.769  1.00  0.00     0.002 C 
HETATM   32  C12 UNL     1      29.256  70.493  81.497  1.00  0.00     0.025 C 
ENDBRANCH   6  25
TORSDOF 4
ENDMDL
MODEL 3
REMARK VINA RESULT: -9.065871850      0.141      1.364
REMARK  4 active torsions:
REMARK  status: ('A' for Active; 'I' for Inactive)
REMARK    1  A    between atoms: N1_6  and  C5_7 
REMARK    2  A    between atoms: N3_19  and  C14_20 
REMARK    3  A    between atoms: C14_20  and  O3_21 
REMARK    4  A    between atoms: C14_20  and  C15_23 
ROOT
HETATM    1  O1  UNL     1      32.434  72.762  82.257  1.00  0.00    -0.271 OA
HETATM    2  C1  UNL     1      31.302  73.302  82.297  1.00  0.00     0.245 C 
HETATM    3  C2  UNL     1      30.884  74.380  83.186  1.00  0.00     0.212 C 
HETATM    4  C3  UNL     1      29.396  74.490  82.932  1.00  0.00     0.136 C 
HETATM    5  C4  UNL     1      29.295  74.050  81.472  1.00  0.00     0.154 C 
HETATM    6  N1  UNL     1      30.214  72.920  81.441  1.00  0.00    -0.344 N 
HETATM    7  N2  UNL     1      28.850  73.452  83.780  1.00  0.00    -0.334 N 
ATOM      8  H2  UNL     1      27.874  73.156  83.806  1.00  0.00     0.164 HD
HETATM    9  C13 UNL     1      29.920  72.904  84.587  1.00  0.00     0.325 C 
HETATM   10  O2  UNL     1      29.910  71.761  85.097  1.00  0.00    -0.247 OA
HETATM   11  N3  UNL     1      30.892  73.919  84.631  1.00  0.00    -0.267 N 
ENDROOT
BRANCH  11  12
HETATM   12  C14 UNL     1      31.730  74.428  85.602  1.00  0.00     0.131 C 
BRANCH  12  13
HETATM   13  O3  UNL     1      31.293  75.572  86.125  1.00  0.00    -0.348 OA
ATOM     14  H3  UNL     1      30.619  75.451  86.783  1.00  0.00     0.219 HD
ENDBRANCH  12  13
BRANCH  12  15
HETATM   15  C15 UNL     1      32.976  73.990  86.185  1.00  0.00     0.026 C 
HETATM   16  C16 UNL     1      34.097  73.830  85.220  1.00  0.00     0.022 C 
HETATM   17  C17 UNL     1      35.413  73.437  85.907  1.00  0.00    -0.013 C 
HETATM   18  C18 UNL     1      35.747  74.457  86.930  1.00  0.00     0.009 C 
HETATM   19  C22 UNL     1      35.223  72.087  86.575  1.00  0.00     0.009 C 
HETATM   20  C19 UNL     1      34.633  74.516  87.960  1.00  0.00    -0.013 C 
HETATM   21  C20 UNL     1      34.369  73.199  88.611  1.00  0.00     0.009 C 
HETATM   22  C24 UNL     1      33.390  74.984  87.282  1.00  0.00     0.022 C 
HETATM   23  C21 UNL     1      34.065  72.183  87.513  1.00  0.00    -0.013 C 
HETATM   24  C23 UNL     1      32.780  72.636  86.859  1.00  0.00     0.022 C 
ENDBRANCH  12  15
ENDBRANCH  11  12
BRANCH   6  25
HETATM   25  C5  UNL     1      30.082  71.674  80.712  1.00  0.00     0.087 C 
HETATM   26  C6  UNL     1      29.186  71.816  79.508  1.00  0.00     0.025 C 
HETATM   27  C7  UNL     1      29.900  71.638  78.206  1.00  0.00     0.002 C 
HETATM   28  C8  UNL     1      30.271  70.235  77.881  1.00  0.00     0.000 C 
HETATM   29  C9  UNL     1      29.478  69.189  78.590  1.00  0.00     0.000 C 
HETATM   30  C10 UNL     1      30.027  68.908  79.976  1.00  0.00     0.000 C 
HETATM   31  C11 UNL     1      29.073  69.392  81.022  1.00  0.00     0.002 C 
HETATM   32  C12 UNL     1      29.522  70.654  81.679  1.00  0.00     0.025 C 
ENDBRANCH   6  25
TORSDOF 4
ENDMDL
MODEL 4
REMARK VINA RESULT: -8.873144331      1.739      2.403
REMARK  4 active torsions:
REMARK  status: ('A' for Active; 'I' for Inactive)
REMARK    1  A    between atoms: N1_6  and  C5_7 
REMARK    2  A    between atoms: N3_19  and  C14_20 
REMARK    3  A    between atoms: C14_20  and  O3_21 
REMARK    4  A    between atoms: C14_20  and  C15_23 
ROOT
HETATM    1  O1  UNL     1      31.953  73.506  81.031  1.00  0.00    -0.271 OA
HETATM    2  C1  UNL     1      30.841  73.546  81.610  1.00  0.00     0.245 C 
HETATM    3  C2  UNL     1      30.469  74.421  82.716  1.00  0.00     0.212 C 
HETATM    4  C3  UNL     1      29.106  73.907  83.129  1.00  0.00     0.136 C 
HETATM    5  C4  UNL     1      28.561  73.371  81.805  1.00  0.00     0.154 C 
HETATM    6  N1  UNL     1      29.733  72.706  81.253  1.00  0.00    -0.344 N 
HETATM    7  N2  UNL     1      29.433  72.795  83.995  1.00  0.00    -0.334 N 
ATOM      8  H2  UNL     1      28.766  72.134  84.393  1.00  0.00     0.164 HD
HETATM    9  C13 UNL     1      30.866  72.776  84.201  1.00  0.00     0.325 C 
HETATM   10  O2  UNL     1      31.523  71.762  84.525  1.00  0.00    -0.247 OA
HETATM   11  N3  UNL     1      31.281  74.097  83.955  1.00  0.00    -0.267 N 
ENDROOT
BRANCH  11  12
HETATM   12  C14 UNL     1      32.186  74.961  84.536  1.00  0.00     0.131 C 
BRANCH  12  13
HETATM   13  O3  UNL     1      31.669  75.666  85.541  1.00  0.00    -0.348 OA
ATOM     14  H3  UNL     1      32.297  76.248  85.953  1.00  0.00     0.219 HD
ENDBRANCH  12  13
BRANCH  12  15
HETATM   15  C15 UNL     1      33.577  75.267  84.300  1.00  0.00     0.026 C 
HETATM   16  C16 UNL     1      33.824  76.298  83.256  1.00  0.00     0.022 C 
HETATM   17  C17 UNL     1      35.314  76.637  83.104  1.00  0.00    -0.013 C 
HETATM   18  C18 UNL     1      35.844  77.085  84.415  1.00  0.00     0.009 C 
HETATM   19  C22 UNL     1      36.049  75.385  82.658  1.00  0.00     0.009 C 
HETATM   20  C19 UNL     1      35.676  75.968  85.430  1.00  0.00    -0.013 C 
HETATM   21  C20 UNL     1      36.336  74.697  85.014  1.00  0.00     0.009 C 
HETATM   22  C24 UNL     1      34.219  75.722  85.622  1.00  0.00     0.022 C 
HETATM   23  C21 UNL     1      35.781  74.301  83.648  1.00  0.00    -0.013 C 
HETATM   24  C23 UNL     1      34.313  74.008  83.857  1.00  0.00     0.022 C 
ENDBRANCH  12  15
ENDBRANCH  11  12
BRANCH   6  25
HETATM   25  C5  UNL     1      29.793  71.467  80.502  1.00  0.00     0.087 C 
HETATM   26  C6  UNL     1      29.187  71.608  79.128  1.00  0.00     0.025 C 
HETATM   27  C7  UNL     1      30.179  71.461  78.019  1.00  0.00     0.002 C 
HETATM   28  C8  UNL     1      30.642  70.069  77.773  1.00  0.00     0.000 C 
HETATM   29  C9  UNL     1      29.731  69.000  78.277  1.00  0.00     0.000 C 
HETATM   30  C10 UNL     1      29.960  68.710  79.748  1.00  0.00     0.000 C 
HETATM   31  C11 UNL     1      28.786  69.164  80.557  1.00  0.00     0.002 C 
HETATM   32  C12 UNL     1      29.051  70.425  81.309  1.00  0.00     0.025 C 
ENDBRANCH   6  25
TORSDOF 4
ENDMDL
MODEL 5
REMARK VINA RESULT: -8.789932428      1.113      1.548
REMARK  4 active torsions:
REMARK  status: ('A' for Active; 'I' for Inactive)
REMARK    1  A    between atoms: N1_6  and  C5_7 
REMARK    2  A    between atoms: N3_19  and  C14_20 
REMARK    3  A    between atoms: C14_20  and  O3_21 
REMARK    4  A    between atoms: C14_20  and  C15_23 
ROOT
HETATM    1  O1  UNL     1      32.041  73.560  80.969  1.00  0.00    -0.271 OA
HETATM    2  C1  UNL     1      30.948  73.611  81.584  1.00  0.00     0.245 C 
HETATM    3  C2  UNL     1      30.621  74.491  82.701  1.00  0.00     0.212 C 
HETATM    4  C3  UNL     1      29.268  73.989  83.159  1.00  0.00     0.136 C 
HETATM    5  C4  UNL     1      28.675  73.456  81.855  1.00  0.00     0.154 C 
HETATM    6  N1  UNL     1      29.823  72.779  81.265  1.00  0.00    -0.344 N 
HETATM    7  N2  UNL     1      29.613  72.875  84.016  1.00  0.00    -0.334 N 
ATOM      8  H2  UNL     1      28.954  72.220  84.436  1.00  0.00     0.164 HD
HETATM    9  C13 UNL     1      31.052  72.844  84.175  1.00  0.00     0.325 C 
HETATM   10  O2  UNL     1      31.710  71.824  84.479  1.00  0.00    -0.247 OA
HETATM   11  N3  UNL     1      31.470  74.161  83.913  1.00  0.00    -0.267 N 
ENDROOT
BRANCH  11  12
HETATM   12  C14 UNL     1      32.401  75.018  84.463  1.00  0.00     0.131 C 
BRANCH  12  13
HETATM   13  O3  UNL     1      32.313  76.261  83.993  1.00  0.00    -0.348 OA
ATOM     14  H3  UNL     1      33.039  76.814  84.257  1.00  0.00     0.219 HD
ENDBRANCH  12  13
BRANCH  12  15
HETATM   15  C15 UNL     1      33.449  74.867  85.445  1.00  0.00     0.026 C 
HETATM   16  C16 UNL     1      33.001  74.345  86.764  1.00  0.00     0.022 C 
HETATM   17  C17 UNL     1      34.167  74.134  87.740  1.00  0.00    -0.013 C 
HETATM   18  C18 UNL     1      35.153  73.214  87.123  1.00  0.00     0.009 C 
HETATM   19  C22 UNL     1      34.821  75.478  88.008  1.00  0.00     0.009 C 
HETATM   20  C19 UNL     1      35.672  73.829  85.835  1.00  0.00    -0.013 C 
HETATM   21  C20 UNL     1      36.278  75.178  86.034  1.00  0.00     0.009 C 
HETATM   22  C24 UNL     1      34.536  73.940  84.876  1.00  0.00     0.022 C 
HETATM   23  C21 UNL     1      35.235  76.071  86.701  1.00  0.00    -0.013 C 
HETATM   24  C23 UNL     1      34.106  76.218  85.707  1.00  0.00     0.022 C 
ENDBRANCH  12  15
ENDBRANCH  11  12
BRANCH   6  25
HETATM   25  C5  UNL     1      29.847  71.539  80.515  1.00  0.00     0.087 C 
HETATM   26  C6  UNL     1      29.151  71.670  79.183  1.00  0.00     0.025 C 
HETATM   27  C7  UNL     1      30.069  71.530  78.012  1.00  0.00     0.002 C 
HETATM   28  C8  UNL     1      30.531  70.143  77.739  1.00  0.00     0.000 C 
HETATM   29  C9  UNL     1      29.667  69.065  78.304  1.00  0.00     0.000 C 
HETATM   30  C10 UNL     1      29.995  68.783  79.757  1.00  0.00     0.000 C 
HETATM   31  C11 UNL     1      28.872  69.226  80.641  1.00  0.00     0.002 C 
HETATM   32  C12 UNL     1      29.171  70.491  81.371  1.00  0.00     0.025 C 
ENDBRANCH   6  25
TORSDOF 4
ENDMDL
