MODEL 1
REMARK VINA RESULT: -8.946999745      0.000      0.000
REMARK  5 active torsions:
REMARK  status: ('A' for Active; 'I' for Inactive)
REMARK       I    between atoms: C1_2  and  N1_3 
REMARK       I    between atoms: C1_2  and  N5_25 
REMARK    1  A    between atoms: N1_3  and  C2_5 
REMARK    2  A    between atoms: N2_8  and  C5_9 
REMARK    3  A    between atoms: N3_12  and  C8_13 
REMARK    4  A    between atoms: C8_13  and  O2_14 
REMARK    5  A    between atoms: C8_13  and  N4_16 
ROOT
HETATM    1  C2  UNL     1      28.747  75.298  83.493  1.00  0.00     0.089 C 
HETATM    2  C3  UNL     1      29.383  75.619  84.828  1.00  0.00     0.044 C 
HETATM    3  C4  UNL     1      28.340  76.443  85.590  1.00  0.00     0.119 C 
HETATM    4  N2  UNL     1      27.284  76.896  84.759  1.00  0.00    -0.406 N 
HETATM    5  C15 UNL     1      27.700  77.555  83.553  1.00  0.00     0.119 C 
HETATM    6  C16 UNL     1      28.617  76.628  82.766  1.00  0.00     0.044 C 
ENDROOT
BRANCH   4   7
HETATM    7  C5  UNL     1      26.233  77.451  85.489  1.00  0.00     0.098 C 
HETATM    8  C6  UNL     1      26.504  77.559  86.965  1.00  0.00     0.046 C 
HETATM    9  C7  UNL     1      25.147  77.833  87.557  1.00  0.00     0.128 C 
HETATM   10  N3  UNL     1      24.202  77.391  86.581  1.00  0.00    -0.345 N 
HETATM   11  C14 UNL     1      24.942  76.686  85.494  1.00  0.00     0.151 C 
BRANCH  10  12
HETATM   12  C8  UNL     1      22.808  77.557  86.574  1.00  0.00     0.217 C 
BRANCH  12  13
HETATM   13  O2  UNL     1      22.220  77.118  87.665  1.00  0.00    -0.333 OA
ATOM     14  H2  UNL     1      21.981  77.807  88.272  1.00  0.00     0.220 HD
ENDBRANCH  12  13
BRANCH  12  15
HETATM   15  N4  UNL     1      21.988  78.112  85.583  1.00  0.00    -0.348 N 
HETATM   16  C9  UNL     1      20.636  77.518  85.351  1.00  0.00     0.126 C 
HETATM   17  C10 UNL     1      20.386  77.665  83.866  1.00  0.00     0.020 C 
HETATM   18  C11 UNL     1      21.658  77.527  83.060  1.00  0.00     0.003 C 
HETATM   19  C12 UNL     1      22.658  78.624  83.363  1.00  0.00     0.020 C 
HETATM   20  C13 UNL     1      22.284  79.209  84.723  1.00  0.00     0.126 C 
ENDBRANCH  12  15
ENDBRANCH  10  12
ENDBRANCH   4   7
BRANCH   1  21
HETATM   21  N1  UNL     1      29.431  74.313  82.726  1.00  0.00    -0.338 N 
HETATM   22  C1  UNL     1      29.381  72.943  83.115  1.00  0.00     0.318 C 
HETATM   23  O1  UNL     1      28.711  72.620  84.164  1.00  0.00    -0.247 OA
HETATM   24  N5  UNL     1      30.018  71.884  82.432  1.00  0.00    -0.334 N 
HETATM   25  C17 UNL     1      30.769  72.301  81.258  1.00  0.00     0.127 C 
HETATM   26  C23 UNL     1      29.766  70.605  83.071  1.00  0.00     0.127 C 
HETATM   27  C18 UNL     1      29.839  72.600  80.117  1.00  0.00     0.020 C 
HETATM   28  C19 UNL     1      29.894  71.493  79.105  1.00  0.00     0.002 C 
HETATM   29  C20 UNL     1      29.855  70.121  79.716  1.00  0.00     0.000 C 
HETATM   30  C21 UNL     1      28.842  70.002  80.817  1.00  0.00     0.002 C 
HETATM   31  C22 UNL     1      29.496  69.503  82.100  1.00  0.00     0.020 C 
ATOM     32  H1  UNL     1      29.957  74.588  81.898  1.00  0.00     0.164 HD
ENDBRANCH   1  21
TORSDOF 5
ENDMDL
MODEL 2
REMARK VINA RESULT: -8.127513101      2.126      9.576
REMARK  5 active torsions:
REMARK  status: ('A' for Active; 'I' for Inactive)
REMARK       I    between atoms: C1_2  and  N1_3 
REMARK       I    between atoms: C1_2  and  N5_25 
REMARK    1  A    between atoms: N1_3  and  C2_5 
REMARK    2  A    between atoms: N2_8  and  C5_9 
REMARK    3  A    between atoms: N3_12  and  C8_13 
REMARK    4  A    between atoms: C8_13  and  O2_14 
REMARK    5  A    between atoms: C8_13  and  N4_16 
ROOT
HETATM    1  C2  UNL     1      27.960  77.354  84.412  1.00  0.00     0.089 C 
HETATM    2  C3  UNL     1      28.193  77.663  82.949  1.00  0.00     0.044 C 
HETATM    3  C4  UNL     1      29.095  76.539  82.432  1.00  0.00     0.119 C 
HETATM    4  N2  UNL     1      29.662  75.765  83.477  1.00  0.00    -0.406 N 
HETATM    5  C15 UNL     1      30.303  76.523  84.514  1.00  0.00     0.119 C 
HETATM    6  C16 UNL     1      29.311  77.523  85.091  1.00  0.00     0.044 C 
ENDROOT
BRANCH   4   7
HETATM    7  C5  UNL     1      30.299  74.618  83.004  1.00  0.00     0.098 C 
HETATM    8  C6  UNL     1      31.448  74.895  82.074  1.00  0.00     0.046 C 
HETATM    9  C7  UNL     1      31.725  73.557  81.440  1.00  0.00     0.128 C 
HETATM   10  N3  UNL     1      30.529  72.794  81.609  1.00  0.00    -0.345 N 
HETATM   11  C14 UNL     1      29.472  73.691  82.161  1.00  0.00     0.151 C 
BRANCH  10  12
HETATM   12  C8  UNL     1      30.312  71.435  81.333  1.00  0.00     0.217 C 
BRANCH  12  13
HETATM   13  O2  UNL     1      30.862  70.625  82.211  1.00  0.00    -0.333 OA
ATOM     14  H2  UNL     1      30.936  69.729  81.906  1.00  0.00     0.220 HD
ENDBRANCH  12  13
BRANCH  12  15
HETATM   15  N4  UNL     1      29.608  70.849  80.274  1.00  0.00    -0.348 N 
HETATM   16  C9  UNL     1      29.162  69.428  80.404  1.00  0.00     0.126 C 
HETATM   17  C10 UNL     1      29.247  68.855  79.006  1.00  0.00     0.020 C 
HETATM   18  C11 UNL     1      30.396  69.443  78.220  1.00  0.00     0.003 C 
HETATM   19  C12 UNL     1      30.237  70.931  77.986  1.00  0.00     0.020 C 
HETATM   20  C13 UNL     1      29.250  71.447  79.030  1.00  0.00     0.126 C 
ENDBRANCH  12  15
ENDBRANCH  10  12
ENDBRANCH   4   7
BRANCH   1  21
HETATM   21  N1  UNL     1      26.930  78.119  85.029  1.00  0.00    -0.338 N 
HETATM   22  C1  UNL     1      25.715  77.491  85.429  1.00  0.00     0.318 C 
HETATM   23  O1  UNL     1      25.572  76.230  85.222  1.00  0.00    -0.247 OA
HETATM   24  N5  UNL     1      24.630  78.150  86.048  1.00  0.00    -0.334 N 
HETATM   25  C17 UNL     1      24.838  79.575  86.252  1.00  0.00     0.127 C 
HETATM   26  C23 UNL     1      23.545  77.232  86.343  1.00  0.00     0.127 C 
HETATM   27  C18 UNL     1      25.763  79.811  87.413  1.00  0.00     0.020 C 
HETATM   28  C19 UNL     1      24.983  80.292  88.601  1.00  0.00     0.002 C 
HETATM   29  C20 UNL     1      23.720  79.517  88.843  1.00  0.00     0.000 C 
HETATM   30  C21 UNL     1      23.907  78.035  88.694  1.00  0.00     0.002 C 
HETATM   31  C22 UNL     1      22.922  77.466  87.680  1.00  0.00     0.020 C 
ATOM     32  H1  UNL     1      27.062  79.118  85.184  1.00  0.00     0.164 HD
ENDBRANCH   1  21
TORSDOF 5
ENDMDL
MODEL 3
REMARK VINA RESULT: -8.127270553      1.839      9.477
REMARK  5 active torsions:
REMARK  status: ('A' for Active; 'I' for Inactive)
REMARK       I    between atoms: C1_2  and  N1_3 
REMARK       I    between atoms: C1_2  and  N5_25 
REMARK    1  A    between atoms: N1_3  and  C2_5 
REMARK    2  A    between atoms: N2_8  and  C5_9 
REMARK    3  A    between atoms: N3_12  and  C8_13 
REMARK    4  A    between atoms: C8_13  and  O2_14 
REMARK    5  A    between atoms: C8_13  and  N4_16 
ROOT
HETATM    1  C2  UNL     1      26.539  76.813  84.938  1.00  0.00     0.089 C 
HETATM    2  C3  UNL     1      27.731  77.718  84.715  1.00  0.00     0.044 C 
HETATM    3  C4  UNL     1      28.825  76.816  84.136  1.00  0.00     0.119 C 
HETATM    4  N2  UNL     1      28.525  75.436  84.263  1.00  0.00    -0.406 N 
HETATM    5  C15 UNL     1      28.138  75.017  85.580  1.00  0.00     0.119 C 
HETATM    6  C16 UNL     1      26.950  75.851  86.042  1.00  0.00     0.044 C 
ENDROOT
BRANCH   4   7
HETATM    7  C5  UNL     1      29.408  74.631  83.544  1.00  0.00     0.098 C 
HETATM    8  C6  UNL     1      30.221  75.375  82.521  1.00  0.00     0.046 C 
HETATM    9  C7  UNL     1      30.804  74.283  81.664  1.00  0.00     0.128 C 
HETATM   10  N3  UNL     1      29.974  73.140  81.877  1.00  0.00    -0.345 N 
HETATM   11  C14 UNL     1      28.796  73.558  82.692  1.00  0.00     0.151 C 
BRANCH  10  12
HETATM   12  C8  UNL     1      30.169  71.823  81.433  1.00  0.00     0.217 C 
BRANCH  12  13
HETATM   13  O2  UNL     1      31.104  71.177  82.096  1.00  0.00    -0.333 OA
ATOM     14  H2  UNL     1      31.803  70.848  81.543  1.00  0.00     0.220 HD
ENDBRANCH  12  13
BRANCH  12  15
HETATM   15  N4  UNL     1      29.517  71.128  80.406  1.00  0.00    -0.348 N 
HETATM   16  C9  UNL     1      29.067  69.726  80.657  1.00  0.00     0.126 C 
HETATM   17  C10 UNL     1      29.219  69.015  79.330  1.00  0.00     0.020 C 
HETATM   18  C11 UNL     1      30.404  69.527  78.545  1.00  0.00     0.003 C 
HETATM   19  C12 UNL     1      30.256  70.984  78.154  1.00  0.00     0.020 C 
HETATM   20  C13 UNL     1      29.220  71.597  79.093  1.00  0.00     0.126 C 
ENDBRANCH  12  15
ENDBRANCH  10  12
ENDBRANCH   4   7
BRANCH   1  21
HETATM   21  N1  UNL     1      25.318  77.490  85.219  1.00  0.00    -0.338 N 
HETATM   22  C1  UNL     1      24.585  78.108  84.165  1.00  0.00     0.318 C 
HETATM   23  O1  UNL     1      25.046  78.040  82.967  1.00  0.00    -0.247 OA
HETATM   24  N5  UNL     1      23.366  78.803  84.327  1.00  0.00    -0.334 N 
HETATM   25  C17 UNL     1      22.892  78.858  85.702  1.00  0.00     0.127 C 
HETATM   26  C23 UNL     1      22.864  79.306  83.062  1.00  0.00     0.127 C 
HETATM   27  C18 UNL     1      22.299  77.539  86.107  1.00  0.00     0.020 C 
HETATM   28  C19 UNL     1      20.802  77.638  86.144  1.00  0.00     0.002 C 
HETATM   29  C20 UNL     1      20.219  78.346  84.954  1.00  0.00     0.000 C 
HETATM   30  C21 UNL     1      20.851  77.929  83.659  1.00  0.00     0.002 C 
HETATM   31  C22 UNL     1      21.388  79.140  82.906  1.00  0.00     0.020 C 
ATOM     32  H1  UNL     1      24.969  77.533  86.176  1.00  0.00     0.164 HD
ENDBRANCH   1  21
TORSDOF 5
ENDMDL
MODEL 4
REMARK VINA RESULT: -8.047593757      3.541      9.754
REMARK  5 active torsions:
REMARK  status: ('A' for Active; 'I' for Inactive)
REMARK       I    between atoms: C1_2  and  N1_3 
REMARK       I    between atoms: C1_2  and  N5_25 
REMARK    1  A    between atoms: N1_3  and  C2_5 
REMARK    2  A    between atoms: N2_8  and  C5_9 
REMARK    3  A    between atoms: N3_12  and  C8_13 
REMARK    4  A    between atoms: C8_13  and  O2_14 
REMARK    5  A    between atoms: C8_13  and  N4_16 
ROOT
HETATM    1  C2  UNL     1      27.578  75.379  86.515  1.00  0.00     0.089 C 
HETATM    2  C3  UNL     1      26.902  75.401  85.161  1.00  0.00     0.044 C 
HETATM    3  C4  UNL     1      27.839  74.636  84.223  1.00  0.00     0.119 C 
HETATM    4  N2  UNL     1      29.123  74.419  84.786  1.00  0.00    -0.406 N 
HETATM    5  C15 UNL     1      29.755  75.588  85.326  1.00  0.00     0.119 C 
HETATM    6  C16 UNL     1      28.836  76.222  86.362  1.00  0.00     0.044 C 
ENDROOT
BRANCH   4   7
HETATM    7  C5  UNL     1      29.894  73.539  84.027  1.00  0.00     0.098 C 
HETATM    8  C6  UNL     1      31.018  74.200  83.277  1.00  0.00     0.046 C 
HETATM    9  C7  UNL     1      31.456  73.149  82.291  1.00  0.00     0.128 C 
HETATM   10  N3  UNL     1      30.354  72.248  82.170  1.00  0.00    -0.345 N 
HETATM   11  C14 UNL     1      29.193  72.823  82.910  1.00  0.00     0.151 C 
BRANCH  10  12
HETATM   12  C8  UNL     1      30.299  71.019  81.496  1.00  0.00     0.217 C 
BRANCH  12  13
HETATM   13  O2  UNL     1      31.046  70.084  82.042  1.00  0.00    -0.333 OA
ATOM     14  H2  UNL     1      31.137  69.307  81.505  1.00  0.00     0.220 HD
ENDBRANCH  12  13
BRANCH  12  15
HETATM   15  N4  UNL     1      29.575  70.669  80.349  1.00  0.00    -0.348 N 
HETATM   16  C9  UNL     1      29.121  69.255  80.186  1.00  0.00     0.126 C 
HETATM   17  C10 UNL     1      29.180  68.986  78.698  1.00  0.00     0.020 C 
HETATM   18  C11 UNL     1      30.321  69.720  78.034  1.00  0.00     0.003 C 
HETATM   19  C12 UNL     1      30.170  71.226  78.118  1.00  0.00     0.020 C 
HETATM   20  C13 UNL     1      29.203  71.516  79.264  1.00  0.00     0.126 C 
ENDBRANCH  12  15
ENDBRANCH  10  12
ENDBRANCH   4   7
BRANCH   1  21
HETATM   21  N1  UNL     1      26.759  75.799  87.600  1.00  0.00    -0.338 N 
HETATM   22  C1  UNL     1      26.669  75.001  88.777  1.00  0.00     0.318 C 
HETATM   23  O1  UNL     1      27.337  73.904  88.835  1.00  0.00    -0.247 OA
HETATM   24  N5  UNL     1      25.890  75.318  89.912  1.00  0.00    -0.334 N 
HETATM   25  C17 UNL     1      25.147  76.563  89.793  1.00  0.00     0.127 C 
HETATM   26  C23 UNL     1      26.020  74.311  90.949  1.00  0.00     0.127 C 
HETATM   27  C18 UNL     1      26.061  77.741  89.977  1.00  0.00     0.020 C 
HETATM   28  C19 UNL     1      25.843  78.355  91.329  1.00  0.00     0.002 C 
HETATM   29  C20 UNL     1      25.750  77.346  92.437  1.00  0.00     0.000 C 
HETATM   30  C21 UNL     1      26.784  76.264  92.329  1.00  0.00     0.002 C 
HETATM   31  C22 UNL     1      26.127  74.889  92.322  1.00  0.00     0.020 C 
ATOM     32  H1  UNL     1      26.236  76.672  87.535  1.00  0.00     0.164 HD
ENDBRANCH   1  21
TORSDOF 5
ENDMDL
MODEL 5
REMARK VINA RESULT: -8.023161046      4.721      9.662
REMARK  5 active torsions:
REMARK  status: ('A' for Active; 'I' for Inactive)
REMARK       I    between atoms: C1_2  and  N1_3 
REMARK       I    between atoms: C1_2  and  N5_25 
REMARK    1  A    between atoms: N1_3  and  C2_5 
REMARK    2  A    between atoms: N2_8  and  C5_9 
REMARK    3  A    between atoms: N3_12  and  C8_13 
REMARK    4  A    between atoms: C8_13  and  O2_14 
REMARK    5  A    between atoms: C8_13  and  N4_16 
ROOT
HETATM    1  C2  UNL     1      30.328  73.912  87.227  1.00  0.00     0.089 C 
HETATM    2  C3  UNL     1      31.181  75.037  86.681  1.00  0.00     0.044 C 
HETATM    3  C4  UNL     1      31.397  74.705  85.202  1.00  0.00     0.119 C 
HETATM    4  N2  UNL     1      31.025  73.375  84.877  1.00  0.00    -0.406 N 
HETATM    5  C15 UNL     1      31.577  72.363  85.732  1.00  0.00     0.119 C 
HETATM    6  C16 UNL     1      31.203  72.668  87.177  1.00  0.00     0.044 C 
ENDROOT
BRANCH   4   7
HETATM    7  C5  UNL     1      31.014  73.147  83.501  1.00  0.00     0.098 C 
HETATM    8  C6  UNL     1      31.236  74.383  82.674  1.00  0.00     0.046 C 
HETATM    9  C7  UNL     1      30.833  73.961  81.286  1.00  0.00     0.128 C 
HETATM   10  N3  UNL     1      29.995  72.816  81.457  1.00  0.00    -0.345 N 
HETATM   11  C14 UNL     1      29.727  72.643  82.915  1.00  0.00     0.151 C 
BRANCH  10  12
HETATM   12  C8  UNL     1      29.480  71.954  80.477  1.00  0.00     0.217 C 
BRANCH  12  13
HETATM   13  O2  UNL     1      28.215  72.176  80.193  1.00  0.00    -0.333 OA
ATOM     14  H2  UNL     1      28.001  72.040  79.278  1.00  0.00     0.220 HD
ENDBRANCH  12  13
BRANCH  12  15
HETATM   15  N4  UNL     1      30.118  70.917  79.786  1.00  0.00    -0.348 N 
HETATM   16  C9  UNL     1      30.489  71.126  78.354  1.00  0.00     0.126 C 
HETATM   17  C10 UNL     1      30.332  69.771  77.699  1.00  0.00     0.020 C 
HETATM   18  C11 UNL     1      29.194  68.980  78.300  1.00  0.00     0.003 C 
HETATM   19  C12 UNL     1      29.426  68.645  79.760  1.00  0.00     0.020 C 
HETATM   20  C13 UNL     1      30.471  69.628  80.284  1.00  0.00     0.126 C 
ENDBRANCH  12  15
ENDBRANCH  10  12
ENDBRANCH   4   7
BRANCH   1  21
HETATM   21  N1  UNL     1      29.779  74.151  88.518  1.00  0.00    -0.338 N 
HETATM   22  C1  UNL     1      28.478  74.716  88.648  1.00  0.00     0.318 C 
HETATM   23  O1  UNL     1      27.817  75.003  87.583  1.00  0.00    -0.247 OA
HETATM   24  N5  UNL     1      27.835  74.994  89.875  1.00  0.00    -0.334 N 
HETATM   25  C17 UNL     1      28.626  74.660  91.049  1.00  0.00     0.127 C 
HETATM   26  C23 UNL     1      26.512  75.555  89.671  1.00  0.00     0.127 C 
HETATM   27  C18 UNL     1      28.624  73.176  91.280  1.00  0.00     0.020 C 
HETATM   28  C19 UNL     1      27.731  72.836  92.437  1.00  0.00     0.002 C 
HETATM   29  C20 UNL     1      26.412  73.554  92.407  1.00  0.00     0.000 C 
HETATM   30  C21 UNL     1      25.793  73.578  91.040  1.00  0.00     0.002 C 
HETATM   31  C22 UNL     1      25.488  75.008  90.611  1.00  0.00     0.020 C 
ATOM     32  H1  UNL     1      30.318  73.917  89.352  1.00  0.00     0.164 HD
ENDBRANCH   1  21
TORSDOF 5
ENDMDL
