MODEL 1
REMARK VINA RESULT: -8.097758635      0.000      0.000
REMARK  3 active torsions:
REMARK  status: ('A' for Active; 'I' for Inactive)
REMARK       I    between atoms: C2_2  and  N1_4 
REMARK    1  A    between atoms: N1_4  and  C4_6 
REMARK    2  A    between atoms: C17_19  and  O2_20 
REMARK    3  A    between atoms: C18_22  and  N2_23 
REMARK       I    between atoms: N2_23  and  C20_25 
ROOT
HETATM    1  C4  UNL     1      29.597  71.118  80.434  1.00  0.00     0.087 C 
HETATM    2  C5  UNL     1      30.345  70.549  81.632  1.00  0.00     0.026 C 
HETATM    3  C6  UNL     1      29.492  71.042  82.810  1.00  0.00     0.007 C 
HETATM    4  C7  UNL     1      29.929  72.507  83.016  1.00  0.00    -0.006 C 
HETATM    5  C8  UNL     1      30.067  73.248  81.755  1.00  0.00    -0.008 C 
HETATM    6  C9  UNL     1      31.463  73.891  81.598  1.00  0.00     0.005 C 
HETATM    7  C10 UNL     1      31.601  74.647  82.932  1.00  0.00     0.006 C 
HETATM    8  C11 UNL     1      32.079  73.568  83.879  1.00  0.00    -0.005 C 
HETATM    9  C12 UNL     1      31.076  72.470  83.952  1.00  0.00    -0.006 C 
HETATM   10  C13 UNL     1      30.523  72.391  85.388  1.00  0.00     0.006 C 
HETATM   11  C14 UNL     1      31.579  72.071  86.384  1.00  0.00     0.012 C 
HETATM   12  C15 UNL     1      32.804  72.856  86.085  1.00  0.00    -0.012 C 
HETATM   13  C16 UNL     1      33.888  72.016  85.507  1.00  0.00     0.018 C 
HETATM   14  C17 UNL     1      33.318  73.609  87.324  1.00  0.00     0.150 C 
HETATM   15  C18 UNL     1      34.283  74.558  86.611  1.00  0.00     0.120 C 
HETATM   16  C22 UNL     1      33.548  75.013  85.378  1.00  0.00     0.012 C 
HETATM   17  C23 UNL     1      34.502  75.237  84.277  1.00  0.00     0.012 C 
HETATM   18  C24 UNL     1      32.456  74.069  85.210  1.00  0.00     0.006 C 
HETATM   19  C25 UNL     1      29.674  72.607  80.490  1.00  0.00     0.030 C 
ENDROOT
BRANCH   1  20
HETATM   20  N1  UNL     1      30.057  70.560  79.199  1.00  0.00    -0.352 N 
HETATM   21  C2  UNL     1      29.873  69.179  78.950  1.00  0.00     0.215 C 
HETATM   22  C1  UNL     1      29.219  68.264  79.912  1.00  0.00     0.117 C 
HETATM   23  O1  UNL     1      30.284  68.709  77.862  1.00  0.00    -0.274 OA
HETATM   24  C3  UNL     1      30.716  71.401  78.190  1.00  0.00     0.153 C 
ENDBRANCH   1  20
BRANCH  14  25
HETATM   25  O2  UNL     1      32.249  74.271  87.888  1.00  0.00    -0.393 OA
ATOM     26  H2  UNL     1      31.642  74.490  87.190  1.00  0.00     0.210 HD
ENDBRANCH  14  25
BRANCH  15  27
HETATM   27  N2  UNL     1      34.759  75.593  87.473  1.00  0.00    -0.349 N 
HETATM   28  C19 UNL     1      34.258  76.935  87.434  1.00  0.00     0.153 C 
HETATM   29  C20 UNL     1      35.773  75.271  88.418  1.00  0.00     0.215 C 
HETATM   30  C21 UNL     1      36.344  73.887  88.542  1.00  0.00     0.117 C 
HETATM   31  O3  UNL     1      36.200  76.196  89.176  1.00  0.00    -0.274 OA
ENDBRANCH  15  27
TORSDOF 3
ENDMDL
MODEL 2
REMARK VINA RESULT: -7.797981753      1.074      1.173
REMARK  3 active torsions:
REMARK  status: ('A' for Active; 'I' for Inactive)
REMARK       I    between atoms: C2_2  and  N1_4 
REMARK    1  A    between atoms: N1_4  and  C4_6 
REMARK    2  A    between atoms: C17_19  and  O2_20 
REMARK    3  A    between atoms: C18_22  and  N2_23 
REMARK       I    between atoms: N2_23  and  C20_25 
ROOT
HETATM    1  C4  UNL     1      29.457  70.968  80.612  1.00  0.00     0.087 C 
HETATM    2  C5  UNL     1      30.519  70.678  81.663  1.00  0.00     0.026 C 
HETATM    3  C6  UNL     1      29.718  70.776  82.969  1.00  0.00     0.007 C 
HETATM    4  C7  UNL     1      29.612  72.291  83.245  1.00  0.00    -0.006 C 
HETATM    5  C8  UNL     1      29.294  73.072  82.043  1.00  0.00    -0.008 C 
HETATM    6  C9  UNL     1      30.322  74.195  81.779  1.00  0.00     0.005 C 
HETATM    7  C10 UNL     1      30.358  74.902  83.146  1.00  0.00     0.006 C 
HETATM    8  C11 UNL     1      31.323  74.047  83.938  1.00  0.00    -0.005 C 
HETATM    9  C12 UNL     1      30.812  72.652  84.035  1.00  0.00    -0.006 C 
HETATM   10  C13 UNL     1      30.530  72.324  85.514  1.00  0.00     0.006 C 
HETATM   11  C14 UNL     1      31.757  72.387  86.351  1.00  0.00     0.012 C 
HETATM   12  C15 UNL     1      32.557  73.583  85.978  1.00  0.00    -0.012 C 
HETATM   13  C16 UNL     1      33.781  73.228  85.211  1.00  0.00     0.018 C 
HETATM   14  C17 UNL     1      32.926  74.430  87.208  1.00  0.00     0.150 C 
HETATM   15  C18 UNL     1      33.368  75.694  86.469  1.00  0.00     0.120 C 
HETATM   16  C22 UNL     1      32.355  75.884  85.372  1.00  0.00     0.012 C 
HETATM   17  C23 UNL     1      32.998  76.485  84.190  1.00  0.00     0.012 C 
HETATM   18  C24 UNL     1      31.671  74.607  85.253  1.00  0.00     0.006 C 
HETATM   19  C25 UNL     1      28.991  72.375  80.782  1.00  0.00     0.030 C 
ENDROOT
BRANCH   1  20
HETATM   20  N1  UNL     1      29.914  70.664  79.290  1.00  0.00    -0.352 N 
HETATM   21  C2  UNL     1      29.999  69.313  78.878  1.00  0.00     0.215 C 
HETATM   22  C1  UNL     1      29.636  68.176  79.753  1.00  0.00     0.117 C 
HETATM   23  O1  UNL     1      30.402  69.068  77.715  1.00  0.00    -0.274 OA
HETATM   24  C3  UNL     1      30.293  71.736  78.359  1.00  0.00     0.153 C 
ENDBRANCH   1  20
BRANCH  14  25
HETATM   25  O2  UNL     1      31.778  74.625  87.945  1.00  0.00    -0.393 OA
ATOM     26  H2  UNL     1      32.034  74.762  88.850  1.00  0.00     0.210 HD
ENDBRANCH  14  25
BRANCH  15  27
HETATM   27  N2  UNL     1      33.548  76.802  87.353  1.00  0.00    -0.349 N 
HETATM   28  C19 UNL     1      32.482  77.685  87.727  1.00  0.00     0.153 C 
HETATM   29  C20 UNL     1      34.844  77.032  87.893  1.00  0.00     0.215 C 
HETATM   30  C21 UNL     1      36.015  76.147  87.572  1.00  0.00     0.117 C 
HETATM   31  O3  UNL     1      35.001  78.023  88.672  1.00  0.00    -0.274 OA
ENDBRANCH  15  27
TORSDOF 3
ENDMDL
MODEL 3
REMARK VINA RESULT: -7.191838341      4.823      6.177
REMARK  3 active torsions:
REMARK  status: ('A' for Active; 'I' for Inactive)
REMARK       I    between atoms: C2_2  and  N1_4 
REMARK    1  A    between atoms: N1_4  and  C4_6 
REMARK    2  A    between atoms: C17_19  and  O2_20 
REMARK    3  A    between atoms: C18_22  and  N2_23 
REMARK       I    between atoms: N2_23  and  C20_25 
ROOT
HETATM    1  C4  UNL     1      30.010  72.346  81.700  1.00  0.00     0.087 C 
HETATM    2  C5  UNL     1      28.755  73.187  81.884  1.00  0.00     0.026 C 
HETATM    3  C6  UNL     1      29.324  74.612  81.936  1.00  0.00     0.007 C 
HETATM    4  C7  UNL     1      29.846  74.766  83.380  1.00  0.00    -0.006 C 
HETATM    5  C8  UNL     1      30.581  73.586  83.854  1.00  0.00    -0.008 C 
HETATM    6  C9  UNL     1      30.007  73.023  85.174  1.00  0.00     0.005 C 
HETATM    7  C10 UNL     1      29.970  74.288  86.052  1.00  0.00     0.006 C 
HETATM    8  C11 UNL     1      28.673  74.946  85.635  1.00  0.00    -0.005 C 
HETATM    9  C12 UNL     1      28.706  75.267  84.182  1.00  0.00    -0.006 C 
HETATM   10  C13 UNL     1      28.628  76.796  84.005  1.00  0.00     0.006 C 
HETATM   11  C14 UNL     1      27.363  77.363  84.538  1.00  0.00     0.012 C 
HETATM   12  C15 UNL     1      27.043  76.733  85.846  1.00  0.00    -0.012 C 
HETATM   13  C16 UNL     1      25.910  75.774  85.750  1.00  0.00     0.018 C 
HETATM   14  C17 UNL     1      26.759  77.785  86.933  1.00  0.00     0.150 C 
HETATM   15  C18 UNL     1      26.855  76.862  88.149  1.00  0.00     0.120 C 
HETATM   16  C22 UNL     1      28.041  75.976  87.879  1.00  0.00     0.012 C 
HETATM   17  C23 UNL     1      27.816  74.640  88.461  1.00  0.00     0.012 C 
HETATM   18  C24 UNL     1      28.307  76.110  86.456  1.00  0.00     0.006 C 
HETATM   19  C25 UNL     1      30.854  72.478  82.923  1.00  0.00     0.030 C 
ENDROOT
BRANCH   1  20
HETATM   20  N1  UNL     1      29.703  70.992  81.352  1.00  0.00    -0.352 N 
HETATM   21  C2  UNL     1      29.501  70.653  79.992  1.00  0.00     0.215 C 
HETATM   22  C1  UNL     1      29.593  71.638  78.891  1.00  0.00     0.117 C 
HETATM   23  O1  UNL     1      29.232  69.461  79.708  1.00  0.00    -0.274 OA
HETATM   24  C3  UNL     1      29.595  69.953  82.385  1.00  0.00     0.153 C 
ENDBRANCH   1  20
BRANCH  14  25
HETATM   25  O2  UNL     1      27.775  78.714  86.895  1.00  0.00    -0.393 OA
ATOM     26  H2  UNL     1      28.447  78.387  86.307  1.00  0.00     0.210 HD
ENDBRANCH  14  25
BRANCH  15  27
HETATM   27  N2  UNL     1      26.886  77.590  89.378  1.00  0.00    -0.349 N 
HETATM   28  C19 UNL     1      28.095  77.855  90.100  1.00  0.00     0.153 C 
HETATM   29  C20 UNL     1      25.657  78.081  89.903  1.00  0.00     0.215 C 
HETATM   30  C21 UNL     1      24.345  77.868  89.204  1.00  0.00     0.117 C 
HETATM   31  O3  UNL     1      25.688  78.720  91.000  1.00  0.00    -0.274 OA
ENDBRANCH  15  27
TORSDOF 3
ENDMDL
MODEL 4
REMARK VINA RESULT: -7.032438774      7.417      8.860
REMARK  3 active torsions:
REMARK  status: ('A' for Active; 'I' for Inactive)
REMARK       I    between atoms: C2_2  and  N1_4 
REMARK    1  A    between atoms: N1_4  and  C4_6 
REMARK    2  A    between atoms: C17_19  and  O2_20 
REMARK    3  A    between atoms: C18_22  and  N2_23 
REMARK       I    between atoms: N2_23  and  C20_25 
ROOT
HETATM    1  C4  UNL     1      23.215  78.191  87.003  1.00  0.00     0.087 C 
HETATM    2  C5  UNL     1      23.988  76.903  86.757  1.00  0.00     0.026 C 
HETATM    3  C6  UNL     1      23.764  76.135  88.067  1.00  0.00     0.007 C 
HETATM    4  C7  UNL     1      24.773  76.754  89.056  1.00  0.00    -0.006 C 
HETATM    5  C8  UNL     1      24.826  78.220  88.979  1.00  0.00    -0.008 C 
HETATM    6  C9  UNL     1      26.257  78.747  88.725  1.00  0.00     0.005 C 
HETATM    7  C10 UNL     1      27.048  78.024  89.830  1.00  0.00     0.006 C 
HETATM    8  C11 UNL     1      27.315  76.667  89.216  1.00  0.00    -0.005 C 
HETATM    9  C12 UNL     1      26.030  75.985  88.901  1.00  0.00    -0.006 C 
HETATM   10  C13 UNL     1      25.919  74.707  89.754  1.00  0.00     0.006 C 
HETATM   11  C14 UNL     1      27.002  73.733  89.457  1.00  0.00     0.012 C 
HETATM   12  C15 UNL     1      28.298  74.449  89.328  1.00  0.00    -0.012 C 
HETATM   13  C16 UNL     1      28.760  74.533  87.916  1.00  0.00     0.018 C 
HETATM   14  C17 UNL     1      29.390  73.818  90.209  1.00  0.00     0.150 C 
HETATM   15  C18 UNL     1      30.403  74.962  90.140  1.00  0.00     0.120 C 
HETATM   16  C22 UNL     1      29.588  76.220  90.278  1.00  0.00     0.012 C 
HETATM   17  C23 UNL     1      30.201  77.307  89.494  1.00  0.00     0.012 C 
HETATM   18  C24 UNL     1      28.216  75.821  90.013  1.00  0.00     0.006 C 
HETATM   19  C25 UNL     1      23.876  78.937  88.113  1.00  0.00     0.030 C 
ENDROOT
BRANCH   1  20
HETATM   20  N1  UNL     1      23.054  78.958  85.805  1.00  0.00    -0.352 N 
HETATM   21  C2  UNL     1      21.914  78.746  84.993  1.00  0.00     0.215 C 
HETATM   22  C1  UNL     1      20.861  77.758  85.319  1.00  0.00     0.117 C 
HETATM   23  O1  UNL     1      21.792  79.427  83.947  1.00  0.00    -0.274 OA
HETATM   24  C3  UNL     1      24.054  79.959  85.410  1.00  0.00     0.153 C 
ENDBRANCH   1  20
BRANCH  14  25
HETATM   25  O2  UNL     1      28.868  73.652  91.473  1.00  0.00    -0.393 OA
ATOM     26  H2  UNL     1      27.922  73.705  91.406  1.00  0.00     0.210 HD
ENDBRANCH  14  25
BRANCH  15  27
HETATM   27  N2  UNL     1      31.466  74.799  91.081  1.00  0.00    -0.349 N 
HETATM   28  C19 UNL     1      31.388  75.260  92.436  1.00  0.00     0.153 C 
HETATM   29  C20 UNL     1      32.653  74.143  90.651  1.00  0.00     0.215 C 
HETATM   30  C21 UNL     1      32.816  73.611  89.256  1.00  0.00     0.117 C 
HETATM   31  O3  UNL     1      33.599  74.008  91.489  1.00  0.00    -0.274 OA
ENDBRANCH  15  27
TORSDOF 3
ENDMDL
MODEL 5
REMARK VINA RESULT: -7.010218521      7.830      8.948
REMARK  3 active torsions:
REMARK  status: ('A' for Active; 'I' for Inactive)
REMARK       I    between atoms: C2_2  and  N1_4 
REMARK    1  A    between atoms: N1_4  and  C4_6 
REMARK    2  A    between atoms: C17_19  and  O2_20 
REMARK    3  A    between atoms: C18_22  and  N2_23 
REMARK       I    between atoms: N2_23  and  C20_25 
ROOT
HETATM    1  C4  UNL     1      22.675  78.539  85.432  1.00  0.00     0.087 C 
HETATM    2  C5  UNL     1      22.764  77.412  86.451  1.00  0.00     0.026 C 
HETATM    3  C6  UNL     1      23.119  78.168  87.740  1.00  0.00     0.007 C 
HETATM    4  C7  UNL     1      24.637  78.422  87.633  1.00  0.00    -0.006 C 
HETATM    5  C8  UNL     1      25.052  78.868  86.297  1.00  0.00    -0.008 C 
HETATM    6  C9  UNL     1      26.160  77.976  85.693  1.00  0.00     0.005 C 
HETATM    7  C10 UNL     1      27.193  77.961  86.835  1.00  0.00     0.006 C 
HETATM    8  C11 UNL     1      26.663  76.881  87.751  1.00  0.00    -0.005 C 
HETATM    9  C12 UNL     1      25.298  77.237  88.228  1.00  0.00    -0.006 C 
HETATM   10  C13 UNL     1      25.335  77.424  89.757  1.00  0.00     0.006 C 
HETATM   11  C14 UNL     1      25.723  76.179  90.470  1.00  0.00     0.012 C 
HETATM   12  C15 UNL     1      26.852  75.526  89.758  1.00  0.00    -0.012 C 
HETATM   13  C16 UNL     1      26.428  74.302  89.027  1.00  0.00     0.018 C 
HETATM   14  C17 UNL     1      28.017  75.200  90.710  1.00  0.00     0.150 C 
HETATM   15  C18 UNL     1      29.084  74.924  89.650  1.00  0.00     0.120 C 
HETATM   16  C22 UNL     1      28.893  75.994  88.609  1.00  0.00     0.012 C 
HETATM   17  C23 UNL     1      29.228  75.465  87.275  1.00  0.00     0.012 C 
HETATM   18  C24 UNL     1      27.570  76.542  88.858  1.00  0.00     0.006 C 
HETATM   19  C25 UNL     1      24.030  79.145  85.274  1.00  0.00     0.030 C 
ENDROOT
BRANCH   1  20
HETATM   20  N1  UNL     1      22.087  78.106  84.201  1.00  0.00    -0.352 N 
HETATM   21  C2  UNL     1      20.678  78.026  84.095  1.00  0.00     0.215 C 
HETATM   22  C1  UNL     1      19.763  78.374  85.205  1.00  0.00     0.117 C 
HETATM   23  O1  UNL     1      20.183  77.643  83.008  1.00  0.00    -0.274 OA
HETATM   24  C3  UNL     1      22.926  77.743  83.051  1.00  0.00     0.153 C 
ENDBRANCH   1  20
BRANCH  14  25
HETATM   25  O2  UNL     1      28.287  76.332  91.447  1.00  0.00    -0.393 OA
ATOM     26  H2  UNL     1      28.893  76.867  90.947  1.00  0.00     0.210 HD
ENDBRANCH  14  25
BRANCH  15  27
HETATM   27  N2  UNL     1      30.393  74.828  90.215  1.00  0.00    -0.349 N 
HETATM   28  C19 UNL     1      31.274  75.952  90.343  1.00  0.00     0.153 C 
HETATM   29  C20 UNL     1      30.838  73.558  90.677  1.00  0.00     0.215 C 
HETATM   30  C21 UNL     1      29.976  72.330  90.600  1.00  0.00     0.117 C 
HETATM   31  O3  UNL     1      32.006  73.475  91.171  1.00  0.00    -0.274 OA
ENDBRANCH  15  27
TORSDOF 3
ENDMDL
