MODEL 1
REMARK VINA RESULT: -8.235210168      0.000      0.000
REMARK  6 active torsions:
REMARK  status: ('A' for Active; 'I' for Inactive)
REMARK    1  A    between atoms: C2_2  and  C3_3 
REMARK    2  A    between atoms: C3_3  and  C4_4 
REMARK    3  A    between atoms: C4_4  and  C5_5 
REMARK    4  A    between atoms: N3_11  and  C7_12 
REMARK    5  A    between atoms: C7_12  and  C8_13 
REMARK       I    between atoms: C8_13  and  N4_15 
REMARK    6  A    between atoms: C9_17  and  C10_18 
ROOT
HETATM    1  C8  UNL     1      13.679 -14.365  19.525  1.00  0.00     0.241 C 
HETATM    2  O1  UNL     1      12.645 -14.894  19.062  1.00  0.00    -0.271 OA
HETATM    3  N4  UNL     1      13.523 -13.247  20.361  1.00  0.00    -0.335 N 
ATOM      4  H4  UNL     1      13.317 -13.431  21.343  1.00  0.00     0.168 HD
HETATM    5  C9  UNL     1      13.615 -12.034  20.012  1.00  0.00     0.104 C 
ENDROOT
BRANCH   1   6
HETATM    6  C7  UNL     1      15.005 -14.946  19.169  1.00  0.00     0.253 C 
BRANCH   6   7
HETATM    7  N3  UNL     1      15.760 -15.144  20.386  1.00  0.00    -0.271 N 
HETATM    8  C5  UNL     1      16.694 -14.365  20.930  1.00  0.00     0.099 A 
HETATM    9  N1  UNL     1      17.143 -15.015  22.048  1.00  0.00    -0.340 N 
HETATM   10  C6  UNL     1      16.490 -16.175  22.185  1.00  0.00     0.199 A 
ATOM     11  H1  UNL     1      17.865 -14.668  22.680  1.00  0.00     0.168 HD
HETATM   12  N2  UNL     1      15.647 -16.228  21.150  1.00  0.00    -0.292 N 
ATOM     13  H2  UNL     1      15.003 -16.997  20.970  1.00  0.00     0.188 HD
BRANCH   8  14
HETATM   14  C4  UNL     1      17.258 -13.081  20.510  1.00  0.00     0.078 C 
BRANCH  14  15
HETATM   15  C3  UNL     1      18.500 -12.761  21.268  1.00  0.00     0.007 C 
BRANCH  15  16
HETATM   16  C2  UNL     1      19.738 -13.070  20.492  1.00  0.00    -0.004 C 
HETATM   17  C1  UNL     1      20.192 -11.807  19.769  1.00  0.00     0.005 C 
ENDBRANCH  15  16
ENDBRANCH  14  15
ENDBRANCH   8  14
ENDBRANCH   6   7
ENDBRANCH   1   6
BRANCH   5  18
HETATM   18  C10 UNL     1      13.446 -10.915  20.916  1.00  0.00     0.009 A 
HETATM   19  C11 UNL     1      14.123  -9.701  20.924  1.00  0.00     0.102 A 
HETATM   20  N5  UNL     1      13.652  -8.951  21.932  1.00  0.00    -0.363 N 
HETATM   21  C12 UNL     1      12.696  -9.608  22.593  1.00  0.00     0.063 A 
ATOM     22  H5  UNL     1      13.978  -8.012  22.161  1.00  0.00     0.165 HD
HETATM   23  C13 UNL     1      12.554 -10.851  21.963  1.00  0.00     0.020 A 
HETATM   24  C16 UNL     1      11.848  -9.327  23.728  1.00  0.00     0.053 A 
HETATM   25  C14 UNL     1      11.547 -11.748  22.530  1.00  0.00     0.102 A 
HETATM   26  N6  UNL     1      10.820 -11.435  23.548  1.00  0.00    -0.373 N 
HETATM   27  C15 UNL     1      10.964 -10.180  24.185  1.00  0.00     0.109 A 
ATOM     28  H6  UNL     1      10.133 -12.102  23.899  1.00  0.00     0.164 HD
HETATM   29 BR1  UNL     1      12.054  -7.624  24.579  1.00  0.00    -0.047 Br
ENDBRANCH   5  18
TORSDOF 6
ENDMDL
MODEL 2
REMARK VINA RESULT: -8.175228774      1.637      2.251
REMARK  6 active torsions:
REMARK  status: ('A' for Active; 'I' for Inactive)
REMARK    1  A    between atoms: C2_2  and  C3_3 
REMARK    2  A    between atoms: C3_3  and  C4_4 
REMARK    3  A    between atoms: C4_4  and  C5_5 
REMARK    4  A    between atoms: N3_11  and  C7_12 
REMARK    5  A    between atoms: C7_12  and  C8_13 
REMARK       I    between atoms: C8_13  and  N4_15 
REMARK    6  A    between atoms: C9_17  and  C10_18 
ROOT
HETATM    1  C8  UNL     1      13.596 -14.311  19.709  1.00  0.00     0.241 C 
HETATM    2  O1  UNL     1      12.601 -15.066  19.634  1.00  0.00    -0.271 OA
HETATM    3  N4  UNL     1      13.497 -13.179  20.533  1.00  0.00    -0.335 N 
ATOM      4  H4  UNL     1      13.672 -13.316  21.529  1.00  0.00     0.168 HD
HETATM    5  C9  UNL     1      13.212 -12.003  20.159  1.00  0.00     0.104 C 
ENDROOT
BRANCH   1   6
HETATM    6  C7  UNL     1      14.818 -14.654  18.928  1.00  0.00     0.253 C 
BRANCH   6   7
HETATM    7  N3  UNL     1      15.381 -13.432  18.398  1.00  0.00    -0.271 N 
HETATM    8  C5  UNL     1      16.269 -12.608  18.954  1.00  0.00     0.099 A 
HETATM    9  N1  UNL     1      16.440 -11.570  18.079  1.00  0.00    -0.340 N 
HETATM   10  C6  UNL     1      15.667 -11.759  17.003  1.00  0.00     0.199 A 
ATOM     11  H1  UNL     1      17.061 -10.774  18.225  1.00  0.00     0.168 HD
HETATM   12  N2  UNL     1      15.029 -12.911  17.226  1.00  0.00    -0.292 N 
ATOM     13  H2  UNL     1      14.360 -13.333  16.584  1.00  0.00     0.188 HD
BRANCH   8  14
HETATM   14  C4  UNL     1      16.965 -12.650  20.241  1.00  0.00     0.078 C 
BRANCH  14  15
HETATM   15  C3  UNL     1      18.067 -11.649  20.293  1.00  0.00     0.007 C 
BRANCH  15  16
HETATM   16  C2  UNL     1      19.410 -12.284  20.443  1.00  0.00    -0.004 C 
HETATM   17  C1  UNL     1      20.291 -11.850  19.277  1.00  0.00     0.005 C 
ENDBRANCH  15  16
ENDBRANCH  14  15
ENDBRANCH   8  14
ENDBRANCH   6   7
ENDBRANCH   1   6
BRANCH   5  18
HETATM   18  C10 UNL     1      13.123 -10.867  21.052  1.00  0.00     0.009 A 
HETATM   19  C11 UNL     1      13.826  -9.669  20.998  1.00  0.00     0.102 A 
HETATM   20  N5  UNL     1      13.435  -8.892  22.020  1.00  0.00    -0.363 N 
HETATM   21  C12 UNL     1      12.507  -9.518  22.750  1.00  0.00     0.063 A 
ATOM     22  H5  UNL     1      13.795  -7.957  22.213  1.00  0.00     0.165 HD
HETATM   23  C13 UNL     1      12.299 -10.766  22.151  1.00  0.00     0.020 A 
HETATM   24  C16 UNL     1      11.738  -9.198  23.930  1.00  0.00     0.053 A 
HETATM   25  C14 UNL     1      11.310 -11.631  22.793  1.00  0.00     0.102 A 
HETATM   26  N6  UNL     1      10.654 -11.286  23.849  1.00  0.00    -0.373 N 
HETATM   27  C15 UNL     1      10.865 -10.024  24.454  1.00  0.00     0.109 A 
ATOM     28  H6  UNL     1       9.975 -11.931  24.253  1.00  0.00     0.164 HD
HETATM   29 BR1  UNL     1      12.033  -7.488  24.737  1.00  0.00    -0.047 Br
ENDBRANCH   5  18
TORSDOF 6
ENDMDL
MODEL 3
REMARK VINA RESULT: -8.041582579      1.176      1.347
REMARK  6 active torsions:
REMARK  status: ('A' for Active; 'I' for Inactive)
REMARK    1  A    between atoms: C2_2  and  C3_3 
REMARK    2  A    between atoms: C3_3  and  C4_4 
REMARK    3  A    between atoms: C4_4  and  C5_5 
REMARK    4  A    between atoms: N3_11  and  C7_12 
REMARK    5  A    between atoms: C7_12  and  C8_13 
REMARK       I    between atoms: C8_13  and  N4_15 
REMARK    6  A    between atoms: C9_17  and  C10_18 
ROOT
HETATM    1  C8  UNL     1      12.937 -14.787  19.678  1.00  0.00     0.241 C 
HETATM    2  O1  UNL     1      11.871 -15.132  19.122  1.00  0.00    -0.271 OA
HETATM    3  N4  UNL     1      12.922 -13.614  20.450  1.00  0.00    -0.335 N 
ATOM      4  H4  UNL     1      12.585 -13.698  21.410  1.00  0.00     0.168 HD
HETATM    5  C9  UNL     1      13.287 -12.463  20.070  1.00  0.00     0.104 C 
ENDROOT
BRANCH   1   6
HETATM    6  C7  UNL     1      14.151 -15.631  19.491  1.00  0.00     0.253 C 
BRANCH   6   7
HETATM    7  N3  UNL     1      14.676 -15.973  20.794  1.00  0.00    -0.271 N 
HETATM    8  C5  UNL     1      15.702 -15.434  21.452  1.00  0.00     0.099 A 
HETATM    9  N1  UNL     1      15.833 -16.139  22.618  1.00  0.00    -0.340 N 
HETATM   10  C6  UNL     1      14.899 -17.095  22.670  1.00  0.00     0.199 A 
ATOM     11  H1  UNL     1      16.535 -15.963  23.336  1.00  0.00     0.168 HD
HETATM   12  N2  UNL     1      14.203 -16.969  21.537  1.00  0.00    -0.292 N 
ATOM     13  H2  UNL     1      13.413 -17.559  21.276  1.00  0.00     0.188 HD
BRANCH   8  14
HETATM   14  C4  UNL     1      16.616 -14.344  21.107  1.00  0.00     0.078 C 
BRANCH  14  15
HETATM   15  C3  UNL     1      16.408 -13.162  21.991  1.00  0.00     0.007 C 
BRANCH  15  16
HETATM   16  C2  UNL     1      17.201 -11.975  21.555  1.00  0.00    -0.004 C 
HETATM   17  C1  UNL     1      17.224 -11.933  20.031  1.00  0.00     0.005 C 
ENDBRANCH  15  16
ENDBRANCH  14  15
ENDBRANCH   8  14
ENDBRANCH   6   7
ENDBRANCH   1   6
BRANCH   5  18
HETATM   18  C10 UNL     1      13.251 -11.283  20.909  1.00  0.00     0.009 A 
HETATM   19  C11 UNL     1      14.021 -10.129  20.809  1.00  0.00     0.102 A 
HETATM   20  N5  UNL     1      13.662  -9.285  21.789  1.00  0.00    -0.363 N 
HETATM   21  C12 UNL     1      12.692  -9.823  22.534  1.00  0.00     0.063 A 
ATOM     22  H5  UNL     1      14.072  -8.364  21.943  1.00  0.00     0.165 HD
HETATM   23  C13 UNL     1      12.422 -11.085  21.990  1.00  0.00     0.020 A 
HETATM   24  C16 UNL     1      11.929  -9.407  23.687  1.00  0.00     0.053 A 
HETATM   25  C14 UNL     1      11.378 -11.863  22.658  1.00  0.00     0.102 A 
HETATM   26  N6  UNL     1      10.731 -11.433  23.687  1.00  0.00    -0.373 N 
HETATM   27  C15 UNL     1      11.005 -10.158  24.236  1.00  0.00     0.109 A 
ATOM     28  H6  UNL     1      10.013 -12.019  24.111  1.00  0.00     0.164 HD
HETATM   29 BR1  UNL     1      12.310  -7.680  24.419  1.00  0.00    -0.047 Br
ENDBRANCH   5  18
TORSDOF 6
ENDMDL
MODEL 4
REMARK VINA RESULT: -7.841226279      3.174      6.653
REMARK  6 active torsions:
REMARK  status: ('A' for Active; 'I' for Inactive)
REMARK    1  A    between atoms: C2_2  and  C3_3 
REMARK    2  A    between atoms: C3_3  and  C4_4 
REMARK    3  A    between atoms: C4_4  and  C5_5 
REMARK    4  A    between atoms: N3_11  and  C7_12 
REMARK    5  A    between atoms: C7_12  and  C8_13 
REMARK       I    between atoms: C8_13  and  N4_15 
REMARK    6  A    between atoms: C9_17  and  C10_18 
ROOT
HETATM    1  C8  UNL     1      15.372 -12.318  18.790  1.00  0.00     0.241 C 
HETATM    2  O1  UNL     1      15.249 -12.991  17.742  1.00  0.00    -0.271 OA
HETATM    3  N4  UNL     1      16.607 -12.366  19.456  1.00  0.00    -0.335 N 
ATOM      4  H4  UNL     1      17.341 -11.747  19.110  1.00  0.00     0.168 HD
HETATM    5  C9  UNL     1      16.897 -13.102  20.444  1.00  0.00     0.104 C 
ENDROOT
BRANCH   1   6
HETATM    6  C7  UNL     1      14.212 -11.512  19.266  1.00  0.00     0.253 C 
BRANCH   6   7
HETATM    7  N3  UNL     1      13.520 -12.265  20.289  1.00  0.00    -0.271 N 
HETATM    8  C5  UNL     1      13.058 -11.849  21.467  1.00  0.00     0.099 A 
HETATM    9  N1  UNL     1      12.531 -12.947  22.091  1.00  0.00    -0.340 N 
HETATM   10  C6  UNL     1      12.668 -14.019  21.302  1.00  0.00     0.199 A 
ATOM     11  H1  UNL     1      12.099 -12.948  23.015  1.00  0.00     0.168 HD
HETATM   12  N2  UNL     1      13.279 -13.570  20.202  1.00  0.00    -0.292 N 
ATOM     13  H2  UNL     1      13.528 -14.151  19.402  1.00  0.00     0.188 HD
BRANCH   8  14
HETATM   14  C4  UNL     1      13.079 -10.535  22.114  1.00  0.00     0.078 C 
BRANCH  14  15
HETATM   15  C3  UNL     1      11.708 -10.105  22.509  1.00  0.00     0.007 C 
BRANCH  15  16
HETATM   16  C2  UNL     1      11.594  -9.834  23.973  1.00  0.00    -0.004 C 
HETATM   17  C1  UNL     1      12.022  -8.395  24.241  1.00  0.00     0.005 C 
ENDBRANCH  15  16
ENDBRANCH  14  15
ENDBRANCH   8  14
ENDBRANCH   6   7
ENDBRANCH   1   6
BRANCH   5  18
HETATM   18  C10 UNL     1      18.189 -13.113  21.096  1.00  0.00     0.009 A 
HETATM   19  C11 UNL     1      19.437 -12.841  20.546  1.00  0.00     0.102 A 
HETATM   20  N5  UNL     1      20.368 -12.964  21.504  1.00  0.00    -0.363 N 
HETATM   21  C12 UNL     1      19.798 -13.305  22.664  1.00  0.00     0.063 A 
ATOM     22  H5  UNL     1      21.368 -12.818  21.367  1.00  0.00     0.165 HD
HETATM   23  C13 UNL     1      18.423 -13.402  22.422  1.00  0.00     0.020 A 
HETATM   24  C16 UNL     1      20.269 -13.571  24.003  1.00  0.00     0.053 A 
HETATM   25  C14 UNL     1      17.592 -13.770  23.569  1.00  0.00     0.102 A 
HETATM   26  N6  UNL     1      18.076 -13.995  24.743  1.00  0.00    -0.373 N 
HETATM   27  C15 UNL     1      19.466 -13.897  24.987  1.00  0.00     0.109 A 
ATOM     28  H6  UNL     1      17.448 -14.247  25.506  1.00  0.00     0.164 HD
HETATM   29 BR1  UNL     1      22.152 -13.433  24.318  1.00  0.00    -0.047 Br
ENDBRANCH   5  18
TORSDOF 6
ENDMDL
MODEL 5
REMARK VINA RESULT: -7.605227489      1.423      1.730
REMARK  6 active torsions:
REMARK  status: ('A' for Active; 'I' for Inactive)
REMARK    1  A    between atoms: C2_2  and  C3_3 
REMARK    2  A    between atoms: C3_3  and  C4_4 
REMARK    3  A    between atoms: C4_4  and  C5_5 
REMARK    4  A    between atoms: N3_11  and  C7_12 
REMARK    5  A    between atoms: C7_12  and  C8_13 
REMARK       I    between atoms: C8_13  and  N4_15 
REMARK    6  A    between atoms: C9_17  and  C10_18 
ROOT
HETATM    1  C8  UNL     1      13.330 -14.689  19.566  1.00  0.00     0.241 C 
HETATM    2  O1  UNL     1      12.327 -15.061  18.916  1.00  0.00    -0.271 OA
HETATM    3  N4  UNL     1      13.208 -13.528  20.346  1.00  0.00    -0.335 N 
ATOM      4  H4  UNL     1      12.792 -13.635  21.272  1.00  0.00     0.168 HD
HETATM    5  C9  UNL     1      13.566 -12.360  20.012  1.00  0.00     0.104 C 
ENDROOT
BRANCH   1   6
HETATM    6  C7  UNL     1      14.582 -15.492  19.478  1.00  0.00     0.253 C 
BRANCH   6   7
HETATM    7  N3  UNL     1      14.911 -15.975  20.800  1.00  0.00    -0.271 N 
HETATM    8  C5  UNL     1      15.919 -15.618  21.596  1.00  0.00     0.099 A 
HETATM    9  N1  UNL     1      15.827 -16.399  22.716  1.00  0.00    -0.340 N 
HETATM   10  C6  UNL     1      14.777 -17.221  22.605  1.00  0.00     0.199 A 
ATOM     11  H1  UNL     1      16.463 -16.361  23.514  1.00  0.00     0.168 HD
HETATM   12  N2  UNL     1      14.233 -16.938  21.418  1.00  0.00    -0.292 N 
ATOM     13  H2  UNL     1      13.408 -17.399  21.037  1.00  0.00     0.188 HD
BRANCH   8  14
HETATM   14  C4  UNL     1      16.999 -14.646  21.425  1.00  0.00     0.078 C 
BRANCH  14  15
HETATM   15  C3  UNL     1      16.932 -13.574  22.458  1.00  0.00     0.007 C 
BRANCH  15  16
HETATM   16  C2  UNL     1      18.122 -13.571  23.358  1.00  0.00    -0.004 C 
HETATM   17  C1  UNL     1      17.718 -14.148  24.710  1.00  0.00     0.005 C 
ENDBRANCH  15  16
ENDBRANCH  14  15
ENDBRANCH   8  14
ENDBRANCH   6   7
ENDBRANCH   1   6
BRANCH   5  18
HETATM   18  C10 UNL     1      13.419 -11.194  20.856  1.00  0.00     0.009 A 
HETATM   19  C11 UNL     1      14.124  -9.996  20.805  1.00  0.00     0.102 A 
HETATM   20  N5  UNL     1      13.666  -9.185  21.771  1.00  0.00    -0.363 N 
HETATM   21  C12 UNL     1      12.693  -9.786  22.460  1.00  0.00     0.063 A 
ATOM     22  H5  UNL     1      14.013  -8.243  21.953  1.00  0.00     0.165 HD
HETATM   23  C13 UNL     1      12.526 -11.056  21.894  1.00  0.00     0.020 A 
HETATM   24  C16 UNL     1      11.849  -9.427  23.576  1.00  0.00     0.053 A 
HETATM   25  C14 UNL     1      11.497 -11.900  22.501  1.00  0.00     0.102 A 
HETATM   26  N6  UNL     1      10.774 -11.519  23.499  1.00  0.00    -0.373 N 
HETATM   27  C15 UNL     1      10.944 -10.236  24.071  1.00  0.00     0.109 A 
ATOM     28  H6  UNL     1      10.070 -12.151  23.881  1.00  0.00     0.164 HD
HETATM   29 BR1  UNL     1      12.090  -7.688  24.339  1.00  0.00    -0.047 Br
ENDBRANCH   5  18
TORSDOF 6
ENDMDL
