MODEL 1
REMARK VINA RESULT: -8.608957607      0.000      0.000
REMARK  10 active torsions:
REMARK  status: ('A' for Active; 'I' for Inactive)
REMARK    1  A    between atoms: C2_2  and  C3_3 
REMARK    2  A    between atoms: C3_3  and  C4_4 
REMARK    3  A    between atoms: C5_5  and  C6_6 
REMARK    4  A    between atoms: C6_6  and  N1_7 
REMARK    5  A    between atoms: C7_8  and  O1_9 
REMARK    6  A    between atoms: C8_11  and  N2_12 
REMARK    7  A    between atoms: N2_12  and  C9_14 
REMARK    8  A    between atoms: C9_14  and  C11_16 
REMARK    9  A    between atoms: C16_21  and  N3_22 
REMARK   10  A    between atoms: C17_27  and  N5_28 
ROOT
HETATM    1  N1  UNL     1      14.125  58.037  37.666  1.00  0.00    -0.316 N 
HETATM    2  C7  UNL     1      13.934  57.680  38.910  1.00  0.00     0.171 A 
HETATM    3  C8  UNL     1      14.825  56.626  39.176  1.00  0.00     0.094 A 
HETATM    4  C14 UNL     1      15.585  56.340  38.041  1.00  0.00     0.046 A 
HETATM    5  C15 UNL     1      16.570  55.518  37.599  1.00  0.00     0.058 A 
HETATM    6  C16 UNL     1      17.285  54.507  38.266  1.00  0.00     0.128 A 
HETATM    7  N4  UNL     1      18.248  53.811  37.634  1.00  0.00    -0.176 N 
ATOM      8  H4  UNL     1      18.738  53.086  38.159  1.00  0.00     0.186 HD
HETATM    9  C17 UNL     1      18.595  54.007  36.379  1.00  0.00     0.678 A 
HETATM   10  N6  UNL     1      17.952  54.953  35.695  1.00  0.00    -0.185 N 
ATOM     11  H6  UNL     1      18.192  55.137  34.720  1.00  0.00     0.185 HD
HETATM   12  C18 UNL     1      16.981  55.667  36.305  1.00  0.00     0.107 A 
HETATM   13  S1  UNL     1      16.005  56.940  35.726  1.00  0.00    -0.052 SA
HETATM   14  C19 UNL     1      15.105  57.249  37.130  1.00  0.00     0.094 A 
ENDROOT
BRANCH   3  15
HETATM   15  N2  UNL     1      14.822  56.052  40.476  1.00  0.00    -0.381 N 
ATOM     16  H2  UNL     1      15.576  56.248  41.135  1.00  0.00     0.160 HD
BRANCH  15  17
HETATM   17  C9  UNL     1      13.726  55.184  40.843  1.00  0.00     0.081 C 
HETATM   18  C10 UNL     1      14.059  53.766  40.559  1.00  0.00     0.032 C 
BRANCH  17  19
HETATM   19  C11 UNL     1      13.482  55.341  42.343  1.00  0.00    -0.000 C 
HETATM   20  C12 UNL     1      13.654  56.782  42.753  1.00  0.00     0.011 C 
HETATM   21  C13 UNL     1      12.057  54.924  42.600  1.00  0.00     0.011 C 
ENDBRANCH  17  19
ENDBRANCH  15  17
ENDBRANCH   3  15
BRANCH   2  22
HETATM   22  O1  UNL     1      13.053  58.165  39.882  1.00  0.00    -0.344 OA
ATOM     23  H1  UNL     1      12.856  57.854  40.757  1.00  0.00     0.219 HD
ENDBRANCH   2  22
BRANCH   1  24
HETATM   24  C6  UNL     1      13.433  59.112  36.951  1.00  0.00     0.159 C 
BRANCH  24  25
HETATM   25  C5  UNL     1      11.992  58.942  36.814  1.00  0.00    -0.007 C 
HETATM   26  C4  UNL     1      10.974  59.890  37.206  1.00  0.00    -0.006 C 
BRANCH  26  27
HETATM   27  C3  UNL     1      10.543  60.199  38.562  1.00  0.00    -0.027 C 
BRANCH  27  28
HETATM   28  C2  UNL     1      11.038  61.227  39.461  1.00  0.00     0.022 C 
HETATM   29  C1  UNL     1      12.455  61.640  39.426  1.00  0.00     0.009 C 
ENDBRANCH  27  28
ENDBRANCH  26  27
ENDBRANCH  24  25
ENDBRANCH   1  24
BRANCH   6  30
HETATM   30  N3  UNL     1      17.090  54.215  39.492  1.00  0.00    -0.384 N 
ATOM     31  H32 UNL     1      16.373  53.514  39.680  1.00  0.00     0.157 HD
ATOM     32  H31 UNL     1      17.626  54.631  40.253  1.00  0.00     0.157 HD
ENDBRANCH   6  30
BRANCH   9  33
HETATM   33  N5  UNL     1      19.532  53.286  35.857  1.00  0.00    -0.234 N 
ATOM     34  H52 UNL     1      19.372  52.337  35.521  1.00  0.00     0.174 HD
ATOM     35  H51 UNL     1      20.473  53.671  35.771  1.00  0.00     0.174 HD
ENDBRANCH   9  33
TORSDOF 10
ENDMDL
MODEL 2
REMARK VINA RESULT: -8.286242527      3.316      6.578
REMARK  10 active torsions:
REMARK  status: ('A' for Active; 'I' for Inactive)
REMARK    1  A    between atoms: C2_2  and  C3_3 
REMARK    2  A    between atoms: C3_3  and  C4_4 
REMARK    3  A    between atoms: C5_5  and  C6_6 
REMARK    4  A    between atoms: C6_6  and  N1_7 
REMARK    5  A    between atoms: C7_8  and  O1_9 
REMARK    6  A    between atoms: C8_11  and  N2_12 
REMARK    7  A    between atoms: N2_12  and  C9_14 
REMARK    8  A    between atoms: C9_14  and  C11_16 
REMARK    9  A    between atoms: C16_21  and  N3_22 
REMARK   10  A    between atoms: C17_27  and  N5_28 
ROOT
HETATM    1  N1  UNL     1      16.068  55.420  36.548  1.00  0.00    -0.316 N 
HETATM    2  C7  UNL     1      16.066  54.112  36.591  1.00  0.00     0.171 A 
HETATM    3  C8  UNL     1      15.469  53.742  37.809  1.00  0.00     0.094 A 
HETATM    4  C14 UNL     1      15.094  54.880  38.527  1.00  0.00     0.046 A 
HETATM    5  C15 UNL     1      14.504  55.259  39.688  1.00  0.00     0.058 A 
HETATM    6  C16 UNL     1      13.968  54.487  40.735  1.00  0.00     0.128 A 
HETATM    7  N4  UNL     1      13.407  55.075  41.808  1.00  0.00    -0.176 N 
ATOM      8  H4  UNL     1      13.033  54.474  42.542  1.00  0.00     0.186 HD
HETATM    9  C17 UNL     1      13.311  56.379  41.967  1.00  0.00     0.678 A 
HETATM   10  N6  UNL     1      13.800  57.162  41.005  1.00  0.00    -0.185 N 
ATOM     11  H6  UNL     1      13.745  58.177  41.090  1.00  0.00     0.185 HD
HETATM   12  C18 UNL     1      14.370  56.598  39.918  1.00  0.00     0.107 A 
HETATM   13  S1  UNL     1      15.057  57.307  38.527  1.00  0.00    -0.052 SA
HETATM   14  C19 UNL     1      15.494  55.896  37.694  1.00  0.00     0.094 A 
ENDROOT
BRANCH   3  15
HETATM   15  N2  UNL     1      15.339  52.358  38.104  1.00  0.00    -0.381 N 
ATOM     16  H2  UNL     1      14.438  51.888  38.014  1.00  0.00     0.160 HD
BRANCH  15  17
HETATM   17  C9  UNL     1      16.513  51.633  38.533  1.00  0.00     0.081 C 
HETATM   18  C10 UNL     1      16.456  51.352  39.989  1.00  0.00     0.032 C 
BRANCH  17  19
HETATM   19  C11 UNL     1      16.551  50.306  37.777  1.00  0.00    -0.000 C 
HETATM   20  C12 UNL     1      15.256  50.090  37.034  1.00  0.00     0.011 C 
HETATM   21  C13 UNL     1      17.678  50.402  36.781  1.00  0.00     0.011 C 
ENDBRANCH  17  19
ENDBRANCH  15  17
ENDBRANCH   3  15
BRANCH   2  22
HETATM   22  O1  UNL     1      16.534  53.161  35.679  1.00  0.00    -0.344 OA
ATOM     23  H1  UNL     1      16.116  52.392  35.309  1.00  0.00     0.219 HD
ENDBRANCH   2  22
BRANCH   1  24
HETATM   24  C6  UNL     1      16.575  56.256  35.457  1.00  0.00     0.159 C 
BRANCH  24  25
HETATM   25  C5  UNL     1      17.934  56.751  35.632  1.00  0.00    -0.007 C 
HETATM   26  C4  UNL     1      19.052  56.016  36.179  1.00  0.00    -0.006 C 
BRANCH  26  27
HETATM   27  C3  UNL     1      19.277  55.677  37.577  1.00  0.00    -0.027 C 
BRANCH  27  28
HETATM   28  C2  UNL     1      19.177  54.381  38.225  1.00  0.00     0.022 C 
HETATM   29  C1  UNL     1      18.756  54.275  39.636  1.00  0.00     0.009 C 
ENDBRANCH  27  28
ENDBRANCH  26  27
ENDBRANCH  24  25
ENDBRANCH   1  24
BRANCH   6  30
HETATM   30  N3  UNL     1      13.956  53.213  40.720  1.00  0.00    -0.384 N 
ATOM     31  H32 UNL     1      13.183  52.774  40.220  1.00  0.00     0.157 HD
ATOM     32  H31 UNL     1      14.683  52.647  41.157  1.00  0.00     0.157 HD
ENDBRANCH   6  30
BRANCH   9  33
HETATM   33  N5  UNL     1      12.754  56.852  43.033  1.00  0.00    -0.234 N 
ATOM     34  H52 UNL     1      11.871  56.495  43.395  1.00  0.00     0.174 HD
ATOM     35  H51 UNL     1      13.206  57.613  43.541  1.00  0.00     0.174 HD
ENDBRANCH   9  33
TORSDOF 10
ENDMDL
MODEL 3
REMARK VINA RESULT: -8.221968485      0.800      1.001
REMARK  10 active torsions:
REMARK  status: ('A' for Active; 'I' for Inactive)
REMARK    1  A    between atoms: C2_2  and  C3_3 
REMARK    2  A    between atoms: C3_3  and  C4_4 
REMARK    3  A    between atoms: C5_5  and  C6_6 
REMARK    4  A    between atoms: C6_6  and  N1_7 
REMARK    5  A    between atoms: C7_8  and  O1_9 
REMARK    6  A    between atoms: C8_11  and  N2_12 
REMARK    7  A    between atoms: N2_12  and  C9_14 
REMARK    8  A    between atoms: C9_14  and  C11_16 
REMARK    9  A    between atoms: C16_21  and  N3_22 
REMARK   10  A    between atoms: C17_27  and  N5_28 
ROOT
HETATM    1  N1  UNL     1      14.514  57.729  37.598  1.00  0.00    -0.316 N 
HETATM    2  C7  UNL     1      14.264  57.360  38.828  1.00  0.00     0.171 A 
HETATM    3  C8  UNL     1      15.118  56.281  39.116  1.00  0.00     0.094 A 
HETATM    4  C14 UNL     1      15.918  55.993  38.008  1.00  0.00     0.046 A 
HETATM    5  C15 UNL     1      16.902  55.154  37.595  1.00  0.00     0.058 A 
HETATM    6  C16 UNL     1      17.565  54.117  38.278  1.00  0.00     0.128 A 
HETATM    7  N4  UNL     1      18.536  53.407  37.676  1.00  0.00    -0.176 N 
ATOM      8  H4  UNL     1      18.987  52.664  38.210  1.00  0.00     0.186 HD
HETATM    9  C17 UNL     1      18.940  53.612  36.439  1.00  0.00     0.678 A 
HETATM   10  N6  UNL     1      18.349  54.583  35.743  1.00  0.00    -0.185 N 
ATOM     11  H6  UNL     1      18.634  54.774  34.782  1.00  0.00     0.185 HD
HETATM   12  C18 UNL     1      17.370  55.311  36.322  1.00  0.00     0.107 A 
HETATM   13  S1  UNL     1      16.448  56.615  35.722  1.00  0.00    -0.052 SA
HETATM   14  C19 UNL     1      15.498  56.925  37.092  1.00  0.00     0.094 A 
ENDROOT
BRANCH   3  15
HETATM   15  N2  UNL     1      15.047  55.689  40.406  1.00  0.00    -0.381 N 
ATOM     16  H2  UNL     1      15.825  55.771  41.060  1.00  0.00     0.160 HD
BRANCH  15  17
HETATM   17  C9  UNL     1      13.848  54.969  40.768  1.00  0.00     0.081 C 
HETATM   18  C10 UNL     1      14.014  53.514  40.529  1.00  0.00     0.032 C 
BRANCH  17  19
HETATM   19  C11 UNL     1      13.592  55.198  42.256  1.00  0.00    -0.000 C 
HETATM   20  C12 UNL     1      13.909  56.624  42.629  1.00  0.00     0.011 C 
HETATM   21  C13 UNL     1      12.125  54.944  42.492  1.00  0.00     0.011 C 
ENDBRANCH  17  19
ENDBRANCH  15  17
ENDBRANCH   3  15
BRANCH   2  22
HETATM   22  O1  UNL     1      13.354  57.852  39.769  1.00  0.00    -0.344 OA
ATOM     23  H1  UNL     1      12.508  57.526  40.050  1.00  0.00     0.219 HD
ENDBRANCH   2  22
BRANCH   1  24
HETATM   24  C6  UNL     1      13.878  58.830  36.871  1.00  0.00     0.159 C 
BRANCH  24  25
HETATM   25  C5  UNL     1      12.472  58.631  36.546  1.00  0.00    -0.007 C 
HETATM   26  C4  UNL     1      11.405  59.590  36.723  1.00  0.00    -0.006 C 
BRANCH  26  27
HETATM   27  C3  UNL     1      10.786  59.988  37.980  1.00  0.00    -0.027 C 
BRANCH  27  28
HETATM   28  C2  UNL     1       9.384  60.239  38.261  1.00  0.00     0.022 C 
HETATM   29  C1  UNL     1       8.758  61.523  37.889  1.00  0.00     0.009 C 
ENDBRANCH  27  28
ENDBRANCH  26  27
ENDBRANCH  24  25
ENDBRANCH   1  24
BRANCH   6  30
HETATM   30  N3  UNL     1      17.311  53.813  39.489  1.00  0.00    -0.384 N 
ATOM     31  H32 UNL     1      16.356  53.518  39.690  1.00  0.00     0.157 HD
ATOM     32  H31 UNL     1      18.017  53.836  40.225  1.00  0.00     0.157 HD
ENDBRANCH   6  30
BRANCH   9  33
HETATM   33  N5  UNL     1      19.882  52.877  35.946  1.00  0.00    -0.234 N 
ATOM     34  H52 UNL     1      20.033  51.911  36.235  1.00  0.00     0.174 HD
ATOM     35  H51 UNL     1      20.505  53.266  35.238  1.00  0.00     0.174 HD
ENDBRANCH   9  33
TORSDOF 10
ENDMDL
MODEL 4
REMARK VINA RESULT: -7.969216795      1.265      1.622
REMARK  10 active torsions:
REMARK  status: ('A' for Active; 'I' for Inactive)
REMARK    1  A    between atoms: C2_2  and  C3_3 
REMARK    2  A    between atoms: C3_3  and  C4_4 
REMARK    3  A    between atoms: C5_5  and  C6_6 
REMARK    4  A    between atoms: C6_6  and  N1_7 
REMARK    5  A    between atoms: C7_8  and  O1_9 
REMARK    6  A    between atoms: C8_11  and  N2_12 
REMARK    7  A    between atoms: N2_12  and  C9_14 
REMARK    8  A    between atoms: C9_14  and  C11_16 
REMARK    9  A    between atoms: C16_21  and  N3_22 
REMARK   10  A    between atoms: C17_27  and  N5_28 
ROOT
HETATM    1  N1  UNL     1      14.973  56.865  37.588  1.00  0.00    -0.316 N 
HETATM    2  C7  UNL     1      14.561  56.676  38.815  1.00  0.00     0.171 A 
HETATM    3  C8  UNL     1      15.194  55.514  39.289  1.00  0.00     0.094 A 
HETATM    4  C14 UNL     1      16.026  54.984  38.300  1.00  0.00     0.046 A 
HETATM    5  C15 UNL     1      16.887  53.960  38.071  1.00  0.00     0.058 A 
HETATM    6  C16 UNL     1      17.306  52.913  38.911  1.00  0.00     0.128 A 
HETATM    7  N4  UNL     1      18.193  51.996  38.481  1.00  0.00    -0.176 N 
ATOM      8  H4  UNL     1      18.466  51.255  39.126  1.00  0.00     0.186 HD
HETATM    9  C17 UNL     1      18.728  51.998  37.278  1.00  0.00     0.678 A 
HETATM   10  N6  UNL     1      18.369  52.968  36.437  1.00  0.00    -0.185 N 
ATOM     11  H6  UNL     1      18.762  53.005  35.496  1.00  0.00     0.185 HD
HETATM   12  C18 UNL     1      17.481  53.900  36.842  1.00  0.00     0.107 A 
HETATM   13  S1  UNL     1      16.845  55.260  36.031  1.00  0.00    -0.052 SA
HETATM   14  C19 UNL     1      15.847  55.865  37.263  1.00  0.00     0.094 A 
ENDROOT
BRANCH   3  15
HETATM   15  N2  UNL     1      14.917  55.087  40.615  1.00  0.00    -0.381 N 
ATOM     16  H2  UNL     1      15.633  55.135  41.339  1.00  0.00     0.160 HD
BRANCH  15  17
HETATM   17  C9  UNL     1      13.596  54.581  40.912  1.00  0.00     0.081 C 
HETATM   18  C10 UNL     1      13.552  53.105  40.770  1.00  0.00     0.032 C 
BRANCH  17  19
HETATM   19  C11 UNL     1      13.266  54.946  42.358  1.00  0.00    -0.000 C 
HETATM   20  C12 UNL     1      13.569  56.401  42.613  1.00  0.00     0.011 C 
HETATM   21  C13 UNL     1      11.789  54.713  42.543  1.00  0.00     0.011 C 
ENDBRANCH  17  19
ENDBRANCH  15  17
ENDBRANCH   3  15
BRANCH   2  22
HETATM   22  O1  UNL     1      13.670  57.407  39.609  1.00  0.00    -0.344 OA
ATOM     23  H1  UNL     1      12.981  58.016  39.374  1.00  0.00     0.219 HD
ENDBRANCH   2  22
BRANCH   1  24
HETATM   24  C6  UNL     1      14.594  57.966  36.699  1.00  0.00     0.159 C 
BRANCH  24  25
HETATM   25  C5  UNL     1      13.162  58.213  36.590  1.00  0.00    -0.007 C 
HETATM   26  C4  UNL     1      12.484  59.461  36.858  1.00  0.00    -0.006 C 
BRANCH  26  27
HETATM   27  C3  UNL     1      12.218  60.049  38.163  1.00  0.00    -0.027 C 
BRANCH  27  28
HETATM   28  C2  UNL     1      10.941  60.410  38.753  1.00  0.00     0.022 C 
HETATM   29  C1  UNL     1       9.698  60.340  37.961  1.00  0.00     0.009 C 
ENDBRANCH  27  28
ENDBRANCH  26  27
ENDBRANCH  24  25
ENDBRANCH   1  24
BRANCH   6  30
HETATM   30  N3  UNL     1      16.904  52.787  40.114  1.00  0.00    -0.384 N 
ATOM     31  H32 UNL     1      17.535  53.127  40.840  1.00  0.00     0.157 HD
ATOM     32  H31 UNL     1      15.995  52.392  40.356  1.00  0.00     0.157 HD
ENDBRANCH   6  30
BRANCH   9  33
HETATM   33  N5  UNL     1      19.572  51.074  36.954  1.00  0.00    -0.234 N 
ATOM     34  H52 UNL     1      19.920  50.390  37.625  1.00  0.00     0.174 HD
ATOM     35  H51 UNL     1      19.910  51.016  35.993  1.00  0.00     0.174 HD
ENDBRANCH   9  33
TORSDOF 10
ENDMDL
MODEL 5
REMARK VINA RESULT: -7.785240661      7.466     10.378
REMARK  10 active torsions:
REMARK  status: ('A' for Active; 'I' for Inactive)
REMARK    1  A    between atoms: C2_2  and  C3_3 
REMARK    2  A    between atoms: C3_3  and  C4_4 
REMARK    3  A    between atoms: C5_5  and  C6_6 
REMARK    4  A    between atoms: C6_6  and  N1_7 
REMARK    5  A    between atoms: C7_8  and  O1_9 
REMARK    6  A    between atoms: C8_11  and  N2_12 
REMARK    7  A    between atoms: N2_12  and  C9_14 
REMARK    8  A    between atoms: C9_14  and  C11_16 
REMARK    9  A    between atoms: C16_21  and  N3_22 
REMARK   10  A    between atoms: C17_27  and  N5_28 
ROOT
HETATM    1  N1  UNL     1      20.484  51.598  35.949  1.00  0.00    -0.316 N 
HETATM    2  C7  UNL     1      21.311  52.055  36.854  1.00  0.00     0.171 A 
HETATM    3  C8  UNL     1      22.586  51.557  36.536  1.00  0.00     0.094 A 
HETATM    4  C14 UNL     1      22.521  50.767  35.386  1.00  0.00     0.046 A 
HETATM    5  C15 UNL     1      23.301  50.029  34.557  1.00  0.00     0.058 A 
HETATM    6  C16 UNL     1      24.685  49.781  34.585  1.00  0.00     0.128 A 
HETATM    7  N4  UNL     1      25.268  49.018  33.642  1.00  0.00    -0.176 N 
ATOM      8  H4  UNL     1      26.275  48.866  33.704  1.00  0.00     0.186 HD
HETATM    9  C17 UNL     1      24.618  48.456  32.643  1.00  0.00     0.678 A 
HETATM   10  N6  UNL     1      23.303  48.657  32.565  1.00  0.00    -0.185 N 
ATOM     11  H6  UNL     1      22.763  48.240  31.806  1.00  0.00     0.185 HD
HETATM   12  C18 UNL     1      22.692  49.417  33.499  1.00  0.00     0.107 A 
HETATM   13  S1  UNL     1      21.058  49.878  33.665  1.00  0.00    -0.052 SA
HETATM   14  C19 UNL     1      21.187  50.827  35.065  1.00  0.00     0.094 A 
ENDROOT
BRANCH   3  15
HETATM   15  N2  UNL     1      23.677  51.914  37.373  1.00  0.00    -0.381 N 
ATOM     16  H2  UNL     1      24.366  52.601  37.067  1.00  0.00     0.160 HD
BRANCH  15  17
HETATM   17  C9  UNL     1      23.789  51.279  38.667  1.00  0.00     0.081 C 
HETATM   18  C10 UNL     1      24.126  49.842  38.522  1.00  0.00     0.032 C 
BRANCH  17  19
HETATM   19  C11 UNL     1      24.911  51.973  39.437  1.00  0.00    -0.000 C 
HETATM   20  C12 UNL     1      24.803  51.664  40.909  1.00  0.00     0.011 C 
HETATM   21  C13 UNL     1      26.210  51.418  38.913  1.00  0.00     0.011 C 
ENDBRANCH  17  19
ENDBRANCH  15  17
ENDBRANCH   3  15
BRANCH   2  22
HETATM   22  O1  UNL     1      21.095  52.878  37.964  1.00  0.00    -0.344 OA
ATOM     23  H1  UNL     1      21.105  53.823  38.052  1.00  0.00     0.219 HD
ENDBRANCH   2  22
BRANCH   1  24
HETATM   24  C6  UNL     1      19.047  51.870  35.862  1.00  0.00     0.159 C 
BRANCH  24  25
HETATM   25  C5  UNL     1      18.186  50.697  35.938  1.00  0.00    -0.007 C 
HETATM   26  C4  UNL     1      16.853  50.645  36.493  1.00  0.00    -0.006 C 
BRANCH  26  27
HETATM   27  C3  UNL     1      16.491  50.676  37.903  1.00  0.00    -0.027 C 
BRANCH  27  28
HETATM   28  C2  UNL     1      17.315  50.367  39.059  1.00  0.00     0.022 C 
HETATM   29  C1  UNL     1      16.975  50.902  40.392  1.00  0.00     0.009 C 
ENDBRANCH  27  28
ENDBRANCH  26  27
ENDBRANCH  24  25
ENDBRANCH   1  24
BRANCH   6  30
HETATM   30  N3  UNL     1      25.460  50.276  35.468  1.00  0.00    -0.384 N 
ATOM     31  H32 UNL     1      25.022  50.878  36.166  1.00  0.00     0.157 HD
ATOM     32  H31 UNL     1      26.459  50.076  35.504  1.00  0.00     0.157 HD
ENDBRANCH   6  30
BRANCH   9  33
HETATM   33  N5  UNL     1      25.265  47.739  31.785  1.00  0.00    -0.234 N 
ATOM     34  H52 UNL     1      26.271  47.826  31.644  1.00  0.00     0.174 HD
ATOM     35  H51 UNL     1      24.761  47.055  31.220  1.00  0.00     0.174 HD
ENDBRANCH   9  33
TORSDOF 10
ENDMDL
