MODEL 1
REMARK VINA RESULT: -8.685978471      0.000      0.000
REMARK  11 active torsions:
REMARK  status: ('A' for Active; 'I' for Inactive)
REMARK    1  A    between atoms: C2_2  and  C3_3 
REMARK    2  A    between atoms: C3_3  and  C4_4 
REMARK    3  A    between atoms: C4_4  and  C5_5 
REMARK    4  A    between atoms: C5_5  and  C6_6 
REMARK    5  A    between atoms: C6_6  and  C7_7 
REMARK    6  A    between atoms: C7_7  and  O1_8 
REMARK    7  A    between atoms: O1_8  and  C8_9 
REMARK       I    between atoms: C8_9  and  N1_11 
REMARK    8  A    between atoms: N1_11  and  C9_13 
REMARK    9  A    between atoms: C13_19  and  O3_20 
REMARK   10  A    between atoms: C14_24  and  N4_25 
REMARK   11  A    between atoms: C18_33  and  O4_34 
ROOT
HETATM    1  C9  UNL     1      54.543   8.786  51.646  1.00  0.00     0.072 A 
HETATM    2  C10 UNL     1      55.314   7.651  51.846  1.00  0.00     0.064 A 
HETATM    3  C11 UNL     1      55.249   6.534  51.036  1.00  0.00     0.062 A 
HETATM    4  N2  UNL     1      56.036   5.446  51.285  1.00  0.00    -0.349 N 
ATOM      5  H2  UNL     1      56.677   5.462  52.078  1.00  0.00     0.166 HD
HETATM    6  C12 UNL     1      55.979   4.355  50.502  1.00  0.00     0.115 A 
HETATM    7  C13 UNL     1      56.607   3.123  50.464  1.00  0.00     0.171 A 
HETATM    8  N3  UNL     1      56.121   2.420  49.410  1.00  0.00    -0.320 N 
ATOM      9  H3  UNL     1      56.410   1.478  49.146  1.00  0.00     0.169 HD
HETATM   10  C14 UNL     1      55.199   3.158  48.766  1.00  0.00     0.130 A 
HETATM   11  C15 UNL     1      55.047   4.382  49.381  1.00  0.00     0.108 A 
HETATM   12  N5  UNL     1      54.293   5.477  49.175  1.00  0.00    -0.349 N 
ATOM     13  H5  UNL     1      53.643   5.488  48.388  1.00  0.00     0.166 HD
HETATM   14  C16 UNL     1      54.368   6.563  49.977  1.00  0.00     0.062 A 
HETATM   15  C17 UNL     1      53.596   7.686  49.768  1.00  0.00     0.070 A 
HETATM   16  C18 UNL     1      53.648   8.802  50.562  1.00  0.00     0.094 A 
ENDROOT
BRANCH   1  17
HETATM   17  N1  UNL     1      54.594   9.933  52.458  1.00  0.00    -0.300 N 
HETATM   18  C8  UNL     1      54.141  10.054  53.781  1.00  0.00     0.365 C 
HETATM   19  O2  UNL     1      53.619   9.161  54.450  1.00  0.00    -0.238 OA
ATOM     20  H1  UNL     1      55.006  10.767  52.040  1.00  0.00     0.171 HD
BRANCH  18  21
HETATM   21  O1  UNL     1      54.277  11.298  54.447  1.00  0.00    -0.304 OA
BRANCH  21  22
HETATM   22  C7  UNL     1      54.317  12.502  53.709  1.00  0.00     0.180 C 
BRANCH  22  23
HETATM   23  C6  UNL     1      55.674  13.125  53.752  1.00  0.00     0.027 C 
BRANCH  23  24
HETATM   24  C5  UNL     1      55.982  13.797  52.429  1.00  0.00     0.002 C 
BRANCH  24  25
HETATM   25  C4  UNL     1      57.403  13.521  52.004  1.00  0.00     0.000 C 
BRANCH  25  26
HETATM   26  C3  UNL     1      57.418  12.365  51.041  1.00  0.00    -0.000 C 
BRANCH  26  27
HETATM   27  C2  UNL     1      58.537  11.383  51.341  1.00  0.00    -0.005 C 
HETATM   28  C1  UNL     1      58.124  10.256  52.226  1.00  0.00     0.005 C 
ENDBRANCH  26  27
ENDBRANCH  25  26
ENDBRANCH  24  25
ENDBRANCH  23  24
ENDBRANCH  22  23
ENDBRANCH  21  22
ENDBRANCH  18  21
ENDBRANCH   1  17
BRANCH  16  29
HETATM   29  O4  UNL     1      52.852   9.922  50.320  1.00  0.00    -0.358 OA
ATOM     30  H4  UNL     1      53.209  10.678  49.871  1.00  0.00     0.217 HD
ENDBRANCH  16  29
BRANCH   7  31
HETATM   31  O3  UNL     1      57.580   2.686  51.369  1.00  0.00    -0.344 OA
ATOM     32  H3  UNL     1      57.419   2.123  52.117  1.00  0.00     0.219 HD
ENDBRANCH   7  31
BRANCH  10  33
HETATM   33  N4  UNL     1      54.567   2.744  47.722  1.00  0.00    -0.384 N 
ATOM     34  H42 UNL     1      54.926   2.724  46.768  1.00  0.00     0.157 HD
ATOM     35  H41 UNL     1      53.613   2.384  47.752  1.00  0.00     0.157 HD
ENDBRANCH  10  33
TORSDOF 11
ENDMDL
MODEL 2
REMARK VINA RESULT: -8.637595806      1.164      1.933
REMARK  11 active torsions:
REMARK  status: ('A' for Active; 'I' for Inactive)
REMARK    1  A    between atoms: C2_2  and  C3_3 
REMARK    2  A    between atoms: C3_3  and  C4_4 
REMARK    3  A    between atoms: C4_4  and  C5_5 
REMARK    4  A    between atoms: C5_5  and  C6_6 
REMARK    5  A    between atoms: C6_6  and  C7_7 
REMARK    6  A    between atoms: C7_7  and  O1_8 
REMARK    7  A    between atoms: O1_8  and  C8_9 
REMARK       I    between atoms: C8_9  and  N1_11 
REMARK    8  A    between atoms: N1_11  and  C9_13 
REMARK    9  A    between atoms: C13_19  and  O3_20 
REMARK   10  A    between atoms: C14_24  and  N4_25 
REMARK   11  A    between atoms: C18_33  and  O4_34 
ROOT
HETATM    1  C9  UNL     1      54.726   8.666  51.642  1.00  0.00     0.072 A 
HETATM    2  C10 UNL     1      55.470   7.510  51.825  1.00  0.00     0.064 A 
HETATM    3  C11 UNL     1      55.346   6.390  51.027  1.00  0.00     0.062 A 
HETATM    4  N2  UNL     1      56.108   5.281  51.259  1.00  0.00    -0.349 N 
ATOM      5  H2  UNL     1      56.775   5.284  52.031  1.00  0.00     0.166 HD
HETATM    6  C12 UNL     1      55.993   4.187  50.487  1.00  0.00     0.115 A 
HETATM    7  C13 UNL     1      56.583   2.936  50.439  1.00  0.00     0.171 A 
HETATM    8  N3  UNL     1      56.042   2.240  49.407  1.00  0.00    -0.320 N 
ATOM      9  H3  UNL     1      56.295   1.288  49.141  1.00  0.00     0.169 HD
HETATM   10  C14 UNL     1      55.122   3.001  48.788  1.00  0.00     0.130 A 
HETATM   11  C15 UNL     1      55.026   4.233  49.397  1.00  0.00     0.108 A 
HETATM   12  N5  UNL     1      54.298   5.348  49.207  1.00  0.00    -0.349 N 
ATOM     13  H5  UNL     1      53.624   5.373  48.442  1.00  0.00     0.166 HD
HETATM   14  C16 UNL     1      54.431   6.438  49.997  1.00  0.00     0.062 A 
HETATM   15  C17 UNL     1      53.686   7.581  49.805  1.00  0.00     0.070 A 
HETATM   16  C18 UNL     1      53.797   8.701  50.588  1.00  0.00     0.094 A 
ENDROOT
BRANCH   1  17
HETATM   17  N1  UNL     1      54.838   9.817  52.442  1.00  0.00    -0.300 N 
HETATM   18  C8  UNL     1      54.302  10.010  53.725  1.00  0.00     0.365 C 
HETATM   19  O2  UNL     1      53.639   9.191  54.361  1.00  0.00    -0.238 OA
ATOM     20  H1  UNL     1      55.367  10.595  52.048  1.00  0.00     0.171 HD
BRANCH  18  21
HETATM   21  O1  UNL     1      54.519  11.246  54.385  1.00  0.00    -0.304 OA
BRANCH  21  22
HETATM   22  C7  UNL     1      55.562  12.103  53.971  1.00  0.00     0.180 C 
BRANCH  22  23
HETATM   23  C6  UNL     1      55.030  13.375  53.396  1.00  0.00     0.027 C 
BRANCH  23  24
HETATM   24  C5  UNL     1      55.898  13.828  52.239  1.00  0.00     0.002 C 
BRANCH  24  25
HETATM   25  C4  UNL     1      57.162  14.483  52.739  1.00  0.00     0.000 C 
BRANCH  25  26
HETATM   26  C3  UNL     1      56.817  15.791  53.396  1.00  0.00    -0.000 C 
BRANCH  26  27
HETATM   27  C2  UNL     1      57.617  16.024  54.666  1.00  0.00    -0.005 C 
HETATM   28  C1  UNL     1      56.857  15.733  55.915  1.00  0.00     0.005 C 
ENDBRANCH  26  27
ENDBRANCH  25  26
ENDBRANCH  24  25
ENDBRANCH  23  24
ENDBRANCH  22  23
ENDBRANCH  21  22
ENDBRANCH  18  21
ENDBRANCH   1  17
BRANCH  16  29
HETATM   29  O4  UNL     1      53.026   9.841  50.363  1.00  0.00    -0.358 OA
ATOM     30  H4  UNL     1      52.124   9.763  50.076  1.00  0.00     0.217 HD
ENDBRANCH  16  29
BRANCH   7  31
HETATM   31  O3  UNL     1      57.573   2.477  51.315  1.00  0.00    -0.344 OA
ATOM     32  H3  UNL     1      57.458   2.342  52.248  1.00  0.00     0.219 HD
ENDBRANCH   7  31
BRANCH  10  33
HETATM   33  N4  UNL     1      54.444   2.598  47.768  1.00  0.00    -0.384 N 
ATOM     34  H42 UNL     1      54.783   2.520  46.810  1.00  0.00     0.157 HD
ATOM     35  H41 UNL     1      53.468   2.308  47.826  1.00  0.00     0.157 HD
ENDBRANCH  10  33
TORSDOF 11
ENDMDL
MODEL 3
REMARK VINA RESULT: -8.437518565      1.209      1.462
REMARK  11 active torsions:
REMARK  status: ('A' for Active; 'I' for Inactive)
REMARK    1  A    between atoms: C2_2  and  C3_3 
REMARK    2  A    between atoms: C3_3  and  C4_4 
REMARK    3  A    between atoms: C4_4  and  C5_5 
REMARK    4  A    between atoms: C5_5  and  C6_6 
REMARK    5  A    between atoms: C6_6  and  C7_7 
REMARK    6  A    between atoms: C7_7  and  O1_8 
REMARK    7  A    between atoms: O1_8  and  C8_9 
REMARK       I    between atoms: C8_9  and  N1_11 
REMARK    8  A    between atoms: N1_11  and  C9_13 
REMARK    9  A    between atoms: C13_19  and  O3_20 
REMARK   10  A    between atoms: C14_24  and  N4_25 
REMARK   11  A    between atoms: C18_33  and  O4_34 
ROOT
HETATM    1  C9  UNL     1      54.310   9.173  51.405  1.00  0.00     0.072 A 
HETATM    2  C10 UNL     1      55.030   8.047  51.037  1.00  0.00     0.064 A 
HETATM    3  C11 UNL     1      54.527   7.054  50.219  1.00  0.00     0.062 A 
HETATM    4  N2  UNL     1      55.287   5.968  49.893  1.00  0.00    -0.349 N 
ATOM      5  H2  UNL     1      56.237   5.893  50.258  1.00  0.00     0.166 HD
HETATM    6  C12 UNL     1      54.804   4.997  49.098  1.00  0.00     0.115 A 
HETATM    7  C13 UNL     1      55.279   3.804  48.583  1.00  0.00     0.171 A 
HETATM    8  N3  UNL     1      54.306   3.242  47.822  1.00  0.00    -0.320 N 
ATOM      9  H3  UNL     1      54.387   2.356  47.322  1.00  0.00     0.169 HD
HETATM   10  C14 UNL     1      53.219   4.033  47.829  1.00  0.00     0.130 A 
HETATM   11  C15 UNL     1      53.442   5.153  48.601  1.00  0.00     0.108 A 
HETATM   12  N5  UNL     1      52.732   6.240  48.950  1.00  0.00    -0.349 N 
ATOM     13  H5  UNL     1      51.779   6.342  48.598  1.00  0.00     0.166 HD
HETATM   14  C16 UNL     1      53.239   7.204  49.751  1.00  0.00     0.062 A 
HETATM   15  C17 UNL     1      52.513   8.319  50.110  1.00  0.00     0.070 A 
HETATM   16  C18 UNL     1      52.999   9.313  50.921  1.00  0.00     0.094 A 
ENDROOT
BRANCH   1  17
HETATM   17  N1  UNL     1      54.805  10.195  52.235  1.00  0.00    -0.300 N 
HETATM   18  C8  UNL     1      54.655  10.300  53.626  1.00  0.00     0.365 C 
HETATM   19  O2  UNL     1      54.058   9.504  54.351  1.00  0.00    -0.238 OA
ATOM     20  H1  UNL     1      55.329  10.939  51.776  1.00  0.00     0.171 HD
BRANCH  18  21
HETATM   21  O1  UNL     1      55.227  11.409  54.301  1.00  0.00    -0.304 OA
BRANCH  21  22
HETATM   22  C7  UNL     1      54.813  12.724  53.992  1.00  0.00     0.180 C 
BRANCH  22  23
HETATM   23  C6  UNL     1      55.980  13.619  53.731  1.00  0.00     0.027 C 
BRANCH  23  24
HETATM   24  C5  UNL     1      56.098  13.905  52.248  1.00  0.00     0.002 C 
BRANCH  24  25
HETATM   25  C4  UNL     1      57.496  13.622  51.755  1.00  0.00     0.000 C 
BRANCH  25  26
HETATM   26  C3  UNL     1      57.502  12.323  50.996  1.00  0.00    -0.000 C 
BRANCH  26  27
HETATM   27  C2  UNL     1      58.646  11.418  51.416  1.00  0.00    -0.005 C 
HETATM   28  C1  UNL     1      58.229  10.011  51.685  1.00  0.00     0.005 C 
ENDBRANCH  26  27
ENDBRANCH  25  26
ENDBRANCH  24  25
ENDBRANCH  23  24
ENDBRANCH  22  23
ENDBRANCH  21  22
ENDBRANCH  18  21
ENDBRANCH   1  17
BRANCH  16  29
HETATM   29  O4  UNL     1      52.234  10.429  51.263  1.00  0.00    -0.358 OA
ATOM     30  H4  UNL     1      51.476  10.338  51.828  1.00  0.00     0.217 HD
ENDBRANCH  16  29
BRANCH   7  31
HETATM   31  O3  UNL     1      56.553   3.275  48.816  1.00  0.00    -0.344 OA
ATOM     32  H3  UNL     1      57.121   3.515  49.539  1.00  0.00     0.219 HD
ENDBRANCH   7  31
BRANCH  10  33
HETATM   33  N4  UNL     1      52.136   3.751  47.189  1.00  0.00    -0.384 N 
ATOM     34  H42 UNL     1      52.074   3.285  46.284  1.00  0.00     0.157 HD
ATOM     35  H41 UNL     1      51.205   3.974  47.540  1.00  0.00     0.157 HD
ENDBRANCH  10  33
TORSDOF 11
ENDMDL
MODEL 4
REMARK VINA RESULT: -8.421062270      1.662      2.456
REMARK  11 active torsions:
REMARK  status: ('A' for Active; 'I' for Inactive)
REMARK    1  A    between atoms: C2_2  and  C3_3 
REMARK    2  A    between atoms: C3_3  and  C4_4 
REMARK    3  A    between atoms: C4_4  and  C5_5 
REMARK    4  A    between atoms: C5_5  and  C6_6 
REMARK    5  A    between atoms: C6_6  and  C7_7 
REMARK    6  A    between atoms: C7_7  and  O1_8 
REMARK    7  A    between atoms: O1_8  and  C8_9 
REMARK       I    between atoms: C8_9  and  N1_11 
REMARK    8  A    between atoms: N1_11  and  C9_13 
REMARK    9  A    between atoms: C13_19  and  O3_20 
REMARK   10  A    between atoms: C14_24  and  N4_25 
REMARK   11  A    between atoms: C18_33  and  O4_34 
ROOT
HETATM    1  C9  UNL     1      54.304   8.922  51.428  1.00  0.00     0.072 A 
HETATM    2  C10 UNL     1      54.937   7.734  51.098  1.00  0.00     0.064 A 
HETATM    3  C11 UNL     1      54.392   6.791  50.248  1.00  0.00     0.062 A 
HETATM    4  N2  UNL     1      55.065   5.639  49.961  1.00  0.00    -0.349 N 
ATOM      5  H2  UNL     1      55.981   5.475  50.380  1.00  0.00     0.166 HD
HETATM    6  C12 UNL     1      54.542   4.716  49.135  1.00  0.00     0.115 A 
HETATM    7  C13 UNL     1      54.933   3.483  48.644  1.00  0.00     0.171 A 
HETATM    8  N3  UNL     1      53.958   3.013  47.826  1.00  0.00    -0.320 N 
ATOM      9  H3  UNL     1      53.985   2.123  47.327  1.00  0.00     0.169 HD
HETATM   10  C14 UNL     1      52.951   3.902  47.772  1.00  0.00     0.130 A 
HETATM   11  C15 UNL     1      53.232   4.997  48.561  1.00  0.00     0.108 A 
HETATM   12  N5  UNL     1      52.606   6.146  48.873  1.00  0.00    -0.349 N 
ATOM     13  H5  UNL     1      51.689   6.335  48.466  1.00  0.00     0.166 HD
HETATM   14  C16 UNL     1      53.153   7.060  49.706  1.00  0.00     0.062 A 
HETATM   15  C17 UNL     1      52.514   8.238  50.027  1.00  0.00     0.070 A 
HETATM   16  C18 UNL     1      53.042   9.183  50.869  1.00  0.00     0.094 A 
ENDROOT
BRANCH   1  17
HETATM   17  N1  UNL     1      54.842   9.894  52.290  1.00  0.00    -0.300 N 
HETATM   18  C8  UNL     1      54.593  10.037  53.663  1.00  0.00     0.365 C 
HETATM   19  O2  UNL     1      53.853   9.324  54.341  1.00  0.00    -0.238 OA
ATOM     20  H1  UNL     1      55.483  10.568  51.871  1.00  0.00     0.171 HD
BRANCH  18  21
HETATM   21  O1  UNL     1      55.230  11.085  54.376  1.00  0.00    -0.304 OA
BRANCH  21  22
HETATM   22  C7  UNL     1      55.939  12.091  53.683  1.00  0.00     0.180 C 
BRANCH  22  23
HETATM   23  C6  UNL     1      55.088  13.297  53.449  1.00  0.00     0.027 C 
BRANCH  23  24
HETATM   24  C5  UNL     1      55.626  14.096  52.278  1.00  0.00     0.002 C 
BRANCH  24  25
HETATM   25  C4  UNL     1      56.980  14.677  52.601  1.00  0.00     0.000 C 
BRANCH  25  26
HETATM   26  C3  UNL     1      56.801  15.941  53.398  1.00  0.00    -0.000 C 
BRANCH  26  27
HETATM   27  C2  UNL     1      57.625  15.936  54.673  1.00  0.00    -0.005 C 
HETATM   28  C1  UNL     1      56.810  15.791  55.913  1.00  0.00     0.005 C 
ENDBRANCH  26  27
ENDBRANCH  25  26
ENDBRANCH  24  25
ENDBRANCH  23  24
ENDBRANCH  22  23
ENDBRANCH  21  22
ENDBRANCH  18  21
ENDBRANCH   1  17
BRANCH  16  29
HETATM   29  O4  UNL     1      52.366  10.366  51.171  1.00  0.00    -0.358 OA
ATOM     30  H4  UNL     1      52.180  11.001  50.489  1.00  0.00     0.217 HD
ENDBRANCH  16  29
BRANCH   7  31
HETATM   31  O3  UNL     1      56.136   2.838  48.949  1.00  0.00    -0.344 OA
ATOM     32  H3  UNL     1      56.586   2.223  48.382  1.00  0.00     0.219 HD
ENDBRANCH   7  31
BRANCH  10  33
HETATM   33  N4  UNL     1      51.886   3.721  47.069  1.00  0.00    -0.384 N 
ATOM     34  H42 UNL     1      51.714   4.078  46.130  1.00  0.00     0.157 HD
ATOM     35  H41 UNL     1      51.084   3.183  47.398  1.00  0.00     0.157 HD
ENDBRANCH  10  33
TORSDOF 11
ENDMDL
MODEL 5
REMARK VINA RESULT: -8.387590912      2.152      2.966
REMARK  11 active torsions:
REMARK  status: ('A' for Active; 'I' for Inactive)
REMARK    1  A    between atoms: C2_2  and  C3_3 
REMARK    2  A    between atoms: C3_3  and  C4_4 
REMARK    3  A    between atoms: C4_4  and  C5_5 
REMARK    4  A    between atoms: C5_5  and  C6_6 
REMARK    5  A    between atoms: C6_6  and  C7_7 
REMARK    6  A    between atoms: C7_7  and  O1_8 
REMARK    7  A    between atoms: O1_8  and  C8_9 
REMARK       I    between atoms: C8_9  and  N1_11 
REMARK    8  A    between atoms: N1_11  and  C9_13 
REMARK    9  A    between atoms: C13_19  and  O3_20 
REMARK   10  A    between atoms: C14_24  and  N4_25 
REMARK   11  A    between atoms: C18_33  and  O4_34 
ROOT
HETATM    1  C9  UNL     1      54.423   9.157  51.445  1.00  0.00     0.072 A 
HETATM    2  C10 UNL     1      55.124   8.019  51.077  1.00  0.00     0.064 A 
HETATM    3  C11 UNL     1      54.607   7.039  50.252  1.00  0.00     0.062 A 
HETATM    4  N2  UNL     1      55.349   5.941  49.925  1.00  0.00    -0.349 N 
ATOM      5  H2  UNL     1      56.295   5.846  50.295  1.00  0.00     0.166 HD
HETATM    6  C12 UNL     1      54.853   4.982  49.123  1.00  0.00     0.115 A 
HETATM    7  C13 UNL     1      55.309   3.782  48.607  1.00  0.00     0.171 A 
HETATM    8  N3  UNL     1      54.330   3.241  47.838  1.00  0.00    -0.320 N 
ATOM      9  H3  UNL     1      54.398   2.357  47.334  1.00  0.00     0.169 HD
HETATM   10  C14 UNL     1      53.258   4.053  47.841  1.00  0.00     0.130 A 
HETATM   11  C15 UNL     1      53.497   5.165  48.619  1.00  0.00     0.108 A 
HETATM   12  N5  UNL     1      52.805   6.264  48.968  1.00  0.00    -0.349 N 
ATOM     13  H5  UNL     1      51.857   6.384  48.611  1.00  0.00     0.166 HD
HETATM   14  C16 UNL     1      53.325   7.215  49.777  1.00  0.00     0.062 A 
HETATM   15  C17 UNL     1      52.617   8.342  50.136  1.00  0.00     0.070 A 
HETATM   16  C18 UNL     1      53.117   9.324  50.953  1.00  0.00     0.094 A 
ENDROOT
BRANCH   1  17
HETATM   17  N1  UNL     1      54.931  10.166  52.282  1.00  0.00    -0.300 N 
HETATM   18  C8  UNL     1      54.728  10.299  53.664  1.00  0.00     0.365 C 
HETATM   19  O2  UNL     1      54.063   9.543  54.373  1.00  0.00    -0.238 OA
ATOM     20  H1  UNL     1      55.510  10.877  51.836  1.00  0.00     0.171 HD
BRANCH  18  21
HETATM   21  O1  UNL     1      55.324  11.390  54.348  1.00  0.00    -0.304 OA
BRANCH  21  22
HETATM   22  C7  UNL     1      56.049  12.369  53.635  1.00  0.00     0.180 C 
BRANCH  22  23
HETATM   23  C6  UNL     1      55.645  13.750  54.037  1.00  0.00     0.027 C 
BRANCH  23  24
HETATM   24  C5  UNL     1      56.805  14.708  53.854  1.00  0.00     0.002 C 
BRANCH  24  25
HETATM   25  C4  UNL     1      56.998  15.560  55.084  1.00  0.00     0.000 C 
BRANCH  25  26
HETATM   26  C3  UNL     1      58.025  16.621  54.797  1.00  0.00    -0.000 C 
BRANCH  26  27
HETATM   27  C2  UNL     1      57.438  17.797  54.036  1.00  0.00    -0.005 C 
HETATM   28  C1  UNL     1      58.293  19.018  54.068  1.00  0.00     0.005 C 
ENDBRANCH  26  27
ENDBRANCH  25  26
ENDBRANCH  24  25
ENDBRANCH  23  24
ENDBRANCH  22  23
ENDBRANCH  21  22
ENDBRANCH  18  21
ENDBRANCH   1  17
BRANCH  16  29
HETATM   29  O4  UNL     1      52.371  10.452  51.296  1.00  0.00    -0.358 OA
ATOM     30  H4  UNL     1      51.547  10.362  51.760  1.00  0.00     0.217 HD
ENDBRANCH  16  29
BRANCH   7  31
HETATM   31  O3  UNL     1      56.571   3.229  48.845  1.00  0.00    -0.344 OA
ATOM     32  H3  UNL     1      56.797   2.313  48.734  1.00  0.00     0.219 HD
ENDBRANCH   7  31
BRANCH  10  33
HETATM   33  N4  UNL     1      52.174   3.793  47.193  1.00  0.00    -0.384 N 
ATOM     34  H42 UNL     1      52.072   3.125  46.430  1.00  0.00     0.157 HD
ATOM     35  H41 UNL     1      51.283   4.248  47.390  1.00  0.00     0.157 HD
ENDBRANCH  10  33
TORSDOF 11
ENDMDL
