MODEL 1
REMARK VINA RESULT: -9.226003446      0.000      0.000
REMARK  9 active torsions:
REMARK  status: ('A' for Active; 'I' for Inactive)
REMARK    1  A    between atoms: C2_2  and  C3_3 
REMARK    2  A    between atoms: C3_3  and  N1_4 
REMARK    3  A    between atoms: N1_4  and  C4_5 
REMARK    4  A    between atoms: N1_4  and  C15_22 
REMARK    5  A    between atoms: C4_5  and  C5_6 
REMARK    6  A    between atoms: C7_8  and  N2_9 
REMARK    7  A    between atoms: C15_22  and  C16_23 
REMARK    8  A    between atoms: C18_27  and  N5_28 
REMARK    9  A    between atoms: C19_33  and  N7_34 
ROOT
HETATM    1  N1  UNL     1      54.982  11.871  52.718  1.00  0.00     0.097 N 
ENDROOT
BRANCH   1   2
HETATM    2  C3  UNL     1      53.756  11.304  53.200  1.00  0.00     0.273 C 
BRANCH   2   3
HETATM    3  C2  UNL     1      53.131  11.991  54.383  1.00  0.00     0.026 C 
HETATM    4  C1  UNL     1      52.400  11.127  55.337  1.00  0.00     0.007 C 
ENDBRANCH   2   3
ENDBRANCH   1   2
BRANCH   1   5
HETATM    5  C4  UNL     1      54.699  13.092  52.033  1.00  0.00     0.311 C 
BRANCH   5   6
HETATM    6  C5  UNL     1      55.416  14.285  52.453  1.00  0.00    -0.025 A 
HETATM    7  C6  UNL     1      56.043  14.349  53.681  1.00  0.00     0.040 A 
HETATM    8  C7  UNL     1      56.715  15.482  54.116  1.00  0.00     0.061 A 
HETATM    9  C8  UNL     1      56.737  16.570  53.265  1.00  0.00     0.034 A 
HETATM   10  C9  UNL     1      57.298  17.818  53.393  1.00  0.00    -0.017 A 
HETATM   11  C13 UNL     1      56.120  16.561  52.015  1.00  0.00     0.089 A 
HETATM   12  C10 UNL     1      58.065  18.272  54.584  1.00  0.00     0.052 C 
HETATM   13  C11 UNL     1      57.005  18.511  52.229  1.00  0.00     0.056 A 
HETATM   14  C12 UNL     1      57.450  19.924  51.996  1.00  0.00     0.077 C 
HETATM   15  O1  UNL     1      56.312  17.734  51.444  1.00  0.00    -0.314 OA
HETATM   16  C14 UNL     1      55.477  15.396  51.662  1.00  0.00     0.047 A 
BRANCH   8  17
HETATM   17  N2  UNL     1      57.360  15.560  55.374  1.00  0.00    -0.306 N 
HETATM   18  N3  UNL     1      56.630  15.760  56.391  1.00  0.00    -0.345 N 
ATOM     19  H32 UNL     1      55.620  15.859  56.290  1.00  0.00     0.176 HD
ATOM     20  H31 UNL     1      57.095  15.816  57.297  1.00  0.00     0.176 HD
ATOM     21  H2  UNL     1      58.371  15.459  55.459  1.00  0.00     0.186 HD
ENDBRANCH   8  17
ENDBRANCH   5   6
ENDBRANCH   1   5
BRANCH   1  22
HETATM   22  C15 UNL     1      55.638  10.943  51.868  1.00  0.00     0.316 C 
BRANCH  22  23
HETATM   23  C16 UNL     1      56.428   9.875  52.494  1.00  0.00     0.030 A 
HETATM   24  C17 UNL     1      57.260  10.176  53.564  1.00  0.00     0.118 A 
HETATM   25  N4  UNL     1      58.047   9.182  54.036  1.00  0.00    -0.201 N 
HETATM   26  C18 UNL     1      58.061   7.933  53.527  1.00  0.00     0.677 A 
ATOM     27  H4  UNL     1      58.665   9.389  54.821  1.00  0.00     0.183 HD
HETATM   28  N6  UNL     1      57.251   7.630  52.490  1.00  0.00    -0.177 N 
HETATM   29  C19 UNL     1      56.451   8.577  51.982  1.00  0.00     0.124 A 
ATOM     30  H6  UNL     1      57.249   6.688  52.096  1.00  0.00     0.185 HD
BRANCH  26  31
HETATM   31  N5  UNL     1      58.851   7.061  54.041  1.00  0.00    -0.234 N 
ATOM     32  H52 UNL     1      59.153   6.240  53.516  1.00  0.00     0.174 HD
ATOM     33  H51 UNL     1      59.185   7.196  54.995  1.00  0.00     0.174 HD
ENDBRANCH  26  31
BRANCH  29  34
HETATM   34  N7  UNL     1      55.631   8.330  51.037  1.00  0.00    -0.385 N 
ATOM     35  H72 UNL     1      54.836   8.938  50.841  1.00  0.00     0.157 HD
ATOM     36  H71 UNL     1      55.839   7.513  50.463  1.00  0.00     0.157 HD
ENDBRANCH  29  34
ENDBRANCH  22  23
ENDBRANCH   1  22
TORSDOF 9
ENDMDL
MODEL 2
REMARK VINA RESULT: -8.746788439      0.891      1.307
REMARK  9 active torsions:
REMARK  status: ('A' for Active; 'I' for Inactive)
REMARK    1  A    between atoms: C2_2  and  C3_3 
REMARK    2  A    between atoms: C3_3  and  N1_4 
REMARK    3  A    between atoms: N1_4  and  C4_5 
REMARK    4  A    between atoms: N1_4  and  C15_22 
REMARK    5  A    between atoms: C4_5  and  C5_6 
REMARK    6  A    between atoms: C7_8  and  N2_9 
REMARK    7  A    between atoms: C15_22  and  C16_23 
REMARK    8  A    between atoms: C18_27  and  N5_28 
REMARK    9  A    between atoms: C19_33  and  N7_34 
ROOT
HETATM    1  N1  UNL     1      55.686  12.055  52.605  1.00  0.00     0.097 N 
ENDROOT
BRANCH   1   2
HETATM    2  C3  UNL     1      54.779  11.520  53.579  1.00  0.00     0.273 C 
BRANCH   2   3
HETATM    3  C2  UNL     1      53.348  11.966  53.464  1.00  0.00     0.026 C 
HETATM    4  C1  UNL     1      52.703  12.441  54.708  1.00  0.00     0.007 C 
ENDBRANCH   2   3
ENDBRANCH   1   2
BRANCH   1   5
HETATM    5  C4  UNL     1      55.149  13.269  52.079  1.00  0.00     0.311 C 
BRANCH   5   6
HETATM    6  C5  UNL     1      55.761  14.518  52.502  1.00  0.00    -0.025 A 
HETATM    7  C6  UNL     1      56.342  14.646  53.748  1.00  0.00     0.040 A 
HETATM    8  C7  UNL     1      56.913  15.832  54.185  1.00  0.00     0.061 A 
HETATM    9  C8  UNL     1      56.881  16.907  53.318  1.00  0.00     0.034 A 
HETATM   10  C9  UNL     1      57.344  18.195  53.443  1.00  0.00    -0.017 A 
HETATM   11  C13 UNL     1      56.307  16.835  52.050  1.00  0.00     0.089 A 
HETATM   12  C10 UNL     1      58.036  18.722  54.649  1.00  0.00     0.052 C 
HETATM   13  C11 UNL     1      57.037  18.849  52.260  1.00  0.00     0.056 A 
HETATM   14  C12 UNL     1      57.383  20.288  52.018  1.00  0.00     0.077 C 
HETATM   15  O1  UNL     1      56.429  18.011  51.466  1.00  0.00    -0.314 OA
HETATM   16  C14 UNL     1      55.764  15.620  51.696  1.00  0.00     0.047 A 
BRANCH   8  17
HETATM   17  N2  UNL     1      57.510  15.976  55.461  1.00  0.00    -0.306 N 
HETATM   18  N3  UNL     1      56.748  15.897  56.472  1.00  0.00    -0.345 N 
ATOM     19  H32 UNL     1      55.748  15.736  56.353  1.00  0.00     0.176 HD
ATOM     20  H31 UNL     1      57.179  16.000  57.391  1.00  0.00     0.176 HD
ATOM     21  H2  UNL     1      58.512  16.136  55.563  1.00  0.00     0.186 HD
ENDBRANCH   8  17
ENDBRANCH   5   6
ENDBRANCH   1   5
BRANCH   1  22
HETATM   22  C15 UNL     1      55.904  11.100  51.577  1.00  0.00     0.316 C 
BRANCH  22  23
HETATM   23  C16 UNL     1      56.390   9.771  51.965  1.00  0.00     0.030 A 
HETATM   24  C17 UNL     1      55.483   8.732  52.134  1.00  0.00     0.118 A 
HETATM   25  N4  UNL     1      55.967   7.556  52.595  1.00  0.00    -0.201 N 
HETATM   26  C18 UNL     1      57.265   7.346  52.893  1.00  0.00     0.677 A 
ATOM     27  H4  UNL     1      55.312   6.785  52.726  1.00  0.00     0.183 HD
HETATM   28  N6  UNL     1      58.155   8.348  52.727  1.00  0.00    -0.177 N 
HETATM   29  C19 UNL     1      57.731   9.535  52.273  1.00  0.00     0.124 A 
ATOM     30  H6  UNL     1      59.142   8.203  52.945  1.00  0.00     0.185 HD
BRANCH  26  31
HETATM   31  N5  UNL     1      57.625   6.195  53.333  1.00  0.00    -0.234 N 
ATOM     32  H52 UNL     1      57.511   5.938  54.313  1.00  0.00     0.174 HD
ATOM     33  H51 UNL     1      58.030   5.521  52.684  1.00  0.00     0.174 HD
ENDBRANCH  26  31
BRANCH  29  34
HETATM   34  N7  UNL     1      58.536  10.499  52.051  1.00  0.00    -0.385 N 
ATOM     35  H72 UNL     1      58.551  10.995  51.160  1.00  0.00     0.157 HD
ATOM     36  H71 UNL     1      59.138  10.771  52.829  1.00  0.00     0.157 HD
ENDBRANCH  29  34
ENDBRANCH  22  23
ENDBRANCH   1  22
TORSDOF 9
ENDMDL
MODEL 3
REMARK VINA RESULT: -8.741215222      0.969      1.127
REMARK  9 active torsions:
REMARK  status: ('A' for Active; 'I' for Inactive)
REMARK    1  A    between atoms: C2_2  and  C3_3 
REMARK    2  A    between atoms: C3_3  and  N1_4 
REMARK    3  A    between atoms: N1_4  and  C4_5 
REMARK    4  A    between atoms: N1_4  and  C15_22 
REMARK    5  A    between atoms: C4_5  and  C5_6 
REMARK    6  A    between atoms: C7_8  and  N2_9 
REMARK    7  A    between atoms: C15_22  and  C16_23 
REMARK    8  A    between atoms: C18_27  and  N5_28 
REMARK    9  A    between atoms: C19_33  and  N7_34 
ROOT
HETATM    1  N1  UNL     1      55.463  12.070  52.597  1.00  0.00     0.097 N 
ENDROOT
BRANCH   1   2
HETATM    2  C3  UNL     1      54.866  11.812  53.876  1.00  0.00     0.273 C 
BRANCH   2   3
HETATM    3  C2  UNL     1      53.386  12.062  53.974  1.00  0.00     0.026 C 
HETATM    4  C1  UNL     1      52.637  11.213  54.928  1.00  0.00     0.007 C 
ENDBRANCH   2   3
ENDBRANCH   1   2
BRANCH   1   5
HETATM    5  C4  UNL     1      54.964  13.305  52.084  1.00  0.00     0.311 C 
BRANCH   5   6
HETATM    6  C5  UNL     1      55.639  14.527  52.487  1.00  0.00    -0.025 A 
HETATM    7  C6  UNL     1      56.256  14.633  53.718  1.00  0.00     0.040 A 
HETATM    8  C7  UNL     1      56.889  15.794  54.138  1.00  0.00     0.061 A 
HETATM    9  C8  UNL     1      56.882  16.867  53.268  1.00  0.00     0.034 A 
HETATM   10  C9  UNL     1      57.403  18.134  53.377  1.00  0.00    -0.017 A 
HETATM   11  C13 UNL     1      56.275  16.817  52.014  1.00  0.00     0.089 A 
HETATM   12  C10 UNL     1      58.146  18.633  54.564  1.00  0.00     0.052 C 
HETATM   13  C11 UNL     1      57.096  18.798  52.200  1.00  0.00     0.056 A 
HETATM   14  C12 UNL     1      57.497  20.220  51.945  1.00  0.00     0.077 C 
HETATM   15  O1  UNL     1      56.433  17.985  51.424  1.00  0.00    -0.314 OA
HETATM   16  C14 UNL     1      55.671  15.626  51.678  1.00  0.00     0.047 A 
BRANCH   8  17
HETATM   17  N2  UNL     1      57.522  15.914  55.398  1.00  0.00    -0.306 N 
HETATM   18  N3  UNL     1      56.794  15.798  56.429  1.00  0.00    -0.345 N 
ATOM     19  H32 UNL     1      55.793  15.625  56.337  1.00  0.00     0.176 HD
ATOM     20  H31 UNL     1      57.251  15.885  57.337  1.00  0.00     0.176 HD
ATOM     21  H2  UNL     1      58.525  16.087  55.473  1.00  0.00     0.186 HD
ENDBRANCH   8  17
ENDBRANCH   5   6
ENDBRANCH   1   5
BRANCH   1  22
HETATM   22  C15 UNL     1      55.186  10.994  51.713  1.00  0.00     0.316 C 
BRANCH  22  23
HETATM   23  C16 UNL     1      55.675   9.660  52.077  1.00  0.00     0.030 A 
HETATM   24  C17 UNL     1      57.042   9.432  52.168  1.00  0.00     0.118 A 
HETATM   25  N4  UNL     1      57.444   8.162  52.399  1.00  0.00    -0.201 N 
HETATM   26  C18 UNL     1      56.597   7.123  52.547  1.00  0.00     0.677 A 
ATOM     27  H4  UNL     1      58.446   7.979  52.467  1.00  0.00     0.183 HD
HETATM   28  N6  UNL     1      55.266   7.335  52.465  1.00  0.00    -0.177 N 
HETATM   29  C19 UNL     1      54.811   8.574  52.236  1.00  0.00     0.124 A 
ATOM     30  H6  UNL     1      54.613   6.559  52.577  1.00  0.00     0.185 HD
BRANCH  26  31
HETATM   31  N5  UNL     1      57.079   5.951  52.757  1.00  0.00    -0.234 N 
ATOM     32  H52 UNL     1      57.799   5.788  53.460  1.00  0.00     0.174 HD
ATOM     33  H51 UNL     1      56.729   5.166  52.208  1.00  0.00     0.174 HD
ENDBRANCH  26  31
BRANCH  29  34
HETATM   34  N7  UNL     1      53.564   8.838  52.199  1.00  0.00    -0.385 N 
ATOM     35  H72 UNL     1      53.099   9.351  52.949  1.00  0.00     0.157 HD
ATOM     36  H71 UNL     1      53.066   8.542  51.360  1.00  0.00     0.157 HD
ENDBRANCH  29  34
ENDBRANCH  22  23
ENDBRANCH   1  22
TORSDOF 9
ENDMDL
MODEL 4
REMARK VINA RESULT: -8.477592167      3.108      7.487
REMARK  9 active torsions:
REMARK  status: ('A' for Active; 'I' for Inactive)
REMARK    1  A    between atoms: C2_2  and  C3_3 
REMARK    2  A    between atoms: C3_3  and  N1_4 
REMARK    3  A    between atoms: N1_4  and  C4_5 
REMARK    4  A    between atoms: N1_4  and  C15_22 
REMARK    5  A    between atoms: C4_5  and  C5_6 
REMARK    6  A    between atoms: C7_8  and  N2_9 
REMARK    7  A    between atoms: C15_22  and  C16_23 
REMARK    8  A    between atoms: C18_27  and  N5_28 
REMARK    9  A    between atoms: C19_33  and  N7_34 
ROOT
HETATM    1  N1  UNL     1      56.713  13.142  52.373  1.00  0.00     0.097 N 
ENDROOT
BRANCH   1   2
HETATM    2  C3  UNL     1      57.356  14.425  52.371  1.00  0.00     0.273 C 
BRANCH   2   3
HETATM    3  C2  UNL     1      56.777  15.453  53.303  1.00  0.00     0.026 C 
HETATM    4  C1  UNL     1      56.924  15.187  54.752  1.00  0.00     0.007 C 
ENDBRANCH   2   3
ENDBRANCH   1   2
BRANCH   1   5
HETATM    5  C4  UNL     1      57.479  12.231  51.584  1.00  0.00     0.311 C 
BRANCH   5   6
HETATM    6  C5  UNL     1      57.451  10.826  51.954  1.00  0.00    -0.025 A 
HETATM    7  C6  UNL     1      56.756   9.900  51.202  1.00  0.00     0.040 A 
HETATM    8  C7  UNL     1      56.692   8.557  51.544  1.00  0.00     0.061 A 
HETATM    9  C8  UNL     1      57.361   8.164  52.688  1.00  0.00     0.034 A 
HETATM   10  C9  UNL     1      57.490   6.938  53.294  1.00  0.00    -0.017 A 
HETATM   11  C13 UNL     1      58.077   9.056  53.485  1.00  0.00     0.089 A 
HETATM   12  C10 UNL     1      56.881   5.683  52.780  1.00  0.00     0.052 C 
HETATM   13  C11 UNL     1      58.272   7.128  54.423  1.00  0.00     0.056 A 
HETATM   14  C12 UNL     1      58.633   6.009  55.354  1.00  0.00     0.077 C 
HETATM   15  O1  UNL     1      58.597   8.389  54.497  1.00  0.00    -0.314 OA
HETATM   16  C14 UNL     1      58.088  10.369  53.072  1.00  0.00     0.047 A 
BRANCH   8  17
HETATM   17  N2  UNL     1      55.981   7.600  50.782  1.00  0.00    -0.306 N 
HETATM   18  N3  UNL     1      54.801   7.897  50.429  1.00  0.00    -0.345 N 
ATOM     19  H32 UNL     1      54.394   8.795  50.692  1.00  0.00     0.176 HD
ATOM     20  H31 UNL     1      54.288   7.207  49.879  1.00  0.00     0.176 HD
ATOM     21  H2  UNL     1      56.402   6.706  50.526  1.00  0.00     0.186 HD
ENDBRANCH   8  17
ENDBRANCH   5   6
ENDBRANCH   1   5
BRANCH   1  22
HETATM   22  C15 UNL     1      55.390  13.268  51.875  1.00  0.00     0.316 C 
BRANCH  22  23
HETATM   23  C16 UNL     1      54.315  12.577  52.597  1.00  0.00     0.030 A 
HETATM   24  C17 UNL     1      54.053  12.911  53.919  1.00  0.00     0.118 A 
HETATM   25  N4  UNL     1      53.127  12.172  54.572  1.00  0.00    -0.201 N 
HETATM   26  C18 UNL     1      52.455  11.146  54.011  1.00  0.00     0.677 A 
ATOM     27  H4  UNL     1      52.924  12.405  55.545  1.00  0.00     0.183 HD
HETATM   28  N6  UNL     1      52.700  10.818  52.724  1.00  0.00    -0.177 N 
HETATM   29  C19 UNL     1      53.608  11.515  52.029  1.00  0.00     0.124 A 
ATOM     30  H6  UNL     1      52.197  10.045  52.285  1.00  0.00     0.185 HD
BRANCH  26  31
HETATM   31  N5  UNL     1      51.600  10.500  54.718  1.00  0.00    -0.234 N 
ATOM     32  H52 UNL     1      50.660  10.862  54.882  1.00  0.00     0.174 HD
ATOM     33  H51 UNL     1      51.868   9.603  55.122  1.00  0.00     0.174 HD
ENDBRANCH  26  31
BRANCH  29  34
HETATM   34  N7  UNL     1      53.841  11.280  50.797  1.00  0.00    -0.385 N 
ATOM     35  H72 UNL     1      54.118  10.355  50.468  1.00  0.00     0.157 HD
ATOM     36  H71 UNL     1      53.695  12.059  50.155  1.00  0.00     0.157 HD
ENDBRANCH  29  34
ENDBRANCH  22  23
ENDBRANCH   1  22
TORSDOF 9
ENDMDL
MODEL 5
REMARK VINA RESULT: -8.430071957      1.840      3.588
REMARK  9 active torsions:
REMARK  status: ('A' for Active; 'I' for Inactive)
REMARK    1  A    between atoms: C2_2  and  C3_3 
REMARK    2  A    between atoms: C3_3  and  N1_4 
REMARK    3  A    between atoms: N1_4  and  C4_5 
REMARK    4  A    between atoms: N1_4  and  C15_22 
REMARK    5  A    between atoms: C4_5  and  C5_6 
REMARK    6  A    between atoms: C7_8  and  N2_9 
REMARK    7  A    between atoms: C15_22  and  C16_23 
REMARK    8  A    between atoms: C18_27  and  N5_28 
REMARK    9  A    between atoms: C19_33  and  N7_34 
ROOT
HETATM    1  N1  UNL     1      56.065  12.649  51.478  1.00  0.00     0.097 N 
ENDROOT
BRANCH   1   2
HETATM    2  C3  UNL     1      57.216  12.309  50.695  1.00  0.00     0.273 C 
BRANCH   2   3
HETATM    3  C2  UNL     1      58.351  11.659  51.438  1.00  0.00     0.026 C 
HETATM    4  C1  UNL     1      58.490  10.194  51.278  1.00  0.00     0.007 C 
ENDBRANCH   2   3
ENDBRANCH   1   2
BRANCH   1   5
HETATM    5  C4  UNL     1      56.479  12.984  52.804  1.00  0.00     0.311 C 
BRANCH   5   6
HETATM    6  C5  UNL     1      56.705  14.387  53.108  1.00  0.00    -0.025 A 
HETATM    7  C6  UNL     1      56.827  14.826  54.412  1.00  0.00     0.040 A 
HETATM    8  C7  UNL     1      57.021  16.162  54.733  1.00  0.00     0.061 A 
HETATM    9  C8  UNL     1      57.089  17.060  53.685  1.00  0.00     0.034 A 
HETATM   10  C9  UNL     1      57.264  18.423  53.662  1.00  0.00    -0.017 A 
HETATM   11  C13 UNL     1      56.971  16.673  52.351  1.00  0.00     0.089 A 
HETATM   12  C10 UNL     1      57.435  19.265  54.875  1.00  0.00     0.052 C 
HETATM   13  C11 UNL     1      57.247  18.807  52.330  1.00  0.00     0.056 A 
HETATM   14  C12 UNL     1      57.405  20.234  51.898  1.00  0.00     0.077 C 
HETATM   15  O1  UNL     1      57.074  17.745  51.592  1.00  0.00    -0.314 OA
HETATM   16  C14 UNL     1      56.781  15.328  52.123  1.00  0.00     0.047 A 
BRANCH   8  17
HETATM   17  N2  UNL     1      57.145  16.624  56.065  1.00  0.00    -0.306 N 
HETATM   18  N3  UNL     1      56.197  16.361  56.863  1.00  0.00    -0.345 N 
ATOM     19  H32 UNL     1      55.383  15.835  56.543  1.00  0.00     0.176 HD
ATOM     20  H31 UNL     1      56.287  16.694  57.823  1.00  0.00     0.176 HD
ATOM     21  H2  UNL     1      57.966  17.148  56.370  1.00  0.00     0.186 HD
ENDBRANCH   8  17
ENDBRANCH   5   6
ENDBRANCH   1   5
BRANCH   1  22
HETATM   22  C15 UNL     1      55.149  11.564  51.483  1.00  0.00     0.316 C 
BRANCH  22  23
HETATM   23  C16 UNL     1      54.274  11.406  52.650  1.00  0.00     0.030 A 
HETATM   24  C17 UNL     1      53.253  12.322  52.869  1.00  0.00     0.118 A 
HETATM   25  N4  UNL     1      52.543  12.197  54.013  1.00  0.00    -0.201 N 
HETATM   26  C18 UNL     1      52.774  11.240  54.936  1.00  0.00     0.677 A 
ATOM     27  H4  UNL     1      51.791  12.863  54.189  1.00  0.00     0.183 HD
HETATM   28  N6  UNL     1      53.761  10.343  54.730  1.00  0.00    -0.177 N 
HETATM   29  C19 UNL     1      54.497  10.421  53.613  1.00  0.00     0.124 A 
ATOM     30  H6  UNL     1      53.946   9.612  55.418  1.00  0.00     0.185 HD
BRANCH  26  31
HETATM   31  N5  UNL     1      52.049  11.210  55.996  1.00  0.00    -0.234 N 
ATOM     32  H52 UNL     1      52.340  11.675  56.855  1.00  0.00     0.174 HD
ATOM     33  H51 UNL     1      51.160  10.711  55.973  1.00  0.00     0.174 HD
ENDBRANCH  26  31
BRANCH  29  34
HETATM   34  N7  UNL     1      55.407   9.568  53.344  1.00  0.00    -0.385 N 
ATOM     35  H72 UNL     1      56.134   9.326  54.018  1.00  0.00     0.157 HD
ATOM     36  H71 UNL     1      55.344   9.115  52.433  1.00  0.00     0.157 HD
ENDBRANCH  29  34
ENDBRANCH  22  23
ENDBRANCH   1  22
TORSDOF 9
ENDMDL
