MODEL 1
REMARK VINA RESULT: -8.267688003      0.000      0.000
REMARK  9 active torsions:
REMARK  status: ('A' for Active; 'I' for Inactive)
REMARK    1  A    between atoms: N1_5  and  C5_6 
REMARK    2  A    between atoms: C5_6  and  C6_7 
REMARK    3  A    between atoms: C6_7  and  C7_8 
REMARK    4  A    between atoms: C7_8  and  N2_9 
REMARK    5  A    between atoms: N2_9  and  C8_10 
REMARK    6  A    between atoms: C8_10  and  C9_11 
REMARK    7  A    between atoms: C9_11  and  O1_12 
REMARK    8  A    between atoms: N5_27  and  N6_29 
REMARK    9  A    between atoms: N6_29  and  N7_31 
ROOT
HETATM    1  N2  UNL     1      15.322 -13.710  20.680  1.00  0.00     0.062 N 
HETATM    2  C14 UNL     1      14.611 -14.765  20.036  1.00  0.00     0.422 C 
HETATM    3  O3  UNL     1      14.151 -15.831  20.537  1.00  0.00    -0.239 OA
HETATM    4  N4  UNL     1      14.455 -14.475  18.653  1.00  0.00    -0.329 N 
ATOM      5  H4  UNL     1      13.724 -14.820  18.030  1.00  0.00     0.164 HD
HETATM    6  C15 UNL     1      15.538 -13.598  18.313  1.00  0.00     0.211 C 
HETATM    7  C16 UNL     1      15.896 -12.969  19.633  1.00  0.00     0.229 C 
HETATM    8  N5  UNL     1      16.609 -11.925  19.590  1.00  0.00    -0.267 N 
ATOM      9  H5  UNL     1      16.850 -11.669  18.633  1.00  0.00     0.190 HD
ENDROOT
BRANCH   1  10
HETATM   10  C7  UNL     1      16.361 -14.127  21.564  1.00  0.00     0.259 C 
BRANCH  10  11
HETATM   11  C6  UNL     1      17.479 -14.957  21.143  1.00  0.00     0.049 C 
BRANCH  11  12
HETATM   12  C5  UNL     1      18.038 -15.824  22.222  1.00  0.00     0.129 C 
BRANCH  12  13
HETATM   13  N1  UNL     1      18.760 -14.996  23.220  1.00  0.00    -0.366 N 
HETATM   14  C4  UNL     1      18.204 -14.667  24.390  1.00  0.00     0.091 A 
HETATM   15  C3  UNL     1      18.901 -13.885  25.312  1.00  0.00     0.024 A 
HETATM   16  C2  UNL     1      20.170 -13.438  25.040  1.00  0.00    -0.053 A 
HETATM   17  C1  UNL     1      20.886 -12.612  26.036  1.00  0.00     0.049 C 
HETATM   18  C18 UNL     1      20.737 -13.779  23.839  1.00  0.00    -0.041 A 
HETATM   19  C17 UNL     1      20.000 -14.559  22.955  1.00  0.00     0.097 A 
HETATM   20  C19 UNL     1      22.095 -13.333  23.479  1.00  0.00     0.050 C 
ENDBRANCH  12  13
ENDBRANCH  11  12
ENDBRANCH  10  11
ENDBRANCH   1  10
BRANCH   1  21
HETATM   21  C8  UNL     1      14.412 -12.921  21.489  1.00  0.00     0.305 C 
BRANCH  21  22
HETATM   22  C9  UNL     1      13.280 -12.237  20.876  1.00  0.00     0.165 C 
HETATM   23  C10 UNL     1      12.378 -11.830  22.098  1.00  0.00     0.074 C 
HETATM   24  C11 UNL     1      12.860 -10.482  22.494  1.00  0.00     0.083 C 
HETATM   25  C12 UNL     1      11.681  -9.530  22.642  1.00  0.00     0.032 C 
HETATM   26  N3  UNL     1      13.625 -10.022  21.361  1.00  0.00    -0.354 N 
HETATM   27  C13 UNL     1      13.489 -10.933  20.248  1.00  0.00     0.254 C 
ATOM     28  H3  UNL     1      14.185  -9.170  21.347  1.00  0.00     0.162 HD
HETATM   29  O2  UNL     1      13.562 -10.514  19.074  1.00  0.00    -0.270 OA
BRANCH  22  30
HETATM   30  O1  UNL     1      12.422 -12.991  20.102  1.00  0.00    -0.378 OA
ATOM     31  H1  UNL     1      11.825 -13.577  20.551  1.00  0.00     0.211 HD
ENDBRANCH  22  30
ENDBRANCH  21  22
ENDBRANCH   1  21
BRANCH   8  32
HETATM   32  N6  UNL     1      17.128 -11.072  20.480  1.00  0.00    -0.248 N 
ATOM     33  H6  UNL     1      16.549 -10.317  20.850  1.00  0.00     0.207 HD
BRANCH  32  34
HETATM   34  N7  UNL     1      18.349 -11.188  20.875  1.00  0.00    -0.331 N 
ATOM     35  H72 UNL     1      18.525 -11.418  21.853  1.00  0.00     0.178 HD
ATOM     36  H71 UNL     1      19.126 -11.055  20.226  1.00  0.00     0.178 HD
ENDBRANCH  32  34
ENDBRANCH   8  32
TORSDOF 9
ENDMDL
MODEL 2
REMARK VINA RESULT: -8.214081174      0.641      1.366
REMARK  9 active torsions:
REMARK  status: ('A' for Active; 'I' for Inactive)
REMARK    1  A    between atoms: N1_5  and  C5_6 
REMARK    2  A    between atoms: C5_6  and  C6_7 
REMARK    3  A    between atoms: C6_7  and  C7_8 
REMARK    4  A    between atoms: C7_8  and  N2_9 
REMARK    5  A    between atoms: N2_9  and  C8_10 
REMARK    6  A    between atoms: C8_10  and  C9_11 
REMARK    7  A    between atoms: C9_11  and  O1_12 
REMARK    8  A    between atoms: N5_27  and  N6_29 
REMARK    9  A    between atoms: N6_29  and  N7_31 
ROOT
HETATM    1  N2  UNL     1      15.512 -13.598  20.365  1.00  0.00     0.062 N 
HETATM    2  C14 UNL     1      14.787 -14.564  19.607  1.00  0.00     0.422 C 
HETATM    3  O3  UNL     1      14.293 -15.663  19.989  1.00  0.00    -0.239 OA
HETATM    4  N4  UNL     1      14.664 -14.132  18.257  1.00  0.00    -0.329 N 
ATOM      5  H4  UNL     1      13.935 -14.392  17.591  1.00  0.00     0.164 HD
HETATM    6  C15 UNL     1      15.774 -13.253  18.025  1.00  0.00     0.211 C 
HETATM    7  C16 UNL     1      16.123 -12.770  19.408  1.00  0.00     0.229 C 
HETATM    8  N5  UNL     1      16.862 -11.746  19.482  1.00  0.00    -0.267 N 
ATOM      9  H5  UNL     1      17.126 -11.401  18.559  1.00  0.00     0.190 HD
ENDROOT
BRANCH   1  10
HETATM   10  C7  UNL     1      16.525 -14.130  21.218  1.00  0.00     0.259 C 
BRANCH  10  11
HETATM   11  C6  UNL     1      16.770 -13.639  22.565  1.00  0.00     0.049 C 
BRANCH  11  12
HETATM   12  C5  UNL     1      17.483 -14.607  23.448  1.00  0.00     0.129 C 
BRANCH  12  13
HETATM   13  N1  UNL     1      18.890 -14.178  23.648  1.00  0.00    -0.366 N 
HETATM   14  C4  UNL     1      19.808 -14.319  22.687  1.00  0.00     0.091 A 
HETATM   15  C3  UNL     1      21.125 -13.911  22.899  1.00  0.00     0.024 A 
HETATM   16  C2  UNL     1      21.507 -13.356  24.095  1.00  0.00    -0.053 A 
HETATM   17  C1  UNL     1      22.910 -12.931  24.293  1.00  0.00     0.049 C 
HETATM   18  C18 UNL     1      20.562 -13.213  25.078  1.00  0.00    -0.041 A 
HETATM   19  C17 UNL     1      19.264 -13.637  24.817  1.00  0.00     0.097 A 
HETATM   20  C19 UNL     1      20.901 -12.627  26.388  1.00  0.00     0.050 C 
ENDBRANCH  12  13
ENDBRANCH  11  12
ENDBRANCH  10  11
ENDBRANCH   1  10
BRANCH   1  21
HETATM   21  C8  UNL     1      14.608 -12.871  21.236  1.00  0.00     0.305 C 
BRANCH  21  22
HETATM   22  C9  UNL     1      13.420 -12.223  20.693  1.00  0.00     0.165 C 
HETATM   23  C10 UNL     1      12.555 -11.895  21.965  1.00  0.00     0.074 C 
HETATM   24  C11 UNL     1      12.993 -10.539  22.384  1.00  0.00     0.083 C 
HETATM   25  C12 UNL     1      11.780  -9.648  22.612  1.00  0.00     0.032 C 
HETATM   26  N3  UNL     1      13.686 -10.010  21.235  1.00  0.00    -0.354 N 
HETATM   27  C13 UNL     1      13.543 -10.892  20.100  1.00  0.00     0.254 C 
ATOM     28  H3  UNL     1      14.206  -9.133  21.225  1.00  0.00     0.162 HD
HETATM   29  O2  UNL     1      13.546 -10.434  18.938  1.00  0.00    -0.270 OA
BRANCH  22  30
HETATM   30  O1  UNL     1      12.564 -12.991  19.933  1.00  0.00    -0.378 OA
ATOM     31  H1  UNL     1      11.674 -12.679  19.821  1.00  0.00     0.211 HD
ENDBRANCH  22  30
ENDBRANCH  21  22
ENDBRANCH   1  21
BRANCH   8  32
HETATM   32  N6  UNL     1      17.386 -11.001  20.461  1.00  0.00    -0.248 N 
ATOM     33  H6  UNL     1      16.805 -10.303  20.927  1.00  0.00     0.207 HD
BRANCH  32  34
HETATM   34  N7  UNL     1      18.613 -11.151  20.824  1.00  0.00    -0.331 N 
ATOM     35  H72 UNL     1      18.828 -11.847  21.538  1.00  0.00     0.178 HD
ATOM     36  H71 UNL     1      19.355 -10.588  20.408  1.00  0.00     0.178 HD
ENDBRANCH  32  34
ENDBRANCH   8  32
TORSDOF 9
ENDMDL
MODEL 3
REMARK VINA RESULT: -7.959404350      1.175      1.790
REMARK  9 active torsions:
REMARK  status: ('A' for Active; 'I' for Inactive)
REMARK    1  A    between atoms: N1_5  and  C5_6 
REMARK    2  A    between atoms: C5_6  and  C6_7 
REMARK    3  A    between atoms: C6_7  and  C7_8 
REMARK    4  A    between atoms: C7_8  and  N2_9 
REMARK    5  A    between atoms: N2_9  and  C8_10 
REMARK    6  A    between atoms: C8_10  and  C9_11 
REMARK    7  A    between atoms: C9_11  and  O1_12 
REMARK    8  A    between atoms: N5_27  and  N6_29 
REMARK    9  A    between atoms: N6_29  and  N7_31 
ROOT
HETATM    1  N2  UNL     1      15.117 -14.313  20.599  1.00  0.00     0.062 N 
HETATM    2  C14 UNL     1      14.320 -15.469  20.847  1.00  0.00     0.422 C 
HETATM    3  O3  UNL     1      14.208 -16.141  21.912  1.00  0.00    -0.239 OA
HETATM    4  N4  UNL     1      13.600 -15.825  19.673  1.00  0.00    -0.329 N 
ATOM      5  H4  UNL     1      12.720 -16.341  19.623  1.00  0.00     0.164 HD
HETATM    6  C15 UNL     1      14.364 -15.309  18.574  1.00  0.00     0.211 C 
HETATM    7  C16 UNL     1      15.150 -14.188  19.200  1.00  0.00     0.229 C 
HETATM    8  N5  UNL     1      15.678 -13.353  18.409  1.00  0.00    -0.267 N 
ATOM      9  H5  UNL     1      15.491 -13.585  17.434  1.00  0.00     0.190 HD
ENDROOT
BRANCH   1  10
HETATM   10  C7  UNL     1      16.459 -14.384  21.080  1.00  0.00     0.259 C 
BRANCH  10  11
HETATM   11  C6  UNL     1      16.965 -13.543  22.153  1.00  0.00     0.049 C 
BRANCH  11  12
HETATM   12  C5  UNL     1      17.486 -14.299  23.330  1.00  0.00     0.129 C 
BRANCH  12  13
HETATM   13  N1  UNL     1      18.908 -13.952  23.573  1.00  0.00    -0.366 N 
HETATM   14  C4  UNL     1      19.832 -14.068  22.614  1.00  0.00     0.091 A 
HETATM   15  C3  UNL     1      21.163 -13.739  22.867  1.00  0.00     0.024 A 
HETATM   16  C2  UNL     1      21.555 -13.288  24.103  1.00  0.00    -0.053 A 
HETATM   17  C1  UNL     1      22.973 -12.945  24.344  1.00  0.00     0.049 C 
HETATM   18  C18 UNL     1      20.604 -13.170  25.084  1.00  0.00    -0.041 A 
HETATM   19  C17 UNL     1      19.291 -13.512  24.781  1.00  0.00     0.097 A 
HETATM   20  C19 UNL     1      20.953 -12.693  26.435  1.00  0.00     0.050 C 
ENDBRANCH  12  13
ENDBRANCH  11  12
ENDBRANCH  10  11
ENDBRANCH   1  10
BRANCH   1  21
HETATM   21  C8  UNL     1      14.528 -13.157  21.249  1.00  0.00     0.305 C 
BRANCH  21  22
HETATM   22  C9  UNL     1      13.439 -12.425  20.613  1.00  0.00     0.165 C 
HETATM   23  C10 UNL     1      12.487 -12.053  21.807  1.00  0.00     0.074 C 
HETATM   24  C11 UNL     1      12.973 -10.733  22.284  1.00  0.00     0.083 C 
HETATM   25  C12 UNL     1      11.806  -9.765  22.417  1.00  0.00     0.032 C 
HETATM   26  N3  UNL     1      13.800 -10.240  21.210  1.00  0.00    -0.354 N 
HETATM   27  C13 UNL     1      13.702 -11.101  20.053  1.00  0.00     0.254 C 
ATOM     28  H3  UNL     1      14.375  -9.400  21.259  1.00  0.00     0.162 HD
HETATM   29  O2  UNL     1      13.839 -10.633  18.903  1.00  0.00    -0.270 OA
BRANCH  22  30
HETATM   30  O1  UNL     1      12.607 -13.128  19.767  1.00  0.00    -0.378 OA
ATOM     31  H1  UNL     1      11.943 -12.639  19.297  1.00  0.00     0.211 HD
ENDBRANCH  22  30
ENDBRANCH  21  22
ENDBRANCH   1  21
BRANCH   8  32
HETATM   32  N6  UNL     1      16.417 -12.245  18.526  1.00  0.00    -0.248 N 
ATOM     33  H6  UNL     1      16.966 -12.094  19.372  1.00  0.00     0.207 HD
BRANCH  32  34
HETATM   34  N7  UNL     1      16.445 -11.366  17.584  1.00  0.00    -0.331 N 
ATOM     35  H72 UNL     1      16.867 -11.621  16.692  1.00  0.00     0.178 HD
ATOM     36  H71 UNL     1      16.056 -10.434  17.725  1.00  0.00     0.178 HD
ENDBRANCH  32  34
ENDBRANCH   8  32
TORSDOF 9
ENDMDL
MODEL 4
REMARK VINA RESULT: -7.905681858      0.840      1.193
REMARK  9 active torsions:
REMARK  status: ('A' for Active; 'I' for Inactive)
REMARK    1  A    between atoms: N1_5  and  C5_6 
REMARK    2  A    between atoms: C5_6  and  C6_7 
REMARK    3  A    between atoms: C6_7  and  C7_8 
REMARK    4  A    between atoms: C7_8  and  N2_9 
REMARK    5  A    between atoms: N2_9  and  C8_10 
REMARK    6  A    between atoms: C8_10  and  C9_11 
REMARK    7  A    between atoms: C9_11  and  O1_12 
REMARK    8  A    between atoms: N5_27  and  N6_29 
REMARK    9  A    between atoms: N6_29  and  N7_31 
ROOT
HETATM    1  N2  UNL     1      15.358 -13.687  20.856  1.00  0.00     0.062 N 
HETATM    2  C14 UNL     1      14.688 -14.817  20.301  1.00  0.00     0.422 C 
HETATM    3  O3  UNL     1      14.274 -15.859  20.886  1.00  0.00    -0.239 OA
HETATM    4  N4  UNL     1      14.516 -14.642  18.900  1.00  0.00    -0.329 N 
ATOM      5  H4  UNL     1      13.797 -15.063  18.311  1.00  0.00     0.164 HD
HETATM    6  C15 UNL     1      15.561 -13.750  18.486  1.00  0.00     0.211 C 
HETATM    7  C16 UNL     1      15.898 -13.007  19.752  1.00  0.00     0.229 C 
HETATM    8  N5  UNL     1      16.567 -11.941  19.623  1.00  0.00    -0.267 N 
ATOM      9  H5  UNL     1      16.794 -11.750  18.647  1.00  0.00     0.190 HD
ENDROOT
BRANCH   1  10
HETATM   10  C7  UNL     1      16.417 -13.993  21.763  1.00  0.00     0.259 C 
BRANCH  10  11
HETATM   11  C6  UNL     1      17.466 -14.955  21.466  1.00  0.00     0.049 C 
BRANCH  11  12
HETATM   12  C5  UNL     1      18.820 -14.351  21.291  1.00  0.00     0.129 C 
BRANCH  12  13
HETATM   13  N1  UNL     1      19.630 -14.547  22.518  1.00  0.00    -0.366 N 
HETATM   14  C4  UNL     1      20.176 -15.730  22.815  1.00  0.00     0.091 A 
HETATM   15  C3  UNL     1      20.932 -15.892  23.976  1.00  0.00     0.024 A 
HETATM   16  C2  UNL     1      21.134 -14.842  24.837  1.00  0.00    -0.053 A 
HETATM   17  C1  UNL     1      21.941 -15.040  26.061  1.00  0.00     0.049 C 
HETATM   18  C18 UNL     1      20.573 -13.629  24.528  1.00  0.00    -0.041 A 
HETATM   19  C17 UNL     1      19.828 -13.522  23.360  1.00  0.00     0.097 A 
HETATM   20  C19 UNL     1      20.747 -12.458  25.407  1.00  0.00     0.050 C 
ENDBRANCH  12  13
ENDBRANCH  11  12
ENDBRANCH  10  11
ENDBRANCH   1  10
BRANCH   1  21
HETATM   21  C8  UNL     1      14.420 -12.875  21.609  1.00  0.00     0.305 C 
BRANCH  21  22
HETATM   22  C9  UNL     1      13.303 -12.222  20.937  1.00  0.00     0.165 C 
HETATM   23  C10 UNL     1      12.354 -11.793  22.115  1.00  0.00     0.074 C 
HETATM   24  C11 UNL     1      12.807 -10.430  22.491  1.00  0.00     0.083 C 
HETATM   25  C12 UNL     1      11.613  -9.488  22.571  1.00  0.00     0.032 C 
HETATM   26  N3  UNL     1      13.606  -9.991  21.373  1.00  0.00    -0.354 N 
HETATM   27  C13 UNL     1      13.520 -10.934  20.282  1.00  0.00     0.254 C 
ATOM     28  H3  UNL     1      14.156  -9.133  21.355  1.00  0.00     0.162 HD
HETATM   29  O2  UNL     1      13.630 -10.546  19.099  1.00  0.00    -0.270 OA
BRANCH  22  30
HETATM   30  O1  UNL     1      12.482 -13.007  20.155  1.00  0.00    -0.378 OA
ATOM     31  H1  UNL     1      12.099 -12.610  19.382  1.00  0.00     0.211 HD
ENDBRANCH  22  30
ENDBRANCH  21  22
ENDBRANCH   1  21
BRANCH   8  32
HETATM   32  N6  UNL     1      17.054 -11.001  20.441  1.00  0.00    -0.248 N 
ATOM     33  H6  UNL     1      16.443 -10.252  20.765  1.00  0.00     0.207 HD
BRANCH  32  34
HETATM   34  N7  UNL     1      18.285 -11.029  20.823  1.00  0.00    -0.331 N 
ATOM     35  H72 UNL     1      19.013 -11.121  20.115  1.00  0.00     0.178 HD
ATOM     36  H71 UNL     1      18.528 -10.961  21.811  1.00  0.00     0.178 HD
ENDBRANCH  32  34
ENDBRANCH   8  32
TORSDOF 9
ENDMDL
MODEL 5
REMARK VINA RESULT: -7.820058267      2.490      6.743
REMARK  9 active torsions:
REMARK  status: ('A' for Active; 'I' for Inactive)
REMARK    1  A    between atoms: N1_5  and  C5_6 
REMARK    2  A    between atoms: C5_6  and  C6_7 
REMARK    3  A    between atoms: C6_7  and  C7_8 
REMARK    4  A    between atoms: C7_8  and  N2_9 
REMARK    5  A    between atoms: N2_9  and  C8_10 
REMARK    6  A    between atoms: C8_10  and  C9_11 
REMARK    7  A    between atoms: C9_11  and  O1_12 
REMARK    8  A    between atoms: N5_27  and  N6_29 
REMARK    9  A    between atoms: N6_29  and  N7_31 
ROOT
HETATM    1  N2  UNL     1      16.249 -12.739  19.614  1.00  0.00     0.062 N 
HETATM    2  C14 UNL     1      16.528 -12.252  18.302  1.00  0.00     0.422 C 
HETATM    3  O3  UNL     1      17.146 -11.203  17.962  1.00  0.00    -0.239 OA
HETATM    4  N4  UNL     1      15.996 -13.142  17.328  1.00  0.00    -0.329 N 
ATOM      5  H4  UNL     1      16.321 -13.271  16.370  1.00  0.00     0.164 HD
HETATM    6  C15 UNL     1      14.908 -13.820  17.972  1.00  0.00     0.211 C 
HETATM    7  C16 UNL     1      15.256 -13.717  19.433  1.00  0.00     0.229 C 
HETATM    8  N5  UNL     1      14.640 -14.492  20.220  1.00  0.00    -0.267 N 
ATOM      9  H5  UNL     1      13.969 -15.080  19.725  1.00  0.00     0.190 HD
ENDROOT
BRANCH   1  10
HETATM   10  C7  UNL     1      15.763 -11.763  20.534  1.00  0.00     0.259 C 
BRANCH  10  11
HETATM   11  C6  UNL     1      15.100 -10.537  20.118  1.00  0.00     0.049 C 
BRANCH  11  12
HETATM   12  C5  UNL     1      13.639 -10.689  19.857  1.00  0.00     0.129 C 
BRANCH  12  13
HETATM   13  N1  UNL     1      12.894 -10.751  21.139  1.00  0.00    -0.366 N 
HETATM   14  C4  UNL     1      12.325 -11.883  21.565  1.00  0.00     0.091 A 
HETATM   15  C3  UNL     1      11.627 -11.917  22.772  1.00  0.00     0.024 A 
HETATM   16  C2  UNL     1      11.510 -10.792  23.549  1.00  0.00    -0.053 A 
HETATM   17  C1  UNL     1      10.766 -10.855  24.826  1.00  0.00     0.049 C 
HETATM   18  C18 UNL     1      12.095  -9.632  23.110  1.00  0.00    -0.041 A 
HETATM   19  C17 UNL     1      12.779  -9.652  21.899  1.00  0.00     0.097 A 
HETATM   20  C19 UNL     1      12.009  -8.385  23.892  1.00  0.00     0.050 C 
ENDBRANCH  12  13
ENDBRANCH  11  12
ENDBRANCH  10  11
ENDBRANCH   1  10
BRANCH   1  21
HETATM   21  C8  UNL     1      17.458 -13.274  20.211  1.00  0.00     0.305 C 
BRANCH  21  22
HETATM   22  C9  UNL     1      18.574 -12.394  20.535  1.00  0.00     0.165 C 
HETATM   23  C10 UNL     1      18.923 -12.760  22.024  1.00  0.00     0.074 C 
HETATM   24  C11 UNL     1      19.928 -13.848  21.923  1.00  0.00     0.083 C 
HETATM   25  C12 UNL     1      21.123 -13.539  22.815  1.00  0.00     0.032 C 
HETATM   26  N3  UNL     1      20.400 -13.782  20.561  1.00  0.00    -0.354 N 
HETATM   27  C13 UNL     1      19.868 -12.617  19.892  1.00  0.00     0.254 C 
ATOM     28  H3  UNL     1      21.024 -14.463  20.130  1.00  0.00     0.162 HD
HETATM   29  O2  UNL     1      20.517 -12.057  18.984  1.00  0.00    -0.270 OA
BRANCH  22  30
HETATM   30  O1  UNL     1      18.320 -11.040  20.606  1.00  0.00    -0.378 OA
ATOM     31  H1  UNL     1      17.587 -10.757  21.140  1.00  0.00     0.211 HD
ENDBRANCH  22  30
ENDBRANCH  21  22
ENDBRANCH   1  21
BRANCH   8  32
HETATM   32  N6  UNL     1      14.643 -14.737  21.535  1.00  0.00    -0.248 N 
ATOM     33  H6  UNL     1      15.460 -14.484  22.091  1.00  0.00     0.207 HD
BRANCH  32  34
HETATM   34  N7  UNL     1      13.629 -15.288  22.108  1.00  0.00    -0.331 N 
ATOM     35  H72 UNL     1      13.610 -15.334  23.126  1.00  0.00     0.178 HD
ATOM     36  H71 UNL     1      12.860 -15.671  21.558  1.00  0.00     0.178 HD
ENDBRANCH  32  34
ENDBRANCH   8  32
TORSDOF 9
ENDMDL
