MODEL 1
REMARK VINA RESULT: -6.339674141      0.000      0.000
REMARK  13 active torsions:
REMARK  status: ('A' for Active; 'I' for Inactive)
REMARK    1  A    between atoms: C3_3  and  C4_4 
REMARK    2  A    between atoms: C4_4  and  C5_5 
REMARK    3  A    between atoms: C5_5  and  C6_6 
REMARK    4  A    between atoms: C6_6  and  C7_7 
REMARK    5  A    between atoms: C7_7  and  C8_8 
REMARK    6  A    between atoms: C9_13  and  C10_14 
REMARK    7  A    between atoms: C10_14  and  C11_15 
REMARK    8  A    between atoms: C11_15  and  C12_16 
REMARK    9  A    between atoms: C14_20  and  C15_21 
REMARK   10  A    between atoms: C15_21  and  N4_22 
REMARK   11  A    between atoms: C18_25  and  C19_26 
REMARK   12  A    between atoms: C19_26  and  O1_27 
REMARK   13  A    between atoms: O1_27  and  C20_28 
ROOT
HETATM    1  C1  UNL     1     -27.612   1.304  16.929  1.00  0.00     0.026 C 
HETATM    2  C2  UNL     1     -26.674   1.348  16.028  1.00  0.00    -0.005 A 
HETATM    3  C3  UNL     1     -26.703   0.834  14.768  1.00  0.00     0.039 A 
HETATM    4  N3  UNL     1     -25.440   1.096  14.270  1.00  0.00    -0.354 N 
ATOM      5  H3  UNL     1     -25.125   0.836  13.335  1.00  0.00     0.166 HD
HETATM    6  C14 UNL     1     -24.684   1.735  15.170  1.00  0.00     0.061 A 
HETATM    7  C18 UNL     1     -25.409   1.928  16.317  1.00  0.00     0.026 A 
ENDROOT
BRANCH   3   8
HETATM    8  C4  UNL     1     -27.634   0.259  14.042  1.00  0.00     0.004 C 
BRANCH   8   9
HETATM    9  C5  UNL     1     -28.873   0.788  13.546  1.00  0.00     0.033 C 
BRANCH   9  10
HETATM   10  C6  UNL     1     -30.139   0.136  14.040  1.00  0.00     0.033 C 
BRANCH  10  11
HETATM   11  C7  UNL     1     -30.547   0.536  15.372  1.00  0.00     0.007 C 
BRANCH  11  12
HETATM   12  C8  UNL     1     -31.274  -0.236  16.161  1.00  0.00     0.072 A 
HETATM   13  N1  UNL     1     -32.479  -0.863  16.023  1.00  0.00    -0.298 N 
HETATM   14  N2  UNL     1     -32.421  -1.371  17.235  1.00  0.00    -0.298 N 
ATOM     15  H1  UNL     1     -33.163  -0.918  15.267  1.00  0.00     0.187 HD
HETATM   16  C9  UNL     1     -31.217  -0.769  17.431  1.00  0.00     0.072 A 
ATOM     17  H2  UNL     1     -33.027  -1.969  17.796  1.00  0.00     0.187 HD
BRANCH  16  18
HETATM   18  C10 UNL     1     -30.368  -0.734  18.454  1.00  0.00     0.007 C 
BRANCH  18  19
HETATM   19  C11 UNL     1     -29.153  -1.586  18.437  1.00  0.00     0.029 C 
BRANCH  19  20
HETATM   20  C12 UNL     1     -29.537  -2.957  18.949  1.00  0.00    -0.001 C 
HETATM   21  C13 UNL     1     -29.544  -2.868  20.469  1.00  0.00     0.005 C 
ENDBRANCH  19  20
ENDBRANCH  18  19
ENDBRANCH  16  18
ENDBRANCH  11  12
ENDBRANCH  10  11
ENDBRANCH   9  10
ENDBRANCH   8   9
ENDBRANCH   3   8
BRANCH   7  22
HETATM   22  C19 UNL     1     -25.086   2.525  17.432  1.00  0.00     0.160 C 
BRANCH  22  23
HETATM   23  O1  UNL     1     -25.058   3.870  17.693  1.00  0.00    -0.290 OA
BRANCH  23  24
HETATM   24  C20 UNL     1     -26.004   4.463  18.548  1.00  0.00     0.259 C 
HETATM   25  C21 UNL     1     -27.332   4.791  18.045  1.00  0.00     0.126 C 
HETATM   26  O2  UNL     1     -25.669   4.690  19.719  1.00  0.00    -0.265 OA
ENDBRANCH  23  24
ENDBRANCH  22  23
ENDBRANCH   7  22
BRANCH   6  27
HETATM   27  C15 UNL     1     -23.429   2.116  14.903  1.00  0.00     0.115 C 
BRANCH  27  28
HETATM   28  N4  UNL     1     -22.319   1.393  15.451  1.00  0.00    -0.397 N 
HETATM   29  C16 UNL     1     -21.829   0.229  14.749  1.00  0.00     0.148 C 
HETATM   30  C17 UNL     1     -21.701   1.808  16.668  1.00  0.00     0.148 C 
ENDBRANCH  27  28
ENDBRANCH   6  27
TORSDOF 13
ENDMDL
MODEL 2
REMARK VINA RESULT: -6.300456456      1.811      3.593
REMARK  13 active torsions:
REMARK  status: ('A' for Active; 'I' for Inactive)
REMARK    1  A    between atoms: C3_3  and  C4_4 
REMARK    2  A    between atoms: C4_4  and  C5_5 
REMARK    3  A    between atoms: C5_5  and  C6_6 
REMARK    4  A    between atoms: C6_6  and  C7_7 
REMARK    5  A    between atoms: C7_7  and  C8_8 
REMARK    6  A    between atoms: C9_13  and  C10_14 
REMARK    7  A    between atoms: C10_14  and  C11_15 
REMARK    8  A    between atoms: C11_15  and  C12_16 
REMARK    9  A    between atoms: C14_20  and  C15_21 
REMARK   10  A    between atoms: C15_21  and  N4_22 
REMARK   11  A    between atoms: C18_25  and  C19_26 
REMARK   12  A    between atoms: C19_26  and  O1_27 
REMARK   13  A    between atoms: O1_27  and  C20_28 
ROOT
HETATM    1  C1  UNL     1     -25.188   1.786  13.948  1.00  0.00     0.026 C 
HETATM    2  C2  UNL     1     -25.994   1.483  14.924  1.00  0.00    -0.005 A 
HETATM    3  C3  UNL     1     -27.222   0.901  14.840  1.00  0.00     0.039 A 
HETATM    4  N3  UNL     1     -27.667   0.870  16.149  1.00  0.00    -0.354 N 
ATOM      5  H3  UNL     1     -28.568   0.492  16.442  1.00  0.00     0.166 HD
HETATM    6  C14 UNL     1     -26.764   1.398  16.983  1.00  0.00     0.061 A 
HETATM    7  C18 UNL     1     -25.671   1.810  16.268  1.00  0.00     0.026 A 
ENDROOT
BRANCH   3   8
HETATM    8  C4  UNL     1     -27.921   0.390  13.853  1.00  0.00     0.004 C 
BRANCH   8   9
HETATM    9  C5  UNL     1     -29.217   0.755  13.355  1.00  0.00     0.033 C 
BRANCH   9  10
HETATM   10  C6  UNL     1     -30.397  -0.011  13.897  1.00  0.00     0.033 C 
BRANCH  10  11
HETATM   11  C7  UNL     1     -30.961   0.529  15.117  1.00  0.00     0.007 C 
BRANCH  11  12
HETATM   12  C8  UNL     1     -31.468  -0.233  16.072  1.00  0.00     0.072 A 
HETATM   13  N1  UNL     1     -32.663  -0.871  16.238  1.00  0.00    -0.298 N 
HETATM   14  N2  UNL     1     -32.309  -1.355  17.408  1.00  0.00    -0.298 N 
ATOM     15  H1  UNL     1     -33.509  -0.944  15.670  1.00  0.00     0.187 HD
HETATM   16  C9  UNL     1     -31.100  -0.741  17.298  1.00  0.00     0.072 A 
ATOM     17  H2  UNL     1     -32.756  -1.947  18.109  1.00  0.00     0.187 HD
BRANCH  16  18
HETATM   18  C10 UNL     1     -30.030  -0.682  18.086  1.00  0.00     0.007 C 
BRANCH  18  19
HETATM   19  C11 UNL     1     -29.365  -1.933  18.526  1.00  0.00     0.029 C 
BRANCH  19  20
HETATM   20  C12 UNL     1     -29.382  -1.963  20.039  1.00  0.00    -0.001 C 
HETATM   21  C13 UNL     1     -29.656  -3.405  20.443  1.00  0.00     0.005 C 
ENDBRANCH  19  20
ENDBRANCH  18  19
ENDBRANCH  16  18
ENDBRANCH  11  12
ENDBRANCH  10  11
ENDBRANCH   9  10
ENDBRANCH   8   9
ENDBRANCH   3   8
BRANCH   7  22
HETATM   22  C19 UNL     1     -24.552   2.351  16.668  1.00  0.00     0.160 C 
BRANCH  22  23
HETATM   23  O1  UNL     1     -23.340   1.740  16.862  1.00  0.00    -0.290 OA
BRANCH  23  24
HETATM   24  C20 UNL     1     -22.202   2.143  16.141  1.00  0.00     0.259 C 
HETATM   25  C21 UNL     1     -21.021   1.289  16.111  1.00  0.00     0.126 C 
HETATM   26  O2  UNL     1     -22.244   3.229  15.547  1.00  0.00    -0.265 OA
ENDBRANCH  23  24
ENDBRANCH  22  23
ENDBRANCH   7  22
BRANCH   6  27
HETATM   27  C15 UNL     1     -26.965   1.453  18.306  1.00  0.00     0.115 C 
BRANCH  27  28
HETATM   28  N4  UNL     1     -27.814   2.461  18.870  1.00  0.00    -0.397 N 
HETATM   29  C16 UNL     1     -28.628   2.127  20.016  1.00  0.00     0.148 C 
HETATM   30  C17 UNL     1     -27.863   3.775  18.316  1.00  0.00     0.148 C 
ENDBRANCH  27  28
ENDBRANCH   6  27
TORSDOF 13
ENDMDL
MODEL 3
REMARK VINA RESULT: -6.079325330      2.298      4.477
REMARK  13 active torsions:
REMARK  status: ('A' for Active; 'I' for Inactive)
REMARK    1  A    between atoms: C3_3  and  C4_4 
REMARK    2  A    between atoms: C4_4  and  C5_5 
REMARK    3  A    between atoms: C5_5  and  C6_6 
REMARK    4  A    between atoms: C6_6  and  C7_7 
REMARK    5  A    between atoms: C7_7  and  C8_8 
REMARK    6  A    between atoms: C9_13  and  C10_14 
REMARK    7  A    between atoms: C10_14  and  C11_15 
REMARK    8  A    between atoms: C11_15  and  C12_16 
REMARK    9  A    between atoms: C14_20  and  C15_21 
REMARK   10  A    between atoms: C15_21  and  N4_22 
REMARK   11  A    between atoms: C18_25  and  C19_26 
REMARK   12  A    between atoms: C19_26  and  O1_27 
REMARK   13  A    between atoms: O1_27  and  C20_28 
ROOT
HETATM    1  C1  UNL     1     -25.149   2.294  17.036  1.00  0.00     0.026 C 
HETATM    2  C2  UNL     1     -26.149   1.677  16.476  1.00  0.00    -0.005 A 
HETATM    3  C3  UNL     1     -27.223   1.105  17.087  1.00  0.00     0.039 A 
HETATM    4  N3  UNL     1     -27.936   0.536  16.047  1.00  0.00    -0.354 N 
ATOM      5  H3  UNL     1     -28.808   0.020  16.163  1.00  0.00     0.166 HD
HETATM    6  C14 UNL     1     -27.335   0.749  14.871  1.00  0.00     0.061 A 
HETATM    7  C18 UNL     1     -26.188   1.470  15.071  1.00  0.00     0.026 A 
ENDROOT
BRANCH   3   8
HETATM    8  C4  UNL     1     -27.650   1.068  18.329  1.00  0.00     0.004 C 
BRANCH   8   9
HETATM    9  C5  UNL     1     -28.561   1.938  19.016  1.00  0.00     0.033 C 
BRANCH   9  10
HETATM   10  C6  UNL     1     -29.876   1.344  19.451  1.00  0.00     0.033 C 
BRANCH  10  11
HETATM   11  C7  UNL     1     -30.731   0.906  18.366  1.00  0.00     0.007 C 
BRANCH  11  12
HETATM   12  C8  UNL     1     -31.041  -0.363  18.164  1.00  0.00     0.072 A 
HETATM   13  N1  UNL     1     -32.102  -0.997  17.584  1.00  0.00    -0.298 N 
HETATM   14  N2  UNL     1     -31.594  -2.188  17.819  1.00  0.00    -0.298 N 
ATOM     15  H1  UNL     1     -32.961  -0.672  17.139  1.00  0.00     0.187 HD
HETATM   16  C9  UNL     1     -30.512  -1.612  18.409  1.00  0.00     0.072 A 
ATOM     17  H2  UNL     1     -31.890  -3.147  17.634  1.00  0.00     0.187 HD
BRANCH  16  18
HETATM   18  C10 UNL     1     -29.415  -2.100  18.980  1.00  0.00     0.007 C 
BRANCH  18  19
HETATM   19  C11 UNL     1     -29.394  -2.359  20.442  1.00  0.00     0.029 C 
BRANCH  19  20
HETATM   20  C12 UNL     1     -29.686  -3.828  20.658  1.00  0.00    -0.001 C 
HETATM   21  C13 UNL     1     -31.050  -3.907  21.332  1.00  0.00     0.005 C 
ENDBRANCH  19  20
ENDBRANCH  18  19
ENDBRANCH  16  18
ENDBRANCH  11  12
ENDBRANCH  10  11
ENDBRANCH   9  10
ENDBRANCH   8   9
ENDBRANCH   3   8
BRANCH   7  22
HETATM   22  C19 UNL     1     -25.313   1.923  14.216  1.00  0.00     0.160 C 
BRANCH  22  23
HETATM   23  O1  UNL     1     -24.166   1.314  13.775  1.00  0.00    -0.290 OA
BRANCH  23  24
HETATM   24  C20 UNL     1     -22.923   1.588  14.374  1.00  0.00     0.259 C 
HETATM   25  C21 UNL     1     -22.000   0.499  14.663  1.00  0.00     0.126 C 
HETATM   26  O2  UNL     1     -22.653   2.768  14.640  1.00  0.00    -0.265 OA
ENDBRANCH  23  24
ENDBRANCH  22  23
ENDBRANCH   7  22
BRANCH   6  27
HETATM   27  C15 UNL     1     -27.855   0.312  13.718  1.00  0.00     0.115 C 
BRANCH  27  28
HETATM   28  N4  UNL     1     -29.112   0.818  13.250  1.00  0.00    -0.397 N 
HETATM   29  C16 UNL     1     -29.173   2.165  12.731  1.00  0.00     0.148 C 
HETATM   30  C17 UNL     1     -30.290   0.014  13.293  1.00  0.00     0.148 C 
ENDBRANCH  27  28
ENDBRANCH   6  27
TORSDOF 13
ENDMDL
MODEL 4
REMARK VINA RESULT: -6.008912827      2.521      5.009
REMARK  13 active torsions:
REMARK  status: ('A' for Active; 'I' for Inactive)
REMARK    1  A    between atoms: C3_3  and  C4_4 
REMARK    2  A    between atoms: C4_4  and  C5_5 
REMARK    3  A    between atoms: C5_5  and  C6_6 
REMARK    4  A    between atoms: C6_6  and  C7_7 
REMARK    5  A    between atoms: C7_7  and  C8_8 
REMARK    6  A    between atoms: C9_13  and  C10_14 
REMARK    7  A    between atoms: C10_14  and  C11_15 
REMARK    8  A    between atoms: C11_15  and  C12_16 
REMARK    9  A    between atoms: C14_20  and  C15_21 
REMARK   10  A    between atoms: C15_21  and  N4_22 
REMARK   11  A    between atoms: C18_25  and  C19_26 
REMARK   12  A    between atoms: C19_26  and  O1_27 
REMARK   13  A    between atoms: O1_27  and  C20_28 
ROOT
HETATM    1  C1  UNL     1     -25.104   2.469  17.211  1.00  0.00     0.026 C 
HETATM    2  C2  UNL     1     -26.100   1.855  16.642  1.00  0.00    -0.005 A 
HETATM    3  C3  UNL     1     -27.259   1.433  17.220  1.00  0.00     0.039 A 
HETATM    4  N3  UNL     1     -27.928   0.788  16.195  1.00  0.00    -0.354 N 
ATOM      5  H3  UNL     1     -28.843   0.348  16.294  1.00  0.00     0.166 HD
HETATM    6  C14 UNL     1     -27.222   0.817  15.059  1.00  0.00     0.061 A 
HETATM    7  C18 UNL     1     -26.044   1.481  15.273  1.00  0.00     0.026 A 
ENDROOT
BRANCH   3   8
HETATM    8  C4  UNL     1     -27.783   1.575  18.415  1.00  0.00     0.004 C 
BRANCH   8   9
HETATM    9  C5  UNL     1     -27.730   0.704  19.555  1.00  0.00     0.033 C 
BRANCH   9  10
HETATM   10  C6  UNL     1     -28.964   0.632  20.417  1.00  0.00     0.033 C 
BRANCH  10  11
HETATM   11  C7  UNL     1     -29.141  -0.622  21.120  1.00  0.00     0.007 C 
BRANCH  11  12
HETATM   12  C8  UNL     1     -29.398  -1.761  20.500  1.00  0.00     0.072 A 
HETATM   13  N1  UNL     1     -29.399  -3.070  20.888  1.00  0.00    -0.298 N 
HETATM   14  N2  UNL     1     -29.750  -3.487  19.691  1.00  0.00    -0.298 N 
ATOM     15  H1  UNL     1     -29.203  -3.544  21.771  1.00  0.00     0.187 HD
HETATM   16  C9  UNL     1     -29.765  -2.201  19.247  1.00  0.00     0.072 A 
ATOM     17  H2  UNL     1     -29.935  -4.397  19.270  1.00  0.00     0.187 HD
BRANCH  16  18
HETATM   18  C10 UNL     1     -30.029  -1.644  18.068  1.00  0.00     0.007 C 
BRANCH  18  19
HETATM   19  C11 UNL     1     -31.423  -1.273  17.720  1.00  0.00     0.029 C 
BRANCH  19  20
HETATM   20  C12 UNL     1     -31.369  -0.095  16.772  1.00  0.00    -0.001 C 
HETATM   21  C13 UNL     1     -31.381   1.160  17.634  1.00  0.00     0.005 C 
ENDBRANCH  19  20
ENDBRANCH  18  19
ENDBRANCH  16  18
ENDBRANCH  11  12
ENDBRANCH  10  11
ENDBRANCH   9  10
ENDBRANCH   8   9
ENDBRANCH   3   8
BRANCH   7  22
HETATM   22  C19 UNL     1     -25.073   1.768  14.449  1.00  0.00     0.160 C 
BRANCH  22  23
HETATM   23  O1  UNL     1     -23.904   1.080  14.246  1.00  0.00    -0.290 OA
BRANCH  23  24
HETATM   24  C20 UNL     1     -22.678   1.578  14.721  1.00  0.00     0.259 C 
HETATM   25  C21 UNL     1     -21.602   0.656  15.061  1.00  0.00     0.126 C 
HETATM   26  O2  UNL     1     -22.553   2.805  14.837  1.00  0.00    -0.265 OA
ENDBRANCH  23  24
ENDBRANCH  22  23
ENDBRANCH   7  22
BRANCH   6  27
HETATM   27  C15 UNL     1     -27.681   0.276  13.924  1.00  0.00     0.115 C 
BRANCH  27  28
HETATM   28  N4  UNL     1     -28.850   0.810  13.286  1.00  0.00    -0.397 N 
HETATM   29  C16 UNL     1     -30.064   0.026  13.285  1.00  0.00     0.148 C 
HETATM   30  C17 UNL     1     -28.825   2.091  12.660  1.00  0.00     0.148 C 
ENDBRANCH  27  28
ENDBRANCH   6  27
TORSDOF 13
ENDMDL
MODEL 5
REMARK VINA RESULT: -5.924645308      3.097      5.757
REMARK  13 active torsions:
REMARK  status: ('A' for Active; 'I' for Inactive)
REMARK    1  A    between atoms: C3_3  and  C4_4 
REMARK    2  A    between atoms: C4_4  and  C5_5 
REMARK    3  A    between atoms: C5_5  and  C6_6 
REMARK    4  A    between atoms: C6_6  and  C7_7 
REMARK    5  A    between atoms: C7_7  and  C8_8 
REMARK    6  A    between atoms: C9_13  and  C10_14 
REMARK    7  A    between atoms: C10_14  and  C11_15 
REMARK    8  A    between atoms: C11_15  and  C12_16 
REMARK    9  A    between atoms: C14_20  and  C15_21 
REMARK   10  A    between atoms: C15_21  and  N4_22 
REMARK   11  A    between atoms: C18_25  and  C19_26 
REMARK   12  A    between atoms: C19_26  and  O1_27 
REMARK   13  A    between atoms: O1_27  and  C20_28 
ROOT
HETATM    1  C1  UNL     1     -27.756   0.679  18.647  1.00  0.00     0.026 C 
HETATM    2  C2  UNL     1     -28.422   0.500  17.544  1.00  0.00    -0.005 A 
HETATM    3  C3  UNL     1     -29.607  -0.151  17.382  1.00  0.00     0.039 A 
HETATM    4  N3  UNL     1     -29.828  -0.107  16.017  1.00  0.00    -0.354 N 
ATOM      5  H3  UNL     1     -30.641  -0.513  15.553  1.00  0.00     0.166 HD
HETATM    6  C14 UNL     1     -28.840   0.534  15.384  1.00  0.00     0.061 A 
HETATM    7  C18 UNL     1     -27.907   0.948  16.297  1.00  0.00     0.026 A 
ENDROOT
BRANCH   3   8
HETATM    8  C4  UNL     1     -30.471  -0.687  18.212  1.00  0.00     0.004 C 
BRANCH   8   9
HETATM    9  C5  UNL     1     -30.682  -2.063  18.562  1.00  0.00     0.033 C 
BRANCH   9  10
HETATM   10  C6  UNL     1     -29.481  -2.838  19.040  1.00  0.00     0.033 C 
BRANCH  10  11
HETATM   11  C7  UNL     1     -29.459  -3.105  20.463  1.00  0.00     0.007 C 
BRANCH  11  12
HETATM   12  C8  UNL     1     -29.986  -4.193  20.998  1.00  0.00     0.072 A 
HETATM   13  N1  UNL     1     -29.562  -5.484  21.128  1.00  0.00    -0.298 N 
HETATM   14  N2  UNL     1     -30.665  -5.847  21.746  1.00  0.00    -0.298 N 
ATOM     15  H1  UNL     1     -28.713  -5.979  20.852  1.00  0.00     0.187 HD
HETATM   16  C9  UNL     1     -31.141  -4.576  21.644  1.00  0.00     0.072 A 
ATOM     17  H2  UNL     1     -31.017  -6.719  22.139  1.00  0.00     0.187 HD
BRANCH  16  18
HETATM   18  C10 UNL     1     -32.272  -3.991  22.027  1.00  0.00     0.007 C 
BRANCH  18  19
HETATM   19  C11 UNL     1     -32.644  -3.966  23.463  1.00  0.00     0.029 C 
BRANCH  19  20
HETATM   20  C12 UNL     1     -33.765  -4.961  23.672  1.00  0.00    -0.001 C 
HETATM   21  C13 UNL     1     -33.148  -6.176  24.352  1.00  0.00     0.005 C 
ENDBRANCH  19  20
ENDBRANCH  18  19
ENDBRANCH  16  18
ENDBRANCH  11  12
ENDBRANCH  10  11
ENDBRANCH   9  10
ENDBRANCH   8   9
ENDBRANCH   3   8
BRANCH   7  22
HETATM   22  C19 UNL     1     -26.805   1.627  16.134  1.00  0.00     0.160 C 
BRANCH  22  23
HETATM   23  O1  UNL     1     -25.734   1.321  15.335  1.00  0.00    -0.290 OA
BRANCH  23  24
HETATM   24  C20 UNL     1     -24.429   1.704  15.694  1.00  0.00     0.259 C 
HETATM   25  C21 UNL     1     -23.303   1.330  14.848  1.00  0.00     0.126 C 
HETATM   26  O2  UNL     1     -24.280   2.358  16.736  1.00  0.00    -0.265 OA
ENDBRANCH  23  24
ENDBRANCH  22  23
ENDBRANCH   7  22
BRANCH   6  27
HETATM   27  C15 UNL     1     -28.850   0.722  14.058  1.00  0.00     0.115 C 
BRANCH  27  28
HETATM   28  N4  UNL     1     -29.995   1.299  13.415  1.00  0.00    -0.397 N 
HETATM   29  C16 UNL     1     -30.842   0.452  12.607  1.00  0.00     0.148 C 
HETATM   30  C17 UNL     1     -30.301   2.684  13.563  1.00  0.00     0.148 C 
ENDBRANCH  27  28
ENDBRANCH   6  27
TORSDOF 13
ENDMDL
