MODEL 1
REMARK VINA RESULT: -6.259397947      0.000      0.000
REMARK  8 active torsions:
REMARK  status: ('A' for Active; 'I' for Inactive)
REMARK    1  A    between atoms: C2_2  and  O1_3 
REMARK    2  A    between atoms: O1_3  and  C3_4 
REMARK    3  A    between atoms: C3_4  and  C4_5 
REMARK    4  A    between atoms: C4_5  and  N1_6 
REMARK    5  A    between atoms: C8_10  and  C9_11 
REMARK    6  A    between atoms: C13_20  and  C14_21 
REMARK    7  A    between atoms: C14_21  and  N4_22 
REMARK    8  A    between atoms: C17_29  and  C18_30 
ROOT
HETATM    1  C9  UNL     1     -29.067   0.304  17.425  1.00  0.00     0.047 A 
HETATM    2  C10 UNL     1     -29.161  -0.945  17.944  1.00  0.00     0.048 A 
HETATM    3  C11 UNL     1     -30.055  -1.216  18.953  1.00  0.00     0.039 A 
HETATM    4  C12 UNL     1     -30.111  -2.494  19.467  1.00  0.00     0.113 A 
HETATM    5  N2  UNL     1     -29.327  -3.392  18.959  1.00  0.00    -0.385 N 
ATOM      6  H21 UNL     1     -29.369  -4.337  19.339  1.00  0.00     0.157 HD
ATOM      7  H22 UNL     1     -28.670  -3.210  18.200  1.00  0.00     0.157 HD
HETATM    8  N3  UNL     1     -30.963  -2.730  20.451  1.00  0.00    -0.330 N 
ATOM      9  H3  UNL     1     -31.027  -3.668  20.848  1.00  0.00     0.168 HD
HETATM   10  C13 UNL     1     -31.744  -1.755  20.932  1.00  0.00     0.111 A 
HETATM   11  N5  UNL     1     -31.732  -0.462  20.461  1.00  0.00    -0.337 N 
HETATM   12  C15 UNL     1     -32.488   0.548  21.089  1.00  0.00     0.158 C 
HETATM   13  C16 UNL     1     -30.878  -0.187  19.449  1.00  0.00     0.072 A 
HETATM   14  C17 UNL     1     -30.797   1.082  18.925  1.00  0.00     0.039 A 
HETATM   15  N6  UNL     1     -29.864   1.252  17.916  1.00  0.00    -0.352 N 
HETATM   16  C20 UNL     1     -29.762   2.625  17.363  1.00  0.00     0.156 C 
ENDROOT
BRANCH   1  17
HETATM   17  C8  UNL     1     -28.131   0.638  16.356  1.00  0.00     0.006 A 
HETATM   18  C7  UNL     1     -28.485   0.553  15.032  1.00  0.00     0.016 A 
HETATM   19  C6  UNL     1     -27.588   0.885  14.024  1.00  0.00     0.018 A 
HETATM   20  C5  UNL     1     -26.322   1.305  14.417  1.00  0.00     0.090 A 
HETATM   21  N1  UNL     1     -25.963   1.392  15.709  1.00  0.00    -0.364 N 
HETATM   22  C21 UNL     1     -26.864   1.060  16.668  1.00  0.00     0.104 A 
BRANCH  21  23
HETATM   23  C4  UNL     1     -24.629   1.836  16.020  1.00  0.00     0.154 C 
BRANCH  23  24
HETATM   24  C3  UNL     1     -23.688   1.703  14.843  1.00  0.00     0.187 C 
BRANCH  24  25
HETATM   25  O1  UNL     1     -22.685   2.680  14.861  1.00  0.00    -0.390 OA
BRANCH  25  26
HETATM   26  C2  UNL     1     -21.763   2.293  15.833  1.00  0.00     0.163 C 
HETATM   27  C1  UNL     1     -20.874   1.168  15.383  1.00  0.00     0.033 C 
ENDBRANCH  25  26
ENDBRANCH  24  25
ENDBRANCH  23  24
ENDBRANCH  21  23
ENDBRANCH   1  17
BRANCH  14  28
HETATM   28  C18 UNL     1     -31.733   2.128  19.257  1.00  0.00     0.055 C 
HETATM   29  C19 UNL     1     -32.905   2.243  18.271  1.00  0.00     0.011 C 
ENDBRANCH  14  28
BRANCH  10  30
HETATM   30  C14 UNL     1     -32.721  -2.030  22.031  1.00  0.00     0.306 C 
BRANCH  30  31
HETATM   31  N4  UNL     1     -33.068  -3.445  21.925  1.00  0.00    -0.073 N 
ATOM     32  H43 UNL     1     -33.393  -3.715  20.996  1.00  0.00     0.274 HD
ATOM     33  H42 UNL     1     -32.258  -4.065  21.959  1.00  0.00     0.274 HD
ATOM     34  H41 UNL     1     -33.749  -3.627  22.661  1.00  0.00     0.274 HD
ENDBRANCH  30  31
ENDBRANCH  10  30
TORSDOF 8
ENDMDL
MODEL 2
REMARK VINA RESULT: -6.158856052      3.324      7.472
REMARK  8 active torsions:
REMARK  status: ('A' for Active; 'I' for Inactive)
REMARK    1  A    between atoms: C2_2  and  O1_3 
REMARK    2  A    between atoms: O1_3  and  C3_4 
REMARK    3  A    between atoms: C3_4  and  C4_5 
REMARK    4  A    between atoms: C4_5  and  N1_6 
REMARK    5  A    between atoms: C8_10  and  C9_11 
REMARK    6  A    between atoms: C13_20  and  C14_21 
REMARK    7  A    between atoms: C14_21  and  N4_22 
REMARK    8  A    between atoms: C17_29  and  C18_30 
ROOT
HETATM    1  C9  UNL     1     -28.746   0.091  16.753  1.00  0.00     0.047 A 
HETATM    2  C10 UNL     1     -27.556   0.491  16.242  1.00  0.00     0.048 A 
HETATM    3  C11 UNL     1     -27.494   1.092  15.007  1.00  0.00     0.039 A 
HETATM    4  C12 UNL     1     -26.263   1.472  14.513  1.00  0.00     0.113 A 
HETATM    5  N2  UNL     1     -25.218   1.261  15.248  1.00  0.00    -0.385 N 
ATOM      6  H21 UNL     1     -24.308   1.542  14.883  1.00  0.00     0.157 HD
ATOM      7  H22 UNL     1     -25.250   0.830  16.173  1.00  0.00     0.157 HD
HETATM    8  N3  UNL     1     -26.222   2.030  13.315  1.00  0.00    -0.330 N 
ATOM      9  H3  UNL     1     -25.325   2.323  12.926  1.00  0.00     0.168 HD
HETATM   10  C13 UNL     1     -27.340   2.217  12.605  1.00  0.00     0.111 A 
HETATM   11  N5  UNL     1     -28.595   1.859  13.043  1.00  0.00    -0.337 N 
HETATM   12  C15 UNL     1     -29.720   1.970  12.202  1.00  0.00     0.158 C 
HETATM   13  C16 UNL     1     -28.676   1.293  14.269  1.00  0.00     0.072 A 
HETATM   14  C17 UNL     1     -29.889   0.897  14.780  1.00  0.00     0.039 A 
HETATM   15  N6  UNL     1     -29.845   0.300  16.028  1.00  0.00    -0.352 N 
HETATM   16  C20 UNL     1     -31.151  -0.145  16.573  1.00  0.00     0.156 C 
ENDROOT
BRANCH   1  17
HETATM   17  C8  UNL     1     -28.860  -0.554  18.057  1.00  0.00     0.006 A 
HETATM   18  C7  UNL     1     -29.157  -1.890  18.180  1.00  0.00     0.016 A 
HETATM   19  C6  UNL     1     -29.251  -2.494  19.428  1.00  0.00     0.018 A 
HETATM   20  C5  UNL     1     -29.034  -1.688  20.539  1.00  0.00     0.090 A 
HETATM   21  N1  UNL     1     -28.745  -0.380  20.432  1.00  0.00    -0.364 N 
HETATM   22  C21 UNL     1     -28.659   0.178  19.199  1.00  0.00     0.104 A 
BRANCH  21  23
HETATM   23  C4  UNL     1     -28.536   0.375  21.641  1.00  0.00     0.154 C 
BRANCH  23  24
HETATM   24  C3  UNL     1     -27.205   1.095  21.647  1.00  0.00     0.187 C 
BRANCH  24  25
HETATM   25  O1  UNL     1     -26.328   0.566  22.603  1.00  0.00    -0.390 OA
BRANCH  25  26
HETATM   26  C2  UNL     1     -27.115   0.056  23.634  1.00  0.00     0.163 C 
HETATM   27  C1  UNL     1     -26.740   0.599  24.983  1.00  0.00     0.033 C 
ENDBRANCH  25  26
ENDBRANCH  24  25
ENDBRANCH  23  24
ENDBRANCH  21  23
ENDBRANCH   1  17
BRANCH  14  28
HETATM   28  C18 UNL     1     -31.148   1.237  14.163  1.00  0.00     0.055 C 
HETATM   29  C19 UNL     1     -31.794   2.506  14.739  1.00  0.00     0.011 C 
ENDBRANCH  14  28
BRANCH  10  30
HETATM   30  C14 UNL     1     -27.293   2.868  11.258  1.00  0.00     0.306 C 
BRANCH  30  31
HETATM   31  N4  UNL     1     -25.899   3.245  11.037  1.00  0.00    -0.073 N 
ATOM     32  H43 UNL     1     -25.318   3.163  11.871  1.00  0.00     0.274 HD
ATOM     33  H42 UNL     1     -25.385   2.579  10.460  1.00  0.00     0.274 HD
ATOM     34  H41 UNL     1     -25.918   4.188  10.648  1.00  0.00     0.274 HD
ENDBRANCH  30  31
ENDBRANCH  10  30
TORSDOF 8
ENDMDL
MODEL 3
REMARK VINA RESULT: -6.049981243      5.314      7.363
REMARK  8 active torsions:
REMARK  status: ('A' for Active; 'I' for Inactive)
REMARK    1  A    between atoms: C2_2  and  O1_3 
REMARK    2  A    between atoms: O1_3  and  C3_4 
REMARK    3  A    between atoms: C3_4  and  C4_5 
REMARK    4  A    between atoms: C4_5  and  N1_6 
REMARK    5  A    between atoms: C8_10  and  C9_11 
REMARK    6  A    between atoms: C13_20  and  C14_21 
REMARK    7  A    between atoms: C14_21  and  N4_22 
REMARK    8  A    between atoms: C17_29  and  C18_30 
ROOT
HETATM    1  C9  UNL     1     -27.348   1.897  13.294  1.00  0.00     0.047 A 
HETATM    2  C10 UNL     1     -28.475   1.156  13.432  1.00  0.00     0.048 A 
HETATM    3  C11 UNL     1     -29.480   1.234  12.497  1.00  0.00     0.039 A 
HETATM    4  C12 UNL     1     -30.618   0.477  12.680  1.00  0.00     0.113 A 
HETATM    5  N2  UNL     1     -30.681  -0.291  13.721  1.00  0.00    -0.385 N 
ATOM      6  H21 UNL     1     -31.523  -0.851  13.856  1.00  0.00     0.157 HD
ATOM      7  H22 UNL     1     -29.937  -0.371  14.415  1.00  0.00     0.157 HD
HETATM    8  N3  UNL     1     -31.582   0.580  11.780  1.00  0.00    -0.330 N 
ATOM      9  H3  UNL     1     -32.435   0.029  11.889  1.00  0.00     0.168 HD
HETATM   10  C13 UNL     1     -31.455   1.396  10.727  1.00  0.00     0.111 A 
HETATM   11  N5  UNL     1     -30.345   2.175  10.492  1.00  0.00    -0.337 N 
HETATM   12  C15 UNL     1     -30.319   3.105   9.433  1.00  0.00     0.158 C 
HETATM   13  C16 UNL     1     -29.336   2.088  11.388  1.00  0.00     0.072 A 
HETATM   14  C17 UNL     1     -28.194   2.839  11.233  1.00  0.00     0.039 A 
HETATM   15  N6  UNL     1     -27.244   2.692  12.230  1.00  0.00    -0.352 N 
HETATM   16  C20 UNL     1     -26.020   3.516  12.074  1.00  0.00     0.156 C 
ENDROOT
BRANCH   1  17
HETATM   17  C8  UNL     1     -26.257   1.850  14.262  1.00  0.00     0.006 A 
HETATM   18  C7  UNL     1     -26.468   2.079  15.600  1.00  0.00     0.016 A 
HETATM   19  C6  UNL     1     -25.422   2.020  16.513  1.00  0.00     0.018 A 
HETATM   20  C5  UNL     1     -24.160   1.721  16.012  1.00  0.00     0.090 A 
HETATM   21  N1  UNL     1     -23.941   1.496  14.706  1.00  0.00    -0.364 N 
HETATM   22  C21 UNL     1     -24.985   1.560  13.841  1.00  0.00     0.104 A 
BRANCH  21  23
HETATM   23  C4  UNL     1     -22.599   1.192  14.279  1.00  0.00     0.154 C 
BRANCH  23  24
HETATM   24  C3  UNL     1     -21.556   1.750  15.222  1.00  0.00     0.187 C 
BRANCH  24  25
HETATM   25  O1  UNL     1     -20.335   1.071  15.112  1.00  0.00    -0.390 OA
BRANCH  25  26
HETATM   26  C2  UNL     1     -20.062   0.525  16.364  1.00  0.00     0.163 C 
HETATM   27  C1  UNL     1     -20.466   1.425  17.497  1.00  0.00     0.033 C 
ENDBRANCH  25  26
ENDBRANCH  24  25
ENDBRANCH  23  24
ENDBRANCH  21  23
ENDBRANCH   1  17
BRANCH  14  28
HETATM   28  C18 UNL     1     -27.905   3.589  10.035  1.00  0.00     0.055 C 
HETATM   29  C19 UNL     1     -27.005   2.839   9.041  1.00  0.00     0.011 C 
ENDBRANCH  14  28
BRANCH  10  30
HETATM   30  C14 UNL     1     -32.538   1.495   9.700  1.00  0.00     0.306 C 
BRANCH  30  31
HETATM   31  N4  UNL     1     -32.715   0.148   9.163  1.00  0.00    -0.073 N 
ATOM     32  H43 UNL     1     -31.873  -0.230   8.729  1.00  0.00     0.274 HD
ATOM     33  H42 UNL     1     -32.817  -0.566   9.884  1.00  0.00     0.274 HD
ATOM     34  H41 UNL     1     -33.511   0.198   8.526  1.00  0.00     0.274 HD
ENDBRANCH  30  31
ENDBRANCH  10  30
TORSDOF 8
ENDMDL
MODEL 4
REMARK VINA RESULT: -5.996242715      3.491      8.387
REMARK  8 active torsions:
REMARK  status: ('A' for Active; 'I' for Inactive)
REMARK    1  A    between atoms: C2_2  and  O1_3 
REMARK    2  A    between atoms: O1_3  and  C3_4 
REMARK    3  A    between atoms: C3_4  and  C4_5 
REMARK    4  A    between atoms: C4_5  and  N1_6 
REMARK    5  A    between atoms: C8_10  and  C9_11 
REMARK    6  A    between atoms: C13_20  and  C14_21 
REMARK    7  A    between atoms: C14_21  and  N4_22 
REMARK    8  A    between atoms: C17_29  and  C18_30 
ROOT
HETATM    1  C9  UNL     1     -28.187   1.005  16.330  1.00  0.00     0.047 A 
HETATM    2  C10 UNL     1     -26.992   1.075  15.693  1.00  0.00     0.048 A 
HETATM    3  C11 UNL     1     -26.889   1.694  14.470  1.00  0.00     0.039 A 
HETATM    4  C12 UNL     1     -25.660   1.732  13.845  1.00  0.00     0.113 A 
HETATM    5  N2  UNL     1     -24.649   1.195  14.452  1.00  0.00    -0.385 N 
ATOM      6  H21 UNL     1     -23.741   1.223  13.989  1.00  0.00     0.157 HD
ATOM      7  H22 UNL     1     -24.707   0.746  15.366  1.00  0.00     0.157 HD
HETATM    8  N3  UNL     1     -25.585   2.314  12.660  1.00  0.00    -0.330 N 
ATOM      9  H3  UNL     1     -24.687   2.358  12.176  1.00  0.00     0.168 HD
HETATM   10  C13 UNL     1     -26.670   2.847  12.086  1.00  0.00     0.111 A 
HETATM   11  N5  UNL     1     -27.921   2.840  12.660  1.00  0.00    -0.337 N 
HETATM   12  C15 UNL     1     -29.048   3.308  11.955  1.00  0.00     0.158 C 
HETATM   13  C16 UNL     1     -28.033   2.260  13.876  1.00  0.00     0.072 A 
HETATM   14  C17 UNL     1     -29.249   2.202  14.516  1.00  0.00     0.039 A 
HETATM   15  N6  UNL     1     -29.248   1.555  15.741  1.00  0.00    -0.352 N 
HETATM   16  C20 UNL     1     -30.562   1.475  16.424  1.00  0.00     0.156 C 
ENDROOT
BRANCH   1  17
HETATM   17  C8  UNL     1     -28.345   0.356  17.627  1.00  0.00     0.006 A 
HETATM   18  C7  UNL     1     -27.870   0.925  18.784  1.00  0.00     0.016 A 
HETATM   19  C6  UNL     1     -28.037   0.301  20.015  1.00  0.00     0.018 A 
HETATM   20  C5  UNL     1     -28.703  -0.919  20.019  1.00  0.00     0.090 A 
HETATM   21  N1  UNL     1     -29.171  -1.487  18.895  1.00  0.00    -0.364 N 
HETATM   22  C21 UNL     1     -28.991  -0.850  17.711  1.00  0.00     0.104 A 
BRANCH  21  23
HETATM   23  C4  UNL     1     -29.848  -2.754  18.999  1.00  0.00     0.154 C 
BRANCH  23  24
HETATM   24  C3  UNL     1     -29.396  -3.551  20.203  1.00  0.00     0.187 C 
BRANCH  24  25
HETATM   25  O1  UNL     1     -30.479  -3.980  20.983  1.00  0.00    -0.390 OA
BRANCH  25  26
HETATM   26  C2  UNL     1     -30.112  -5.201  21.545  1.00  0.00     0.163 C 
HETATM   27  C1  UNL     1     -31.219  -5.842  22.331  1.00  0.00     0.033 C 
ENDBRANCH  25  26
ENDBRANCH  24  25
ENDBRANCH  23  24
ENDBRANCH  21  23
ENDBRANCH   1  17
BRANCH  14  28
HETATM   28  C18 UNL     1     -30.413   2.917  14.054  1.00  0.00     0.055 C 
HETATM   29  C19 UNL     1     -30.601   4.287  14.721  1.00  0.00     0.011 C 
ENDBRANCH  14  28
BRANCH  10  30
HETATM   30  C14 UNL     1     -26.578   3.523  10.755  1.00  0.00     0.306 C 
BRANCH  30  31
HETATM   31  N4  UNL     1     -25.158   3.783  10.526  1.00  0.00    -0.073 N 
ATOM     32  H43 UNL     1     -24.543   3.221  11.115  1.00  0.00     0.274 HD
ATOM     33  H42 UNL     1     -24.822   3.436   9.627  1.00  0.00     0.274 HD
ATOM     34  H41 UNL     1     -25.029   4.787  10.647  1.00  0.00     0.274 HD
ENDBRANCH  30  31
ENDBRANCH  10  30
TORSDOF 8
ENDMDL
MODEL 5
REMARK VINA RESULT: -5.937946093      4.930      7.651
REMARK  8 active torsions:
REMARK  status: ('A' for Active; 'I' for Inactive)
REMARK    1  A    between atoms: C2_2  and  O1_3 
REMARK    2  A    between atoms: O1_3  and  C3_4 
REMARK    3  A    between atoms: C3_4  and  C4_5 
REMARK    4  A    between atoms: C4_5  and  N1_6 
REMARK    5  A    between atoms: C8_10  and  C9_11 
REMARK    6  A    between atoms: C13_20  and  C14_21 
REMARK    7  A    between atoms: C14_21  and  N4_22 
REMARK    8  A    between atoms: C17_29  and  C18_30 
ROOT
HETATM    1  C9  UNL     1     -26.874   1.890  13.570  1.00  0.00     0.047 A 
HETATM    2  C10 UNL     1     -26.916   2.706  12.488  1.00  0.00     0.048 A 
HETATM    3  C11 UNL     1     -28.001   2.688  11.643  1.00  0.00     0.039 A 
HETATM    4  C12 UNL     1     -28.001   3.521  10.544  1.00  0.00     0.113 A 
HETATM    5  N2  UNL     1     -26.982   4.300  10.368  1.00  0.00    -0.385 N 
ATOM      6  H21 UNL     1     -26.982   4.916   9.555  1.00  0.00     0.157 HD
ATOM      7  H22 UNL     1     -26.177   4.335  10.994  1.00  0.00     0.157 HD
HETATM    8  N3  UNL     1     -29.045   3.476   9.733  1.00  0.00    -0.330 N 
ATOM      9  H3  UNL     1     -29.072   4.083   8.913  1.00  0.00     0.168 HD
HETATM   10  C13 UNL     1     -30.065   2.644   9.972  1.00  0.00     0.111 A 
HETATM   11  N5  UNL     1     -30.122   1.790  11.050  1.00  0.00    -0.337 N 
HETATM   12  C15 UNL     1     -31.165   0.853  11.182  1.00  0.00     0.158 C 
HETATM   13  C16 UNL     1     -29.075   1.816  11.906  1.00  0.00     0.072 A 
HETATM   14  C17 UNL     1     -29.047   0.990  13.004  1.00  0.00     0.039 A 
HETATM   15  N6  UNL     1     -27.909   1.080  13.790  1.00  0.00    -0.352 N 
HETATM   16  C20 UNL     1     -27.869   0.176  14.965  1.00  0.00     0.156 C 
ENDROOT
BRANCH   1  17
HETATM   17  C8  UNL     1     -25.743   1.871  14.492  1.00  0.00     0.006 A 
HETATM   18  C7  UNL     1     -25.901   2.112  15.835  1.00  0.00     0.016 A 
HETATM   19  C6  UNL     1     -24.816   2.080  16.704  1.00  0.00     0.018 A 
HETATM   20  C5  UNL     1     -23.573   1.795  16.153  1.00  0.00     0.090 A 
HETATM   21  N1  UNL     1     -23.405   1.559  14.842  1.00  0.00    -0.364 N 
HETATM   22  C21 UNL     1     -24.485   1.597  14.021  1.00  0.00     0.104 A 
BRANCH  21  23
HETATM   23  C4  UNL     1     -22.077   1.273  14.362  1.00  0.00     0.154 C 
BRANCH  23  24
HETATM   24  C3  UNL     1     -21.019   1.514  15.417  1.00  0.00     0.187 C 
BRANCH  24  25
HETATM   25  O1  UNL     1     -20.127   0.439  15.519  1.00  0.00    -0.390 OA
BRANCH  25  26
HETATM   26  C2  UNL     1     -19.784   0.326  16.865  1.00  0.00     0.163 C 
HETATM   27  C1  UNL     1     -20.285   1.473  17.696  1.00  0.00     0.033 C 
ENDBRANCH  25  26
ENDBRANCH  24  25
ENDBRANCH  23  24
ENDBRANCH  21  23
ENDBRANCH   1  17
BRANCH  14  28
HETATM   28  C18 UNL     1     -30.185   0.213  13.430  1.00  0.00     0.055 C 
HETATM   29  C19 UNL     1     -31.023   0.894  14.523  1.00  0.00     0.011 C 
ENDBRANCH  14  28
BRANCH  10  30
HETATM   30  C14 UNL     1     -31.253   2.609   9.063  1.00  0.00     0.306 C 
BRANCH  30  31
HETATM   31  N4  UNL     1     -30.736   2.328   7.726  1.00  0.00    -0.073 N 
ATOM     32  H43 UNL     1     -31.443   1.972   7.083  1.00  0.00     0.274 HD
ATOM     33  H42 UNL     1     -30.498   3.169   7.198  1.00  0.00     0.274 HD
ATOM     34  H41 UNL     1     -29.948   1.693   7.853  1.00  0.00     0.274 HD
ENDBRANCH  30  31
ENDBRANCH  10  30
TORSDOF 8
ENDMDL
