MODEL 1
REMARK VINA RESULT: -7.799052860      0.000      0.000
REMARK  5 active torsions:
REMARK  status: ('A' for Active; 'I' for Inactive)
REMARK    1  A    between atoms: O1_1  and  C1_3 
REMARK    2  A    between atoms: C1_3  and  C2_4 
REMARK    3  A    between atoms: C1_3  and  C9_13 
REMARK    4  A    between atoms: C9_13  and  C10_15 
REMARK    5  A    between atoms: C11_16  and  C12_17 
ROOT
HETATM    1  C1  UNL     1      16.943 -12.074  19.802  1.00  0.00     0.186 C 
ENDROOT
BRANCH   1   2
HETATM    2  O1  UNL     1      16.830 -13.454  20.024  1.00  0.00    -0.388 OA
ATOM      3  H1  UNL     1      17.688 -13.851  20.107  1.00  0.00     0.210 HD
ENDBRANCH   1   2
BRANCH   1   4
HETATM    4  C2  UNL     1      15.759 -11.364  20.325  1.00  0.00     0.052 A 
HETATM    5  C3  UNL     1      14.665 -11.747  20.960  1.00  0.00     0.016 A 
HETATM    6  C4  UNL     1      13.845 -12.722  21.539  1.00  0.00     0.016 A 
HETATM    7  C8  UNL     1      14.254 -10.432  20.985  1.00  0.00     0.044 A 
HETATM    8  C5  UNL     1      12.651 -12.373  22.120  1.00  0.00     0.001 A 
HETATM    9  C6  UNL     1      12.232 -11.067  22.150  1.00  0.00     0.002 A 
HETATM   10  C7  UNL     1      13.041 -10.098  21.578  1.00  0.00     0.030 A 
HETATM   11  N1  UNL     1      15.304 -10.029  20.370  1.00  0.00    -0.356 N 
ATOM     12  H1  UNL     1      15.660  -9.129  20.050  1.00  0.00     0.166 HD
ENDBRANCH   1   4
BRANCH   1  13
HETATM   13  C9  UNL     1      18.220 -11.618  20.488  1.00  0.00     0.115 C 
HETATM   14 BR1  UNL     1      19.787 -12.238  19.579  1.00  0.00    -0.084 Br
BRANCH  13  15
HETATM   15  C10 UNL     1      18.190 -12.243  21.866  1.00  0.00    -0.007 C 
HETATM   16  C11 UNL     1      19.307 -12.744  22.317  1.00  0.00     0.008 C 
BRANCH  16  17
HETATM   17  C12 UNL     1      19.360 -13.366  23.641  1.00  0.00    -0.036 A 
HETATM   18  C13 UNL     1      18.486 -14.331  24.076  1.00  0.00     0.011 A 
HETATM   19  C14 UNL     1      18.578 -14.897  25.352  1.00  0.00     0.001 A 
HETATM   20  C15 UNL     1      19.557 -14.505  26.236  1.00  0.00     0.000 A 
HETATM   21  C16 UNL     1      20.434 -13.536  25.801  1.00  0.00     0.001 A 
HETATM   22  C17 UNL     1      20.355 -12.974  24.549  1.00  0.00     0.011 A 
ENDBRANCH  16  17
ENDBRANCH  13  15
ENDBRANCH   1  13
TORSDOF 5
ENDMDL
MODEL 2
REMARK VINA RESULT: -7.794220000      0.137      1.058
REMARK  5 active torsions:
REMARK  status: ('A' for Active; 'I' for Inactive)
REMARK    1  A    between atoms: O1_1  and  C1_3 
REMARK    2  A    between atoms: C1_3  and  C2_4 
REMARK    3  A    between atoms: C1_3  and  C9_13 
REMARK    4  A    between atoms: C9_13  and  C10_15 
REMARK    5  A    between atoms: C11_16  and  C12_17 
ROOT
HETATM    1  C1  UNL     1      16.883 -12.041  19.769  1.00  0.00     0.186 C 
ENDROOT
BRANCH   1   2
HETATM    2  O1  UNL     1      16.762 -13.423  19.976  1.00  0.00    -0.388 OA
ATOM      3  H1  UNL     1      17.143 -13.904  19.251  1.00  0.00     0.210 HD
ENDBRANCH   1   2
BRANCH   1   4
HETATM    4  C2  UNL     1      15.709 -11.329  20.311  1.00  0.00     0.052 A 
HETATM    5  C3  UNL     1      14.620 -11.711  20.955  1.00  0.00     0.016 A 
HETATM    6  C4  UNL     1      13.800 -12.688  21.533  1.00  0.00     0.016 A 
HETATM    7  C8  UNL     1      14.217 -10.395  20.996  1.00  0.00     0.044 A 
HETATM    8  C5  UNL     1      12.615 -12.337  22.130  1.00  0.00     0.001 A 
HETATM    9  C6  UNL     1      12.203 -11.029  22.177  1.00  0.00     0.002 A 
HETATM   10  C7  UNL     1      13.012 -10.059  21.605  1.00  0.00     0.030 A 
HETATM   11  N1  UNL     1      15.263  -9.993  20.373  1.00  0.00    -0.356 N 
ATOM     12  H1  UNL     1      15.620  -9.091  20.058  1.00  0.00     0.166 HD
ENDBRANCH   1   4
BRANCH   1  13
HETATM   13  C9  UNL     1      18.170 -11.601  20.447  1.00  0.00     0.115 C 
HETATM   14 BR1  UNL     1      19.723 -12.247  19.532  1.00  0.00    -0.084 Br
BRANCH  13  15
HETATM   15  C10 UNL     1      18.137 -12.221  21.828  1.00  0.00    -0.007 C 
HETATM   16  C11 UNL     1      19.248 -12.744  22.271  1.00  0.00     0.008 C 
BRANCH  16  17
HETATM   17  C12 UNL     1      19.298 -13.363  23.597  1.00  0.00    -0.036 A 
HETATM   18  C13 UNL     1      20.262 -13.099  24.537  1.00  0.00     0.011 A 
HETATM   19  C14 UNL     1      20.267 -13.717  25.792  1.00  0.00     0.001 A 
HETATM   20  C15 UNL     1      19.295 -14.628  26.140  1.00  0.00     0.000 A 
HETATM   21  C16 UNL     1      18.327 -14.894  25.198  1.00  0.00     0.001 A 
HETATM   22  C17 UNL     1      18.311 -14.292  23.962  1.00  0.00     0.011 A 
ENDBRANCH  16  17
ENDBRANCH  13  15
ENDBRANCH   1  13
TORSDOF 5
ENDMDL
MODEL 3
REMARK VINA RESULT: -7.603926472      1.282      1.467
REMARK  5 active torsions:
REMARK  status: ('A' for Active; 'I' for Inactive)
REMARK    1  A    between atoms: O1_1  and  C1_3 
REMARK    2  A    between atoms: C1_3  and  C2_4 
REMARK    3  A    between atoms: C1_3  and  C9_13 
REMARK    4  A    between atoms: C9_13  and  C10_15 
REMARK    5  A    between atoms: C11_16  and  C12_17 
ROOT
HETATM    1  C1  UNL     1      16.832 -12.897  21.275  1.00  0.00     0.186 C 
ENDROOT
BRANCH   1   2
HETATM    2  O1  UNL     1      16.548 -13.643  22.428  1.00  0.00    -0.388 OA
ATOM      3  H1  UNL     1      16.711 -14.566  22.278  1.00  0.00     0.210 HD
ENDBRANCH   1   2
BRANCH   1   4
HETATM    4  C2  UNL     1      15.805 -11.858  21.061  1.00  0.00     0.052 A 
HETATM    5  C3  UNL     1      14.531 -11.743  21.397  1.00  0.00     0.016 A 
HETATM    6  C4  UNL     1      13.362 -12.216  22.003  1.00  0.00     0.016 A 
HETATM    7  C8  UNL     1      14.509 -10.514  20.775  1.00  0.00     0.044 A 
HETATM    8  C5  UNL     1      12.212 -11.466  21.976  1.00  0.00     0.001 A 
HETATM    9  C6  UNL     1      12.177 -10.241  21.359  1.00  0.00     0.002 A 
HETATM   10  C7  UNL     1      13.334  -9.769  20.758  1.00  0.00     0.030 A 
HETATM   11  N1  UNL     1      15.742 -10.596  20.435  1.00  0.00    -0.356 N 
ATOM     12  H1  UNL     1      16.398 -10.002  19.928  1.00  0.00     0.166 HD
ENDBRANCH   1   4
BRANCH   1  13
HETATM   13  C9  UNL     1      18.213 -12.292  21.467  1.00  0.00     0.115 C 
HETATM   14 BR1  UNL     1      19.449 -12.880  20.129  1.00  0.00    -0.084 Br
BRANCH  13  15
HETATM   15  C10 UNL     1      18.694 -12.790  22.813  1.00  0.00    -0.007 C 
HETATM   16  C11 UNL     1      19.971 -13.028  22.937  1.00  0.00     0.008 C 
BRANCH  16  17
HETATM   17  C12 UNL     1      20.515 -13.512  24.207  1.00  0.00    -0.036 A 
HETATM   18  C13 UNL     1      21.117 -14.733  24.373  1.00  0.00     0.011 A 
HETATM   19  C14 UNL     1      21.622 -15.152  25.609  1.00  0.00     0.001 A 
HETATM   20  C15 UNL     1      21.534 -14.348  26.723  1.00  0.00     0.000 A 
HETATM   21  C16 UNL     1      20.929 -13.122  26.558  1.00  0.00     0.001 A 
HETATM   22  C17 UNL     1      20.430 -12.700  25.349  1.00  0.00     0.011 A 
ENDBRANCH  16  17
ENDBRANCH  13  15
ENDBRANCH   1  13
TORSDOF 5
ENDMDL
MODEL 4
REMARK VINA RESULT: -7.571962662      3.077      4.281
REMARK  5 active torsions:
REMARK  status: ('A' for Active; 'I' for Inactive)
REMARK    1  A    between atoms: O1_1  and  C1_3 
REMARK    2  A    between atoms: C1_3  and  C2_4 
REMARK    3  A    between atoms: C1_3  and  C9_13 
REMARK    4  A    between atoms: C9_13  and  C10_15 
REMARK    5  A    between atoms: C11_16  and  C12_17 
ROOT
HETATM    1  C1  UNL     1      12.592 -13.575  21.056  1.00  0.00     0.186 C 
ENDROOT
BRANCH   1   2
HETATM    2  O1  UNL     1      13.002 -14.474  22.052  1.00  0.00    -0.388 OA
ATOM      3  H1  UNL     1      12.386 -14.475  22.775  1.00  0.00     0.210 HD
ENDBRANCH   1   2
BRANCH   1   4
HETATM    4  C2  UNL     1      12.676 -12.184  21.544  1.00  0.00     0.052 A 
HETATM    5  C3  UNL     1      12.095 -11.520  22.528  1.00  0.00     0.016 A 
HETATM    6  C4  UNL     1      11.225 -11.433  23.620  1.00  0.00     0.016 A 
HETATM    7  C8  UNL     1      12.801 -10.399  22.149  1.00  0.00     0.044 A 
HETATM    8  C5  UNL     1      11.077 -10.250  24.301  1.00  0.00     0.001 A 
HETATM    9  C6  UNL     1      11.775  -9.127  23.933  1.00  0.00     0.002 A 
HETATM   10  C7  UNL     1      12.638  -9.210  22.851  1.00  0.00     0.030 A 
HETATM   11  N1  UNL     1      13.381 -11.016  21.186  1.00  0.00    -0.356 N 
ATOM     12  H1  UNL     1      14.062 -10.769  20.469  1.00  0.00     0.166 HD
ENDBRANCH   1   4
BRANCH   1  13
HETATM   13  C9  UNL     1      13.492 -13.805  19.853  1.00  0.00     0.115 C 
HETATM   14 BR1  UNL     1      13.189 -15.513  19.043  1.00  0.00    -0.084 Br
BRANCH  13  15
HETATM   15  C10 UNL     1      14.907 -13.775  20.390  1.00  0.00    -0.007 C 
HETATM   16  C11 UNL     1      15.810 -13.186  19.655  1.00  0.00     0.008 C 
BRANCH  16  17
HETATM   17  C12 UNL     1      17.201 -13.116  20.104  1.00  0.00    -0.036 A 
HETATM   18  C13 UNL     1      17.763 -13.975  21.016  1.00  0.00     0.011 A 
HETATM   19  C14 UNL     1      19.100 -13.866  21.414  1.00  0.00     0.001 A 
HETATM   20  C15 UNL     1      19.917 -12.884  20.904  1.00  0.00     0.000 A 
HETATM   21  C16 UNL     1      19.355 -12.021  19.989  1.00  0.00     0.001 A 
HETATM   22  C17 UNL     1      18.043 -12.118  19.590  1.00  0.00     0.011 A 
ENDBRANCH  16  17
ENDBRANCH  13  15
ENDBRANCH   1  13
TORSDOF 5
ENDMDL
MODEL 5
REMARK VINA RESULT: -7.542486829      3.133      4.414
REMARK  5 active torsions:
REMARK  status: ('A' for Active; 'I' for Inactive)
REMARK    1  A    between atoms: O1_1  and  C1_3 
REMARK    2  A    between atoms: C1_3  and  C2_4 
REMARK    3  A    between atoms: C1_3  and  C9_13 
REMARK    4  A    between atoms: C9_13  and  C10_15 
REMARK    5  A    between atoms: C11_16  and  C12_17 
ROOT
HETATM    1  C1  UNL     1      12.530 -13.509  21.096  1.00  0.00     0.186 C 
ENDROOT
BRANCH   1   2
HETATM    2  O1  UNL     1      12.953 -14.407  22.086  1.00  0.00    -0.388 OA
ATOM      3  H1  UNL     1      13.817 -14.745  21.884  1.00  0.00     0.210 HD
ENDBRANCH   1   2
BRANCH   1   4
HETATM    4  C2  UNL     1      12.651 -12.116  21.570  1.00  0.00     0.052 A 
HETATM    5  C3  UNL     1      12.083 -11.424  22.543  1.00  0.00     0.016 A 
HETATM    6  C4  UNL     1      11.207 -11.300  23.627  1.00  0.00     0.016 A 
HETATM    7  C8  UNL     1      12.825 -10.329  22.158  1.00  0.00     0.044 A 
HETATM    8  C5  UNL     1      11.090 -10.106  24.294  1.00  0.00     0.001 A 
HETATM    9  C6  UNL     1      11.824  -9.009  23.920  1.00  0.00     0.002 A 
HETATM   10  C7  UNL     1      12.693  -9.128  22.847  1.00  0.00     0.030 A 
HETATM   11  N1  UNL     1      13.394 -10.973  21.206  1.00  0.00    -0.356 N 
ATOM     12  H1  UNL     1      14.087 -10.754  20.492  1.00  0.00     0.166 HD
ENDBRANCH   1   4
BRANCH   1  13
HETATM   13  C9  UNL     1      13.390 -13.763  19.869  1.00  0.00     0.115 C 
HETATM   14 BR1  UNL     1      13.080 -15.496  19.119  1.00  0.00    -0.084 Br
BRANCH  13  15
HETATM   15  C10 UNL     1      14.822 -13.702  20.355  1.00  0.00    -0.007 C 
HETATM   16  C11 UNL     1      15.693 -13.132  19.567  1.00  0.00     0.008 C 
BRANCH  16  17
HETATM   17  C12 UNL     1      17.099 -13.034  19.964  1.00  0.00    -0.036 A 
HETATM   18  C13 UNL     1      17.978 -12.103  19.470  1.00  0.00     0.011 A 
HETATM   19  C14 UNL     1      19.314 -12.049  19.881  1.00  0.00     0.001 A 
HETATM   20  C15 UNL     1      19.809 -12.938  20.808  1.00  0.00     0.000 A 
HETATM   21  C16 UNL     1      18.928 -13.873  21.305  1.00  0.00     0.001 A 
HETATM   22  C17 UNL     1      17.614 -13.935  20.909  1.00  0.00     0.011 A 
ENDBRANCH  16  17
ENDBRANCH  13  15
ENDBRANCH   1  13
TORSDOF 5
ENDMDL
