MODEL 1
REMARK VINA RESULT: -7.827395784      0.000      0.000
REMARK  9 active torsions:
REMARK  status: ('A' for Active; 'I' for Inactive)
REMARK    1  A    between atoms: C2_2  and  C3_3 
REMARK    2  A    between atoms: N1_6  and  C6_7 
REMARK    3  A    between atoms: C6_7  and  C7_8 
REMARK    4  A    between atoms: C7_8  and  C8_9 
REMARK    5  A    between atoms: C8_9  and  C9_10 
REMARK    6  A    between atoms: N2_13  and  C12_14 
REMARK    7  A    between atoms: C14_16  and  C15_17 
REMARK    8  A    between atoms: C15_17  and  N3_18 
REMARK    9  A    between atoms: C20_27  and  N7_28 
ROOT
HETATM    1  C9  UNL     1     -27.255   1.016  15.106  1.00  0.00     0.014 A 
HETATM    2  C10 UNL     1     -27.795   0.602  13.896  1.00  0.00     0.042 A 
HETATM    3  C11 UNL     1     -29.098   0.236  13.872  1.00  0.00     0.094 A 
HETATM    4  N2  UNL     1     -29.857   0.268  14.983  1.00  0.00    -0.345 N 
HETATM    5  C14 UNL     1     -29.363   0.662  16.174  1.00  0.00     0.105 A 
HETATM    6  N6  UNL     1     -28.051   1.038  16.209  1.00  0.00    -0.343 N 
HETATM    7  C19 UNL     1     -27.412   1.575  17.390  1.00  0.00     0.157 C 
ENDROOT
BRANCH   1   8
HETATM    8  C8  UNL     1     -25.807   1.398  15.130  1.00  0.00     0.059 C 
BRANCH   8   9
HETATM    9  C7  UNL     1     -25.319   1.758  13.766  1.00  0.00     0.027 C 
BRANCH   9  10
HETATM   10  C6  UNL     1     -24.051   2.523  13.683  1.00  0.00     0.147 C 
BRANCH  10  11
HETATM   11  N1  UNL     1     -22.957   2.044  14.475  1.00  0.00    -0.194 N 
HETATM   12  C5  UNL     1     -22.514   2.774  15.544  1.00  0.00     0.111 A 
HETATM   13  C4  UNL     1     -21.481   2.362  16.357  1.00  0.00     0.043 A 
HETATM   14  C3  UNL     1     -20.860   1.161  16.088  1.00  0.00     0.027 A 
HETATM   15  N8  UNL     1     -21.305   0.457  15.037  1.00  0.00    -0.196 N 
HETATM   16  C20 UNL     1     -22.332   0.882  14.240  1.00  0.00     0.678 A 
ATOM     17  H8  UNL     1     -20.859  -0.434  14.822  1.00  0.00     0.184 HD
BRANCH  14  18
HETATM   18  C2  UNL     1     -19.729   0.666  16.942  1.00  0.00     0.053 C 
HETATM   19  C1  UNL     1     -19.864   1.188  18.342  1.00  0.00     0.011 C 
ENDBRANCH  14  18
BRANCH  16  20
HETATM   20  N7  UNL     1     -22.659   0.124  13.242  1.00  0.00    -0.234 N 
ATOM     21  H72 UNL     1     -23.178   0.557  12.479  1.00  0.00     0.174 HD
ATOM     22  H71 UNL     1     -22.422  -0.868  13.223  1.00  0.00     0.174 HD
ENDBRANCH  16  20
ENDBRANCH  10  11
ENDBRANCH   9  10
ENDBRANCH   8   9
ENDBRANCH   1   8
BRANCH   5  23
HETATM   23  C15 UNL     1     -30.167   0.640  17.406  1.00  0.00     0.222 C 
BRANCH  23  24
HETATM   24  N3  UNL     1     -30.235  -0.616  18.113  1.00  0.00    -0.278 N 
HETATM   25  C16 UNL     1     -29.481  -0.984  19.148  1.00  0.00     0.134 A 
HETATM   26  C17 UNL     1     -29.825  -2.252  19.561  1.00  0.00     0.036 A 
HETATM   27  C18 UNL     1     -29.230  -3.035  20.679  1.00  0.00     0.071 C 
HETATM   28  N4  UNL     1     -30.803  -2.643  18.755  1.00  0.00    -0.287 N 
HETATM   29  N5  UNL     1     -31.041  -1.658  17.893  1.00  0.00    -0.020 NA
ATOM     30  H4  UNL     1     -31.287  -3.540  18.789  1.00  0.00     0.184 HD
ENDBRANCH  23  24
ENDBRANCH   5  23
BRANCH   4  31
HETATM   31  C12 UNL     1     -31.249  -0.062  14.808  1.00  0.00     0.125 C 
HETATM   32  C13 UNL     1     -31.479  -0.397  13.314  1.00  0.00     0.027 C 
ENDBRANCH   4  31
TORSDOF 9
ENDMDL
MODEL 2
REMARK VINA RESULT: -7.492889483      1.241      1.576
REMARK  9 active torsions:
REMARK  status: ('A' for Active; 'I' for Inactive)
REMARK    1  A    between atoms: C2_2  and  C3_3 
REMARK    2  A    between atoms: N1_6  and  C6_7 
REMARK    3  A    between atoms: C6_7  and  C7_8 
REMARK    4  A    between atoms: C7_8  and  C8_9 
REMARK    5  A    between atoms: C8_9  and  C9_10 
REMARK    6  A    between atoms: N2_13  and  C12_14 
REMARK    7  A    between atoms: C14_16  and  C15_17 
REMARK    8  A    between atoms: C15_17  and  N3_18 
REMARK    9  A    between atoms: C20_27  and  N7_28 
ROOT
HETATM    1  C9  UNL     1     -27.914   0.871  16.429  1.00  0.00     0.014 A 
HETATM    2  C10 UNL     1     -28.715   0.733  15.303  1.00  0.00     0.042 A 
HETATM    3  C11 UNL     1     -29.983   0.293  15.474  1.00  0.00     0.094 A 
HETATM    4  N2  UNL     1     -30.465  -0.005  16.695  1.00  0.00    -0.345 N 
HETATM    5  C14 UNL     1     -29.713   0.115  17.808  1.00  0.00     0.105 A 
HETATM    6  N6  UNL     1     -28.433   0.563  17.647  1.00  0.00    -0.343 N 
HETATM    7  C19 UNL     1     -27.543   0.834  18.756  1.00  0.00     0.157 C 
ENDROOT
BRANCH   1   8
HETATM    8  C8  UNL     1     -26.504   1.337  16.230  1.00  0.00     0.059 C 
BRANCH   8   9
HETATM    9  C7  UNL     1     -26.092   1.219  14.800  1.00  0.00     0.027 C 
BRANCH   9  10
HETATM   10  C6  UNL     1     -24.964   2.073  14.351  1.00  0.00     0.147 C 
BRANCH  10  11
HETATM   11  N1  UNL     1     -23.676   1.780  14.904  1.00  0.00    -0.194 N 
HETATM   12  C5  UNL     1     -23.297   2.342  16.093  1.00  0.00     0.111 A 
HETATM   13  C4  UNL     1     -22.081   2.087  16.689  1.00  0.00     0.043 A 
HETATM   14  C3  UNL     1     -21.200   1.229  16.066  1.00  0.00     0.027 A 
HETATM   15  N8  UNL     1     -21.586   0.687  14.902  1.00  0.00    -0.196 N 
HETATM   16  C20 UNL     1     -22.797   0.951  14.324  1.00  0.00     0.678 A 
ATOM     17  H8  UNL     1     -20.948   0.049  14.426  1.00  0.00     0.184 HD
BRANCH  14  18
HETATM   18  C2  UNL     1     -19.863   0.919  16.673  1.00  0.00     0.053 C 
HETATM   19  C1  UNL     1     -19.910   1.095  18.162  1.00  0.00     0.011 C 
ENDBRANCH  14  18
BRANCH  16  20
HETATM   20  N7  UNL     1     -23.046   0.382  13.188  1.00  0.00    -0.234 N 
ATOM     21  H72 UNL     1     -23.533  -0.514  13.213  1.00  0.00     0.174 HD
ATOM     22  H71 UNL     1     -22.756   0.801  12.304  1.00  0.00     0.174 HD
ENDBRANCH  16  20
ENDBRANCH  10  11
ENDBRANCH   9  10
ENDBRANCH   8   9
ENDBRANCH   1   8
BRANCH   5  23
HETATM   23  C15 UNL     1     -30.208  -0.268  19.139  1.00  0.00     0.222 C 
BRANCH  23  24
HETATM   24  N3  UNL     1     -30.004  -1.640  19.536  1.00  0.00    -0.278 N 
HETATM   25  C16 UNL     1     -30.619  -2.277  20.532  1.00  0.00     0.134 A 
HETATM   26  C17 UNL     1     -30.168  -3.575  20.619  1.00  0.00     0.036 A 
HETATM   27  C18 UNL     1     -30.592  -4.620  21.590  1.00  0.00     0.071 C 
HETATM   28  N4  UNL     1     -29.267  -3.711  19.654  1.00  0.00    -0.287 N 
HETATM   29  N5  UNL     1     -29.177  -2.550  19.013  1.00  0.00    -0.020 NA
ATOM     30  H4  UNL     1     -28.737  -4.557  19.443  1.00  0.00     0.184 HD
ENDBRANCH  23  24
ENDBRANCH   5  23
BRANCH   4  31
HETATM   31  C12 UNL     1     -31.855  -0.379  16.753  1.00  0.00     0.125 C 
HETATM   32  C13 UNL     1     -32.602   0.369  15.622  1.00  0.00     0.027 C 
ENDBRANCH   4  31
TORSDOF 9
ENDMDL
MODEL 3
REMARK VINA RESULT: -7.439795932      0.770      1.273
REMARK  9 active torsions:
REMARK  status: ('A' for Active; 'I' for Inactive)
REMARK    1  A    between atoms: C2_2  and  C3_3 
REMARK    2  A    between atoms: N1_6  and  C6_7 
REMARK    3  A    between atoms: C6_7  and  C7_8 
REMARK    4  A    between atoms: C7_8  and  C8_9 
REMARK    5  A    between atoms: C8_9  and  C9_10 
REMARK    6  A    between atoms: N2_13  and  C12_14 
REMARK    7  A    between atoms: C14_16  and  C15_17 
REMARK    8  A    between atoms: C15_17  and  N3_18 
REMARK    9  A    between atoms: C20_27  and  N7_28 
ROOT
HETATM    1  C9  UNL     1     -27.087   0.861  15.149  1.00  0.00     0.014 A 
HETATM    2  C10 UNL     1     -27.588   0.517  13.901  1.00  0.00     0.042 A 
HETATM    3  C11 UNL     1     -28.907   0.232  13.801  1.00  0.00     0.094 A 
HETATM    4  N2  UNL     1     -29.720   0.279  14.874  1.00  0.00    -0.345 N 
HETATM    5  C14 UNL     1     -29.265   0.606  16.100  1.00  0.00     0.105 A 
HETATM    6  N6  UNL     1     -27.935   0.900  16.211  1.00  0.00    -0.343 N 
HETATM    7  C19 UNL     1     -27.326   1.363  17.439  1.00  0.00     0.157 C 
ENDROOT
BRANCH   1   8
HETATM    8  C8  UNL     1     -25.622   1.153  15.256  1.00  0.00     0.059 C 
BRANCH   8   9
HETATM    9  C7  UNL     1     -25.073   1.655  13.962  1.00  0.00     0.027 C 
BRANCH   9  10
HETATM   10  C6  UNL     1     -23.866   2.516  14.030  1.00  0.00     0.147 C 
BRANCH  10  11
HETATM   11  N1  UNL     1     -22.806   2.071  14.884  1.00  0.00    -0.194 N 
HETATM   12  C5  UNL     1     -21.845   1.225  14.400  1.00  0.00     0.111 A 
HETATM   13  C4  UNL     1     -20.789   0.776  15.161  1.00  0.00     0.043 A 
HETATM   14  C3  UNL     1     -20.688   1.191  16.472  1.00  0.00     0.027 A 
HETATM   15  N8  UNL     1     -21.638   2.019  16.932  1.00  0.00    -0.196 N 
HETATM   16  C20 UNL     1     -22.680   2.456  16.162  1.00  0.00     0.678 A 
ATOM     17  H8  UNL     1     -21.580   2.337  17.899  1.00  0.00     0.184 HD
BRANCH  14  18
HETATM   18  C2  UNL     1     -19.558   0.730  17.345  1.00  0.00     0.053 C 
HETATM   19  C1  UNL     1     -19.851   1.031  18.785  1.00  0.00     0.011 C 
ENDBRANCH  14  18
BRANCH  16  20
HETATM   20  N7  UNL     1     -23.545   3.237  16.726  1.00  0.00    -0.234 N 
ATOM     21  H72 UNL     1     -23.547   4.215  16.436  1.00  0.00     0.174 HD
ATOM     22  H71 UNL     1     -24.188   2.897  17.441  1.00  0.00     0.174 HD
ENDBRANCH  16  20
ENDBRANCH  10  11
ENDBRANCH   9  10
ENDBRANCH   8   9
ENDBRANCH   1   8
BRANCH   5  23
HETATM   23  C15 UNL     1     -30.129   0.598  17.290  1.00  0.00     0.222 C 
BRANCH  23  24
HETATM   24  N3  UNL     1     -30.238  -0.651  18.002  1.00  0.00    -0.278 N 
HETATM   25  C16 UNL     1     -29.459  -1.063  19.002  1.00  0.00     0.134 A 
HETATM   26  C17 UNL     1     -29.856  -2.308  19.436  1.00  0.00     0.036 A 
HETATM   27  C18 UNL     1     -29.256  -3.124  20.526  1.00  0.00     0.071 C 
HETATM   28  N4  UNL     1     -30.893  -2.641  18.678  1.00  0.00    -0.287 N 
HETATM   29  N5  UNL     1     -31.114  -1.645  17.825  1.00  0.00    -0.020 NA
ATOM     30  H4  UNL     1     -31.427  -3.508  18.738  1.00  0.00     0.184 HD
ENDBRANCH  23  24
ENDBRANCH   5  23
BRANCH   4  31
HETATM   31  C12 UNL     1     -31.117   0.039  14.620  1.00  0.00     0.125 C 
HETATM   32  C13 UNL     1     -31.278  -0.331  13.125  1.00  0.00     0.027 C 
ENDBRANCH   4  31
TORSDOF 9
ENDMDL
MODEL 4
REMARK VINA RESULT: -7.132933773      1.183      2.618
REMARK  9 active torsions:
REMARK  status: ('A' for Active; 'I' for Inactive)
REMARK    1  A    between atoms: C2_2  and  C3_3 
REMARK    2  A    between atoms: N1_6  and  C6_7 
REMARK    3  A    between atoms: C6_7  and  C7_8 
REMARK    4  A    between atoms: C7_8  and  C8_9 
REMARK    5  A    between atoms: C8_9  and  C9_10 
REMARK    6  A    between atoms: N2_13  and  C12_14 
REMARK    7  A    between atoms: C14_16  and  C15_17 
REMARK    8  A    between atoms: C15_17  and  N3_18 
REMARK    9  A    between atoms: C20_27  and  N7_28 
ROOT
HETATM    1  C9  UNL     1     -26.626   1.581  15.755  1.00  0.00     0.014 A 
HETATM    2  C10 UNL     1     -25.891   2.265  16.713  1.00  0.00     0.042 A 
HETATM    3  C11 UNL     1     -26.485   2.536  17.898  1.00  0.00     0.094 A 
HETATM    4  N2  UNL     1     -27.752   2.157  18.152  1.00  0.00    -0.345 N 
HETATM    5  C14 UNL     1     -28.494   1.493  17.242  1.00  0.00     0.105 A 
HETATM    6  N6  UNL     1     -27.902   1.211  16.044  1.00  0.00    -0.343 N 
HETATM    7  C19 UNL     1     -28.540   0.422  15.012  1.00  0.00     0.157 C 
ENDROOT
BRANCH   1   8
HETATM    8  C8  UNL     1     -25.969   1.305  14.437  1.00  0.00     0.059 C 
BRANCH   8   9
HETATM    9  C7  UNL     1     -25.490   2.564  13.796  1.00  0.00     0.027 C 
BRANCH   9  10
HETATM   10  C6  UNL     1     -24.112   2.559  13.246  1.00  0.00     0.147 C 
BRANCH  10  11
HETATM   11  N1  UNL     1     -23.077   2.070  14.107  1.00  0.00    -0.194 N 
HETATM   12  C5  UNL     1     -22.623   2.844  15.140  1.00  0.00     0.111 A 
HETATM   13  C4  UNL     1     -21.646   2.426  16.016  1.00  0.00     0.043 A 
HETATM   14  C3  UNL     1     -21.093   1.174  15.852  1.00  0.00     0.027 A 
HETATM   15  N8  UNL     1     -21.548   0.428  14.834  1.00  0.00    -0.196 N 
HETATM   16  C20 UNL     1     -22.520   0.858  13.974  1.00  0.00     0.678 A 
ATOM     17  H8  UNL     1     -21.152  -0.501  14.697  1.00  0.00     0.184 HD
BRANCH  14  18
HETATM   18  C2  UNL     1     -20.025   0.672  16.778  1.00  0.00     0.053 C 
HETATM   19  C1  UNL     1     -20.007   1.479  18.043  1.00  0.00     0.011 C 
ENDBRANCH  14  18
BRANCH  16  20
HETATM   20  N7  UNL     1     -22.860   0.054  13.017  1.00  0.00    -0.234 N 
ATOM     21  H72 UNL     1     -22.176  -0.646  12.732  1.00  0.00     0.174 HD
ATOM     22  H71 UNL     1     -23.767   0.125  12.556  1.00  0.00     0.174 HD
ENDBRANCH  16  20
ENDBRANCH  10  11
ENDBRANCH   9  10
ENDBRANCH   8   9
ENDBRANCH   1   8
BRANCH   5  23
HETATM   23  C15 UNL     1     -29.899   1.130  17.485  1.00  0.00     0.222 C 
BRANCH  23  24
HETATM   24  N3  UNL     1     -30.150  -0.215  17.941  1.00  0.00    -0.278 N 
HETATM   25  C16 UNL     1     -29.358  -0.948  18.722  1.00  0.00     0.134 A 
HETATM   26  C17 UNL     1     -29.920  -2.185  18.947  1.00  0.00     0.036 A 
HETATM   27  C18 UNL     1     -29.363  -3.301  19.759  1.00  0.00     0.071 C 
HETATM   28  N4  UNL     1     -31.070  -2.185  18.285  1.00  0.00    -0.287 N 
HETATM   29  N5  UNL     1     -31.199  -1.004  17.688  1.00  0.00    -0.020 NA
ATOM     30  H4  UNL     1     -31.737  -2.955  18.242  1.00  0.00     0.184 HD
ENDBRANCH  23  24
ENDBRANCH   5  23
BRANCH   4  31
HETATM   31  C12 UNL     1     -28.239   2.427  19.480  1.00  0.00     0.125 C 
HETATM   32  C13 UNL     1     -27.611   3.758  19.962  1.00  0.00     0.027 C 
ENDBRANCH   4  31
TORSDOF 9
ENDMDL
MODEL 5
REMARK VINA RESULT: -7.116075301      1.326      1.568
REMARK  9 active torsions:
REMARK  status: ('A' for Active; 'I' for Inactive)
REMARK    1  A    between atoms: C2_2  and  C3_3 
REMARK    2  A    between atoms: N1_6  and  C6_7 
REMARK    3  A    between atoms: C6_7  and  C7_8 
REMARK    4  A    between atoms: C7_8  and  C8_9 
REMARK    5  A    between atoms: C8_9  and  C9_10 
REMARK    6  A    between atoms: N2_13  and  C12_14 
REMARK    7  A    between atoms: C14_16  and  C15_17 
REMARK    8  A    between atoms: C15_17  and  N3_18 
REMARK    9  A    between atoms: C20_27  and  N7_28 
ROOT
HETATM    1  C9  UNL     1     -28.227   2.294  14.050  1.00  0.00     0.014 A 
HETATM    2  C10 UNL     1     -28.668   1.471  13.023  1.00  0.00     0.042 A 
HETATM    3  C11 UNL     1     -29.664   0.595  13.292  1.00  0.00     0.094 A 
HETATM    4  N2  UNL     1     -30.218   0.515  14.517  1.00  0.00    -0.345 N 
HETATM    5  C14 UNL     1     -29.812   1.298  15.537  1.00  0.00     0.105 A 
HETATM    6  N6  UNL     1     -28.810   2.189  15.274  1.00  0.00    -0.343 N 
HETATM    7  C19 UNL     1     -28.340   3.158  16.240  1.00  0.00     0.157 C 
ENDROOT
BRANCH   1   8
HETATM    8  C8  UNL     1     -27.110   3.246  13.751  1.00  0.00     0.059 C 
BRANCH   8   9
HETATM    9  C7  UNL     1     -25.845   2.517  13.443  1.00  0.00     0.027 C 
BRANCH   9  10
HETATM   10  C6  UNL     1     -25.442   1.438  14.378  1.00  0.00     0.147 C 
BRANCH  10  11
HETATM   11  N1  UNL     1     -24.179   1.595  15.035  1.00  0.00    -0.194 N 
HETATM   12  C5  UNL     1     -24.113   2.217  16.252  1.00  0.00     0.111 A 
HETATM   13  C4  UNL     1     -22.935   2.384  16.946  1.00  0.00     0.043 A 
HETATM   14  C3  UNL     1     -21.764   1.906  16.397  1.00  0.00     0.027 A 
HETATM   15  N8  UNL     1     -21.845   1.299  15.204  1.00  0.00    -0.196 N 
HETATM   16  C20 UNL     1     -23.024   1.142  14.528  1.00  0.00     0.678 A 
ATOM     17  H8  UNL     1     -20.990   0.938  14.781  1.00  0.00     0.184 HD
BRANCH  14  18
HETATM   18  C2  UNL     1     -20.454   2.062  17.112  1.00  0.00     0.053 C 
HETATM   19  C1  UNL     1     -19.742   0.744  17.194  1.00  0.00     0.011 C 
ENDBRANCH  14  18
BRANCH  16  20
HETATM   20  N7  UNL     1     -22.971   0.557  13.374  1.00  0.00    -0.234 N 
ATOM     21  H72 UNL     1     -23.564   0.933  12.634  1.00  0.00     0.174 HD
ATOM     22  H71 UNL     1     -22.375  -0.254  13.212  1.00  0.00     0.174 HD
ENDBRANCH  16  20
ENDBRANCH  10  11
ENDBRANCH   9  10
ENDBRANCH   8   9
ENDBRANCH   1   8
BRANCH   5  23
HETATM   23  C15 UNL     1     -30.366   1.175  16.893  1.00  0.00     0.222 C 
BRANCH  23  24
HETATM   24  N3  UNL     1     -29.728   0.225  17.770  1.00  0.00    -0.278 N 
HETATM   25  C16 UNL     1     -30.191  -0.980  18.105  1.00  0.00     0.134 A 
HETATM   26  C17 UNL     1     -29.316  -1.606  18.964  1.00  0.00     0.036 A 
HETATM   27  C18 UNL     1     -29.454  -2.956  19.576  1.00  0.00     0.071 C 
HETATM   28  N4  UNL     1     -28.313  -0.755  19.142  1.00  0.00    -0.287 N 
HETATM   29  N5  UNL     1     -28.568   0.334  18.425  1.00  0.00    -0.020 NA
ATOM     30  H4  UNL     1     -27.491  -0.911  19.727  1.00  0.00     0.184 HD
ENDBRANCH  23  24
ENDBRANCH   5  23
BRANCH   4  31
HETATM   31  C12 UNL     1     -31.327  -0.395  14.651  1.00  0.00     0.125 C 
HETATM   32  C13 UNL     1     -32.080  -0.439  13.300  1.00  0.00     0.027 C 
ENDBRANCH   4  31
TORSDOF 9
ENDMDL
