MODEL 1
REMARK VINA RESULT: -7.418927744      0.000      0.000
REMARK  9 active torsions:
REMARK  status: ('A' for Active; 'I' for Inactive)
REMARK    1  A    between atoms: C4_5  and  C5_6 
REMARK    2  A    between atoms: C5_6  and  C6_7 
REMARK    3  A    between atoms: C6_7  and  C7_8 
REMARK    4  A    between atoms: C7_8  and  C8_9 
REMARK    5  A    between atoms: C8_9  and  N2_10 
REMARK    6  A    between atoms: C11_13  and  C12_14 
REMARK    7  A    between atoms: N3_15  and  O1_17 
REMARK    8  A    between atoms: O1_17  and  C13_18 
REMARK    9  A    between atoms: C16_26  and  N7_27 
ROOT
HETATM    1  N2  UNL     1     -27.538   2.253  14.453  1.00  0.00    -0.341 N 
HETATM    2  C9  UNL     1     -26.660   1.807  13.552  1.00  0.00     0.093 A 
HETATM    3  C10 UNL     1     -25.330   1.593  13.819  1.00  0.00     0.032 A 
HETATM    4  C11 UNL     1     -24.820   1.837  15.078  1.00  0.00     0.014 A 
HETATM    5  C15 UNL     1     -25.718   2.298  16.017  1.00  0.00     0.105 A 
HETATM    6  N6  UNL     1     -25.550   2.624  17.304  1.00  0.00    -0.187 N 
ATOM      7  H6  UNL     1     -24.675   2.580  17.827  1.00  0.00     0.184 HD
HETATM    8  C16 UNL     1     -26.744   3.019  17.785  1.00  0.00     0.678 A 
HETATM    9  N8  UNL     1     -27.644   2.941  16.809  1.00  0.00    -0.174 N 
ATOM     10  H8  UNL     1     -28.632   3.180  16.894  1.00  0.00     0.186 HD
HETATM   11  C17 UNL     1     -27.042   2.495  15.695  1.00  0.00     0.151 A 
ENDROOT
BRANCH   1  12
HETATM   12  C8  UNL     1     -28.943   2.489  14.234  1.00  0.00     0.130 C 
BRANCH  12  13
HETATM   13  C7  UNL     1     -29.726   1.311  13.784  1.00  0.00     0.021 C 
BRANCH  13  14
HETATM   14  C6  UNL     1     -29.876   0.194  14.772  1.00  0.00     0.006 C 
BRANCH  14  15
HETATM   15  C5  UNL     1     -30.375   0.726  16.072  1.00  0.00     0.039 C 
BRANCH  15  16
HETATM   16  C4  UNL     1     -30.107  -0.199  17.213  1.00  0.00    -0.056 A 
HETATM   17  C3  UNL     1     -28.911  -0.129  17.897  1.00  0.00     0.024 A 
HETATM   18  C2  UNL     1     -28.638  -0.987  18.970  1.00  0.00     0.090 A 
HETATM   19  N1  UNL     1     -29.537  -1.903  19.363  1.00  0.00    -0.371 N 
HETATM   20  C1  UNL     1     -29.259  -2.801  20.482  1.00  0.00     0.154 C 
HETATM   21  C19 UNL     1     -30.701  -1.974  18.701  1.00  0.00     0.090 A 
HETATM   22  C18 UNL     1     -31.018  -1.145  17.630  1.00  0.00     0.024 A 
ENDBRANCH  15  16
ENDBRANCH  14  15
ENDBRANCH  13  14
ENDBRANCH  12  13
ENDBRANCH   1  12
BRANCH   4  23
HETATM   23  C12 UNL     1     -23.420   1.613  15.365  1.00  0.00     0.128 C 
HETATM   24  N3  UNL     1     -22.495   2.474  15.423  1.00  0.00    -0.275 N 
ATOM     25  H3  UNL     1     -22.761   3.443  15.247  1.00  0.00     0.193 HD
BRANCH  24  26
HETATM   26  O1  UNL     1     -21.196   2.244  15.692  1.00  0.00    -0.252 OA
BRANCH  26  27
HETATM   27  C13 UNL     1     -20.865   1.129  16.544  1.00  0.00     0.304 A 
HETATM   28  C14 UNL     1     -20.022   1.502  17.678  1.00  0.00     0.129 A 
HETATM   29  N4  UNL     1     -19.055   0.805  17.257  1.00  0.00    -0.312 N 
HETATM   30  N5  UNL     1     -19.743   0.391  16.161  1.00  0.00    -0.101 NA
ATOM     31  H4  UNL     1     -18.114   0.623  17.606  1.00  0.00     0.181 HD
ENDBRANCH  26  27
ENDBRANCH  24  26
ENDBRANCH   4  23
BRANCH   8  32
HETATM   32  N7  UNL     1     -26.998   3.417  18.999  1.00  0.00    -0.234 N 
ATOM     33  H72 UNL     1     -27.318   4.352  19.249  1.00  0.00     0.174 HD
ATOM     34  H71 UNL     1     -26.914   2.862  19.850  1.00  0.00     0.174 HD
ENDBRANCH   8  32
TORSDOF 9
ENDMDL
MODEL 2
REMARK VINA RESULT: -7.307444722      1.680      2.547
REMARK  9 active torsions:
REMARK  status: ('A' for Active; 'I' for Inactive)
REMARK    1  A    between atoms: C4_5  and  C5_6 
REMARK    2  A    between atoms: C5_6  and  C6_7 
REMARK    3  A    between atoms: C6_7  and  C7_8 
REMARK    4  A    between atoms: C7_8  and  C8_9 
REMARK    5  A    between atoms: C8_9  and  N2_10 
REMARK    6  A    between atoms: C11_13  and  C12_14 
REMARK    7  A    between atoms: N3_15  and  O1_17 
REMARK    8  A    between atoms: O1_17  and  C13_18 
REMARK    9  A    between atoms: C16_26  and  N7_27 
ROOT
HETATM    1  N2  UNL     1     -27.608   1.394  14.016  1.00  0.00    -0.341 N 
HETATM    2  C9  UNL     1     -27.167   0.890  15.171  1.00  0.00     0.093 A 
HETATM    3  C10 UNL     1     -25.883   1.048  15.632  1.00  0.00     0.032 A 
HETATM    4  C11 UNL     1     -24.956   1.762  14.899  1.00  0.00     0.014 A 
HETATM    5  C15 UNL     1     -25.402   2.286  13.705  1.00  0.00     0.105 A 
HETATM    6  N6  UNL     1     -24.770   3.013  12.776  1.00  0.00    -0.187 N 
ATOM      7  H6  UNL     1     -23.795   3.313  12.808  1.00  0.00     0.184 HD
HETATM    8  C16 UNL     1     -25.651   3.277  11.793  1.00  0.00     0.678 A 
HETATM    9  N8  UNL     1     -26.818   2.722  12.106  1.00  0.00    -0.174 N 
ATOM     10  H8  UNL     1     -27.665   2.763  11.539  1.00  0.00     0.186 HD
HETATM   11  C17 UNL     1     -26.700   2.096  13.289  1.00  0.00     0.151 A 
ENDROOT
BRANCH   1  12
HETATM   12  C8  UNL     1     -28.942   1.268  13.483  1.00  0.00     0.130 C 
BRANCH  12  13
HETATM   13  C7  UNL     1     -29.637  -0.006  13.796  1.00  0.00     0.021 C 
BRANCH  13  14
HETATM   14  C6  UNL     1     -30.940   0.108  14.528  1.00  0.00     0.006 C 
BRANCH  14  15
HETATM   15  C5  UNL     1     -30.741   0.837  15.813  1.00  0.00     0.039 C 
BRANCH  15  16
HETATM   16  C4  UNL     1     -30.381  -0.074  16.940  1.00  0.00    -0.056 A 
HETATM   17  C3  UNL     1     -29.186   0.089  17.609  1.00  0.00     0.024 A 
HETATM   18  C2  UNL     1     -28.828  -0.753  18.669  1.00  0.00     0.090 A 
HETATM   19  N1  UNL     1     -29.642  -1.745  19.064  1.00  0.00    -0.371 N 
HETATM   20  C1  UNL     1     -29.274  -2.627  20.169  1.00  0.00     0.154 C 
HETATM   21  C19 UNL     1     -30.805  -1.906  18.417  1.00  0.00     0.090 A 
HETATM   22  C18 UNL     1     -31.205  -1.097  17.359  1.00  0.00     0.024 A 
ENDBRANCH  15  16
ENDBRANCH  14  15
ENDBRANCH  13  14
ENDBRANCH  12  13
ENDBRANCH   1  12
BRANCH   4  23
HETATM   23  C12 UNL     1     -23.603   1.931  15.382  1.00  0.00     0.128 C 
HETATM   24  N3  UNL     1     -22.531   1.556  14.824  1.00  0.00    -0.275 N 
ATOM     25  H3  UNL     1     -22.624   1.077  13.929  1.00  0.00     0.193 HD
BRANCH  24  26
HETATM   26  O1  UNL     1     -21.278   1.725  15.291  1.00  0.00    -0.252 OA
BRANCH  26  27
HETATM   27  C13 UNL     1     -20.896   1.009  16.482  1.00  0.00     0.304 A 
HETATM   28  C14 UNL     1     -20.363   1.879  17.530  1.00  0.00     0.129 A 
HETATM   29  N4  UNL     1     -19.218   1.348  17.461  1.00  0.00    -0.312 N 
HETATM   30  N5  UNL     1     -19.600   0.488  16.482  1.00  0.00    -0.101 NA
ATOM     31  H4  UNL     1     -18.339   1.506  17.955  1.00  0.00     0.181 HD
ENDBRANCH  26  27
ENDBRANCH  24  26
ENDBRANCH   4  23
BRANCH   8  32
HETATM   32  N7  UNL     1     -25.421   3.960  10.709  1.00  0.00    -0.234 N 
ATOM     33  H72 UNL     1     -24.692   4.667  10.610  1.00  0.00     0.174 HD
ATOM     34  H71 UNL     1     -25.926   3.886   9.826  1.00  0.00     0.174 HD
ENDBRANCH   8  32
TORSDOF 9
ENDMDL
MODEL 3
REMARK VINA RESULT: -7.278503010      1.380      1.681
REMARK  9 active torsions:
REMARK  status: ('A' for Active; 'I' for Inactive)
REMARK    1  A    between atoms: C4_5  and  C5_6 
REMARK    2  A    between atoms: C5_6  and  C6_7 
REMARK    3  A    between atoms: C6_7  and  C7_8 
REMARK    4  A    between atoms: C7_8  and  C8_9 
REMARK    5  A    between atoms: C8_9  and  N2_10 
REMARK    6  A    between atoms: C11_13  and  C12_14 
REMARK    7  A    between atoms: N3_15  and  O1_17 
REMARK    8  A    between atoms: O1_17  and  C13_18 
REMARK    9  A    between atoms: C16_26  and  N7_27 
ROOT
HETATM    1  N2  UNL     1     -28.491   1.426  14.913  1.00  0.00    -0.341 N 
HETATM    2  C9  UNL     1     -27.691   1.281  13.855  1.00  0.00     0.093 A 
HETATM    3  C10 UNL     1     -26.319   1.292  13.925  1.00  0.00     0.032 A 
HETATM    4  C11 UNL     1     -25.680   1.456  15.137  1.00  0.00     0.014 A 
HETATM    5  C15 UNL     1     -26.497   1.606  16.237  1.00  0.00     0.105 A 
HETATM    6  N6  UNL     1     -26.202   1.781  17.531  1.00  0.00    -0.187 N 
ATOM      7  H6  UNL     1     -25.265   1.835  17.932  1.00  0.00     0.184 HD
HETATM    8  C16 UNL     1     -27.363   1.873  18.207  1.00  0.00     0.678 A 
HETATM    9  N8  UNL     1     -28.368   1.757  17.345  1.00  0.00    -0.174 N 
ATOM     10  H8  UNL     1     -29.360   1.790  17.583  1.00  0.00     0.186 HD
HETATM   11  C17 UNL     1     -27.867   1.589  16.110  1.00  0.00     0.151 A 
ENDROOT
BRANCH   1  12
HETATM   12  C8  UNL     1     -29.932   1.417  14.903  1.00  0.00     0.130 C 
BRANCH  12  13
HETATM   13  C7  UNL     1     -30.565   0.117  15.239  1.00  0.00     0.021 C 
BRANCH  13  14
HETATM   14  C6  UNL     1     -31.595   0.138  16.328  1.00  0.00     0.006 C 
BRANCH  14  15
HETATM   15  C5  UNL     1     -31.512  -1.115  17.132  1.00  0.00     0.039 C 
BRANCH  15  16
HETATM   16  C4  UNL     1     -30.752  -0.932  18.404  1.00  0.00    -0.056 A 
HETATM   17  C3  UNL     1     -31.157   0.011  19.326  1.00  0.00     0.024 A 
HETATM   18  C2  UNL     1     -30.460   0.198  20.525  1.00  0.00     0.090 A 
HETATM   19  N1  UNL     1     -29.374  -0.538  20.812  1.00  0.00    -0.371 N 
HETATM   20  C1  UNL     1     -28.642  -0.346  22.061  1.00  0.00     0.154 C 
HETATM   21  C19 UNL     1     -28.978  -1.456  19.919  1.00  0.00     0.090 A 
HETATM   22  C18 UNL     1     -29.636  -1.679  18.714  1.00  0.00     0.024 A 
ENDBRANCH  15  16
ENDBRANCH  14  15
ENDBRANCH  13  14
ENDBRANCH  12  13
ENDBRANCH   1  12
BRANCH   4  23
HETATM   23  C12 UNL     1     -24.235   1.466  15.217  1.00  0.00     0.128 C 
HETATM   24  N3  UNL     1     -23.462   2.462  15.107  1.00  0.00    -0.275 N 
ATOM     25  H3  UNL     1     -23.903   3.367  14.942  1.00  0.00     0.193 HD
BRANCH  24  26
HETATM   26  O1  UNL     1     -22.118   2.451  15.184  1.00  0.00    -0.252 OA
BRANCH  26  27
HETATM   27  C13 UNL     1     -21.476   1.261  15.685  1.00  0.00     0.304 A 
HETATM   28  C14 UNL     1     -20.765   1.477  16.944  1.00  0.00     0.129 A 
HETATM   29  N4  UNL     1     -19.643   1.239  16.412  1.00  0.00    -0.312 N 
HETATM   30  N5  UNL     1     -20.194   1.015  15.191  1.00  0.00    -0.101 NA
ATOM     31  H4  UNL     1     -18.687   1.222  16.766  1.00  0.00     0.181 HD
ENDBRANCH  26  27
ENDBRANCH  24  26
ENDBRANCH   4  23
BRANCH   8  32
HETATM   32  N7  UNL     1     -27.501   2.048  19.490  1.00  0.00    -0.234 N 
ATOM     33  H72 UNL     1     -28.078   2.771  19.920  1.00  0.00     0.174 HD
ATOM     34  H71 UNL     1     -27.062   1.499  20.228  1.00  0.00     0.174 HD
ENDBRANCH   8  32
TORSDOF 9
ENDMDL
MODEL 4
REMARK VINA RESULT: -7.235801845      1.507      2.722
REMARK  9 active torsions:
REMARK  status: ('A' for Active; 'I' for Inactive)
REMARK    1  A    between atoms: C4_5  and  C5_6 
REMARK    2  A    between atoms: C5_6  and  C6_7 
REMARK    3  A    between atoms: C6_7  and  C7_8 
REMARK    4  A    between atoms: C7_8  and  C8_9 
REMARK    5  A    between atoms: C8_9  and  N2_10 
REMARK    6  A    between atoms: C11_13  and  C12_14 
REMARK    7  A    between atoms: N3_15  and  O1_17 
REMARK    8  A    between atoms: O1_17  and  C13_18 
REMARK    9  A    between atoms: C16_26  and  N7_27 
ROOT
HETATM    1  N2  UNL     1     -28.120   1.830  15.277  1.00  0.00    -0.341 N 
HETATM    2  C9  UNL     1     -27.517   1.514  16.425  1.00  0.00     0.093 A 
HETATM    3  C10 UNL     1     -26.154   1.459  16.583  1.00  0.00     0.032 A 
HETATM    4  C11 UNL     1     -25.313   1.739  15.525  1.00  0.00     0.014 A 
HETATM    5  C15 UNL     1     -25.926   2.066  14.334  1.00  0.00     0.105 A 
HETATM    6  N6  UNL     1     -25.410   2.385  13.141  1.00  0.00    -0.187 N 
ATOM      7  H6  UNL     1     -24.417   2.440  12.910  1.00  0.00     0.184 HD
HETATM    8  C16 UNL     1     -26.435   2.622  12.301  1.00  0.00     0.678 A 
HETATM    9  N8  UNL     1     -27.576   2.452  12.963  1.00  0.00    -0.174 N 
ATOM     10  H8  UNL     1     -28.511   2.566  12.571  1.00  0.00     0.186 HD
HETATM   11  C17 UNL     1     -27.298   2.106  14.231  1.00  0.00     0.151 A 
ENDROOT
BRANCH   1  12
HETATM   12  C8  UNL     1     -29.542   1.911  15.052  1.00  0.00     0.130 C 
BRANCH  12  13
HETATM   13  C7  UNL     1     -30.247   0.609  14.949  1.00  0.00     0.021 C 
BRANCH  13  14
HETATM   14  C6  UNL     1     -31.461   0.438  15.813  1.00  0.00     0.006 C 
BRANCH  14  15
HETATM   15  C5  UNL     1     -31.253  -0.688  16.767  1.00  0.00     0.039 C 
BRANCH  15  16
HETATM   16  C4  UNL     1     -30.385  -0.311  17.922  1.00  0.00    -0.056 A 
HETATM   17  C3  UNL     1     -30.558   0.904  18.553  1.00  0.00     0.024 A 
HETATM   18  C2  UNL     1     -29.757   1.278  19.638  1.00  0.00     0.090 A 
HETATM   19  N1  UNL     1     -28.795   0.462  20.095  1.00  0.00    -0.371 N 
HETATM   20  C1  UNL     1     -27.954   0.847  21.227  1.00  0.00     0.154 C 
HETATM   21  C19 UNL     1     -28.623  -0.720  19.486  1.00  0.00     0.090 A 
HETATM   22  C18 UNL     1     -29.393  -1.137  18.405  1.00  0.00     0.024 A 
ENDBRANCH  15  16
ENDBRANCH  14  15
ENDBRANCH  13  14
ENDBRANCH  12  13
ENDBRANCH   1  12
BRANCH   4  23
HETATM   23  C12 UNL     1     -23.877   1.683  15.686  1.00  0.00     0.128 C 
HETATM   24  N3  UNL     1     -23.077   2.652  15.834  1.00  0.00    -0.275 N 
ATOM     25  H3  UNL     1     -23.486   3.586  15.840  1.00  0.00     0.193 HD
BRANCH  24  26
HETATM   26  O1  UNL     1     -21.740   2.578  15.983  1.00  0.00    -0.252 OA
BRANCH  26  27
HETATM   27  C13 UNL     1     -21.171   1.318  16.394  1.00  0.00     0.304 A 
HETATM   28  C14 UNL     1     -20.278   1.439  17.545  1.00  0.00     0.129 A 
HETATM   29  N4  UNL     1     -19.271   1.088  16.867  1.00  0.00    -0.312 N 
HETATM   30  N5  UNL     1     -20.001   0.941  15.731  1.00  0.00    -0.101 NA
ATOM     31  H4  UNL     1     -18.283   0.962  17.089  1.00  0.00     0.181 HD
ENDBRANCH  26  27
ENDBRANCH  24  26
ENDBRANCH   4  23
BRANCH   8  32
HETATM   32  N7  UNL     1     -26.348   2.960  11.047  1.00  0.00    -0.234 N 
ATOM     33  H72 UNL     1     -25.584   2.697  10.425  1.00  0.00     0.174 HD
ATOM     34  H71 UNL     1     -27.016   3.524  10.522  1.00  0.00     0.174 HD
ENDBRANCH   8  32
TORSDOF 9
ENDMDL
MODEL 5
REMARK VINA RESULT: -7.199966848      1.413      1.739
REMARK  9 active torsions:
REMARK  status: ('A' for Active; 'I' for Inactive)
REMARK    1  A    between atoms: C4_5  and  C5_6 
REMARK    2  A    between atoms: C5_6  and  C6_7 
REMARK    3  A    between atoms: C6_7  and  C7_8 
REMARK    4  A    between atoms: C7_8  and  C8_9 
REMARK    5  A    between atoms: C8_9  and  N2_10 
REMARK    6  A    between atoms: C11_13  and  C12_14 
REMARK    7  A    between atoms: N3_15  and  O1_17 
REMARK    8  A    between atoms: O1_17  and  C13_18 
REMARK    9  A    between atoms: C16_26  and  N7_27 
ROOT
HETATM    1  N2  UNL     1     -27.456   2.127  14.302  1.00  0.00    -0.341 N 
HETATM    2  C9  UNL     1     -26.438   2.127  13.438  1.00  0.00     0.093 A 
HETATM    3  C10 UNL     1     -25.123   1.979  13.807  1.00  0.00     0.032 A 
HETATM    4  C11 UNL     1     -24.780   1.817  15.133  1.00  0.00     0.014 A 
HETATM    5  C15 UNL     1     -25.824   1.817  16.033  1.00  0.00     0.105 A 
HETATM    6  N6  UNL     1     -25.833   1.684  17.365  1.00  0.00    -0.187 N 
ATOM      7  H6  UNL     1     -25.016   1.555  17.963  1.00  0.00     0.184 HD
HETATM    8  C16 UNL     1     -27.114   1.752  17.775  1.00  0.00     0.678 A 
HETATM    9  N8  UNL     1     -27.893   1.925  16.711  1.00  0.00    -0.174 N 
ATOM     10  H8  UNL     1     -28.909   2.009  16.728  1.00  0.00     0.186 HD
HETATM   11  C17 UNL     1     -27.125   1.969  15.610  1.00  0.00     0.151 A 
ENDROOT
BRANCH   1  12
HETATM   12  C8  UNL     1     -28.853   2.271  13.976  1.00  0.00     0.130 C 
BRANCH  12  13
HETATM   13  C7  UNL     1     -29.406   1.234  13.068  1.00  0.00     0.021 C 
BRANCH  13  14
HETATM   14  C6  UNL     1     -29.799  -0.066  13.703  1.00  0.00     0.006 C 
BRANCH  14  15
HETATM   15  C5  UNL     1     -31.265  -0.079  13.973  1.00  0.00     0.039 C 
BRANCH  15  16
HETATM   16  C4  UNL     1     -31.580  -0.043  15.432  1.00  0.00    -0.056 A 
HETATM   17  C3  UNL     1     -30.595  -0.302  16.362  1.00  0.00     0.024 A 
HETATM   18  C2  UNL     1     -30.868  -0.274  17.735  1.00  0.00     0.090 A 
HETATM   19  N1  UNL     1     -32.101   0.008  18.185  1.00  0.00    -0.371 N 
HETATM   20  C1  UNL     1     -32.393   0.039  19.616  1.00  0.00     0.154 C 
HETATM   21  C19 UNL     1     -33.062   0.261  17.284  1.00  0.00     0.090 A 
HETATM   22  C18 UNL     1     -32.840   0.244  15.911  1.00  0.00     0.024 A 
ENDBRANCH  15  16
ENDBRANCH  14  15
ENDBRANCH  13  14
ENDBRANCH  12  13
ENDBRANCH   1  12
BRANCH   4  23
HETATM   23  C12 UNL     1     -23.396   1.661  15.526  1.00  0.00     0.128 C 
HETATM   24  N3  UNL     1     -22.480   2.533  15.494  1.00  0.00    -0.275 N 
ATOM     25  H3  UNL     1     -22.741   3.458  15.152  1.00  0.00     0.193 HD
BRANCH  24  26
HETATM   26  O1  UNL     1     -21.196   2.367  15.866  1.00  0.00    -0.252 OA
BRANCH  26  27
HETATM   27  C13 UNL     1     -20.849   1.174  16.597  1.00  0.00     0.304 A 
HETATM   28  C14 UNL     1     -20.019   1.440  17.771  1.00  0.00     0.129 A 
HETATM   29  N4  UNL     1     -19.037   0.810  17.285  1.00  0.00    -0.312 N 
HETATM   30  N5  UNL     1     -19.712   0.501  16.147  1.00  0.00    -0.101 NA
ATOM     31  H4  UNL     1     -18.095   0.609  17.620  1.00  0.00     0.181 HD
ENDBRANCH  26  27
ENDBRANCH  24  26
ENDBRANCH   4  23
BRANCH   8  32
HETATM   32  N7  UNL     1     -27.541   1.666  19.002  1.00  0.00    -0.234 N 
ATOM     33  H72 UNL     1     -26.941   1.631  19.825  1.00  0.00     0.174 HD
ATOM     34  H71 UNL     1     -28.514   1.623  19.304  1.00  0.00     0.174 HD
ENDBRANCH   8  32
TORSDOF 9
ENDMDL
