MODEL 1
REMARK VINA RESULT: -8.326401649      0.000      0.000
REMARK  5 active torsions:
REMARK  status: ('A' for Active; 'I' for Inactive)
REMARK    1  A    between atoms: C2_2  and  O1_3 
REMARK    2  A    between atoms: N1_10  and  O4_12 
REMARK    3  A    between atoms: C6_15  and  S1_16 
REMARK    4  A    between atoms: S1_16  and  C7_17 
REMARK    5  A    between atoms: C7_17  and  C8_18 
ROOT
HETATM    1  C1  UNL     1      52.660  -8.302  43.527  1.00  0.00     0.089 C 
HETATM    2  C2  UNL     1      53.507  -7.468  42.572  1.00  0.00     0.227 C 
HETATM    3  O2  UNL     1      52.745  -6.461  41.981  1.00  0.00    -0.343 OA
HETATM    4  C3  UNL     1      53.581  -5.665  41.237  1.00  0.00     0.244 C 
HETATM    5  C4  UNL     1      54.366  -4.748  42.146  1.00  0.00     0.230 A 
HETATM    6  O3  UNL     1      54.766  -5.481  43.269  1.00  0.00    -0.289 OA
HETATM    7  C5  UNL     1      54.678  -6.877  43.275  1.00  0.00     0.204 C 
HETATM    8  N1  UNL     1      55.553  -7.625  43.852  1.00  0.00    -0.246 N 
ATOM      9  H1  UNL     1      56.352  -7.210  44.332  1.00  0.00     0.196 HD
HETATM   10  O5  UNL     1      55.410  -4.055  41.433  1.00  0.00    -0.328 OA
HETATM   11  C6  UNL     1      54.234  -3.356  42.017  1.00  0.00     0.252 A 
ENDROOT
BRANCH  11  12
HETATM   12  S1  UNL     1      54.766  -2.143  43.219  1.00  0.00    -0.121 SA
BRANCH  12  13
HETATM   13  C7  UNL     1      55.715  -0.852  42.371  1.00  0.00     0.189 C 
BRANCH  13  14
HETATM   14  C8  UNL     1      57.083  -0.735  42.867  1.00  0.00     0.182 C 
HETATM   15  O6  UNL     1      57.676   0.367  42.868  1.00  0.00    -0.647 OA
HETATM   16  O7  UNL     1      57.750  -1.845  43.347  1.00  0.00    -0.647 OA
ENDBRANCH  13  14
ENDBRANCH  12  13
ENDBRANCH  11  12
BRANCH   2  17
HETATM   17  O1  UNL     1      53.906  -8.325  41.548  1.00  0.00    -0.359 OA
ATOM     18  H1  UNL     1      54.715  -7.969  41.200  1.00  0.00     0.213 HD
ENDBRANCH   2  17
BRANCH   8  19
HETATM   19  O4  UNL     1      55.397  -8.970  43.814  1.00  0.00    -0.288 OA
ATOM     20  H4  UNL     1      55.912  -9.477  43.197  1.00  0.00     0.244 HD
ENDBRANCH   8  19
TORSDOF 5
ENDMDL
MODEL 2
REMARK VINA RESULT: -8.186724940      1.418      1.441
REMARK  5 active torsions:
REMARK  status: ('A' for Active; 'I' for Inactive)
REMARK    1  A    between atoms: C2_2  and  O1_3 
REMARK    2  A    between atoms: N1_10  and  O4_12 
REMARK    3  A    between atoms: C6_15  and  S1_16 
REMARK    4  A    between atoms: S1_16  and  C7_17 
REMARK    5  A    between atoms: C7_17  and  C8_18 
ROOT
HETATM    1  C1  UNL     1      53.684  -8.360  44.102  1.00  0.00     0.089 C 
HETATM    2  C2  UNL     1      53.352  -7.553  42.851  1.00  0.00     0.227 C 
HETATM    3  O2  UNL     1      52.781  -6.327  43.187  1.00  0.00    -0.343 OA
HETATM    4  C3  UNL     1      52.623  -5.593  42.037  1.00  0.00     0.244 C 
HETATM    5  C4  UNL     1      53.954  -5.025  41.600  1.00  0.00     0.230 A 
HETATM    6  O3  UNL     1      54.931  -6.010  41.781  1.00  0.00    -0.289 OA
HETATM    7  C5  UNL     1      54.565  -7.340  42.016  1.00  0.00     0.204 C 
HETATM    8  N1  UNL     1      55.230  -8.337  41.544  1.00  0.00    -0.246 N 
ATOM      9  H1  UNL     1      56.061  -8.180  40.972  1.00  0.00     0.196 HD
HETATM   10  O5  UNL     1      53.878  -4.436  40.286  1.00  0.00    -0.328 OA
HETATM   11  C6  UNL     1      54.126  -3.634  41.514  1.00  0.00     0.252 A 
ENDROOT
BRANCH  11  12
HETATM   12  S1  UNL     1      55.696  -2.784  41.394  1.00  0.00    -0.121 SA
BRANCH  12  13
HETATM   13  C7  UNL     1      55.552  -1.168  42.203  1.00  0.00     0.189 C 
BRANCH  13  14
HETATM   14  C8  UNL     1      56.564  -0.958  43.235  1.00  0.00     0.182 C 
HETATM   15  O6  UNL     1      56.450  -0.034  44.070  1.00  0.00    -0.647 OA
HETATM   16  O7  UNL     1      57.670  -1.781  43.307  1.00  0.00    -0.647 OA
ENDBRANCH  13  14
ENDBRANCH  12  13
ENDBRANCH  11  12
BRANCH   2  17
HETATM   17  O1  UNL     1      52.379  -8.276  42.163  1.00  0.00    -0.359 OA
ATOM     18  H1  UNL     1      52.517  -9.189  42.383  1.00  0.00     0.213 HD
ENDBRANCH   2  17
BRANCH   8  19
HETATM   19  O4  UNL     1      54.810  -9.596  41.816  1.00  0.00    -0.288 OA
ATOM     20  H4  UNL     1      54.950 -10.279  41.171  1.00  0.00     0.244 HD
ENDBRANCH   8  19
TORSDOF 5
ENDMDL
MODEL 3
REMARK VINA RESULT: -7.939223029      0.973      1.194
REMARK  5 active torsions:
REMARK  status: ('A' for Active; 'I' for Inactive)
REMARK    1  A    between atoms: C2_2  and  O1_3 
REMARK    2  A    between atoms: N1_10  and  O4_12 
REMARK    3  A    between atoms: C6_15  and  S1_16 
REMARK    4  A    between atoms: S1_16  and  C7_17 
REMARK    5  A    between atoms: C7_17  and  C8_18 
ROOT
HETATM    1  C1  UNL     1      52.428  -9.178  43.884  1.00  0.00     0.089 C 
HETATM    2  C2  UNL     1      53.112  -8.303  42.840  1.00  0.00     0.227 C 
HETATM    3  O2  UNL     1      52.298  -7.231  42.478  1.00  0.00    -0.343 OA
HETATM    4  C3  UNL     1      53.011  -6.410  41.639  1.00  0.00     0.244 C 
HETATM    5  C4  UNL     1      53.998  -5.588  42.436  1.00  0.00     0.230 A 
HETATM    6  O3  UNL     1      54.572  -6.415  43.408  1.00  0.00    -0.289 OA
HETATM    7  C5  UNL     1      54.423  -7.804  43.338  1.00  0.00     0.204 C 
HETATM    8  N1  UNL     1      55.357  -8.621  43.682  1.00  0.00    -0.246 N 
ATOM      9  H1  UNL     1      56.252  -8.269  44.022  1.00  0.00     0.196 HD
HETATM   10  O5  UNL     1      54.915  -4.878  41.580  1.00  0.00    -0.328 OA
HETATM   11  C6  UNL     1      53.907  -4.187  42.428  1.00  0.00     0.252 A 
ENDROOT
BRANCH  11  12
HETATM   12  S1  UNL     1      54.717  -3.084  43.581  1.00  0.00    -0.121 SA
BRANCH  12  13
HETATM   13  C7  UNL     1      55.434  -1.696  42.662  1.00  0.00     0.189 C 
BRANCH  13  14
HETATM   14  C8  UNL     1      56.652  -1.177  43.278  1.00  0.00     0.182 C 
HETATM   15  O6  UNL     1      57.730  -1.807  43.203  1.00  0.00    -0.647 OA
HETATM   16  O7  UNL     1      56.635   0.025  43.957  1.00  0.00    -0.647 OA
ENDBRANCH  13  14
ENDBRANCH  12  13
ENDBRANCH  11  12
BRANCH   2  17
HETATM   17  O1  UNL     1      53.266  -9.094  41.702  1.00  0.00    -0.359 OA
ATOM     18  H1  UNL     1      53.990  -8.722  41.213  1.00  0.00     0.213 HD
ENDBRANCH   2  17
BRANCH   8  19
HETATM   19  O4  UNL     1      55.136  -9.954  43.584  1.00  0.00    -0.288 OA
ATOM     20  H4  UNL     1      55.781 -10.556  43.934  1.00  0.00     0.244 HD
ENDBRANCH   8  19
TORSDOF 5
ENDMDL
MODEL 4
REMARK VINA RESULT: -7.776916225      1.860      2.405
REMARK  5 active torsions:
REMARK  status: ('A' for Active; 'I' for Inactive)
REMARK    1  A    between atoms: C2_2  and  O1_3 
REMARK    2  A    between atoms: N1_10  and  O4_12 
REMARK    3  A    between atoms: C6_15  and  S1_16 
REMARK    4  A    between atoms: S1_16  and  C7_17 
REMARK    5  A    between atoms: C7_17  and  C8_18 
ROOT
HETATM    1  C1  UNL     1      54.387  -8.456  42.470  1.00  0.00     0.089 C 
HETATM    2  C2  UNL     1      54.113  -7.372  43.506  1.00  0.00     0.227 C 
HETATM    3  O2  UNL     1      55.260  -6.618  43.753  1.00  0.00    -0.343 OA
HETATM    4  C3  UNL     1      54.926  -5.582  44.590  1.00  0.00     0.244 C 
HETATM    5  C4  UNL     1      54.202  -4.506  43.814  1.00  0.00     0.230 A 
HETATM    6  O3  UNL     1      53.312  -5.126  42.930  1.00  0.00    -0.289 OA
HETATM    7  C5  UNL     1      53.003  -6.482  43.068  1.00  0.00     0.204 C 
HETATM    8  N1  UNL     1      51.828  -6.954  42.834  1.00  0.00    -0.246 N 
ATOM      9  H1  UNL     1      51.073  -6.337  42.533  1.00  0.00     0.196 HD
HETATM   10  O5  UNL     1      53.641  -3.505  44.688  1.00  0.00    -0.328 OA
HETATM   11  C6  UNL     1      54.747  -3.214  43.737  1.00  0.00     0.252 A 
ENDROOT
BRANCH  11  12
HETATM   12  S1  UNL     1      54.253  -1.942  42.580  1.00  0.00    -0.121 SA
BRANCH  12  13
HETATM   13  C7  UNL     1      55.716  -0.985  42.099  1.00  0.00     0.189 C 
BRANCH  13  14
HETATM   14  C8  UNL     1      56.682  -0.842  43.185  1.00  0.00     0.182 C 
HETATM   15  O6  UNL     1      56.529   0.025  44.073  1.00  0.00    -0.647 OA
HETATM   16  O7  UNL     1      57.787  -1.667  43.250  1.00  0.00    -0.647 OA
ENDBRANCH  13  14
ENDBRANCH  12  13
ENDBRANCH  11  12
BRANCH   2  17
HETATM   17  O1  UNL     1      53.801  -8.031  44.694  1.00  0.00    -0.359 OA
ATOM     18  H1  UNL     1      54.370  -7.665  45.361  1.00  0.00     0.213 HD
ENDBRANCH   2  17
BRANCH   8  19
HETATM   19  O4  UNL     1      51.608  -8.282  42.991  1.00  0.00    -0.288 OA
ATOM     20  H4  UNL     1      52.145  -8.900  42.510  1.00  0.00     0.244 HD
ENDBRANCH   8  19
TORSDOF 5
ENDMDL
MODEL 5
REMARK VINA RESULT: -7.683039646      2.856      6.869
REMARK  5 active torsions:
REMARK  status: ('A' for Active; 'I' for Inactive)
REMARK    1  A    between atoms: C2_2  and  O1_3 
REMARK    2  A    between atoms: N1_10  and  O4_12 
REMARK    3  A    between atoms: C6_15  and  S1_16 
REMARK    4  A    between atoms: S1_16  and  C7_17 
REMARK    5  A    between atoms: C7_17  and  C8_18 
ROOT
HETATM    1  C1  UNL     1      53.875  -2.006  42.718  1.00  0.00     0.089 C 
HETATM    2  C2  UNL     1      54.684  -3.228  43.137  1.00  0.00     0.227 C 
HETATM    3  O2  UNL     1      54.031  -3.935  44.146  1.00  0.00    -0.343 OA
HETATM    4  C3  UNL     1      54.735  -5.088  44.393  1.00  0.00     0.244 C 
HETATM    5  C4  UNL     1      54.467  -6.099  43.302  1.00  0.00     0.230 A 
HETATM    6  O3  UNL     1      54.457  -5.427  42.074  1.00  0.00    -0.289 OA
HETATM    7  C5  UNL     1      54.945  -4.121  41.975  1.00  0.00     0.204 C 
HETATM    8  N1  UNL     1      55.587  -3.695  40.943  1.00  0.00    -0.246 N 
ATOM      9  H1  UNL     1      55.761  -4.315  40.151  1.00  0.00     0.196 HD
HETATM   10  O5  UNL     1      55.350  -7.235  43.400  1.00  0.00    -0.328 OA
HETATM   11  C6  UNL     1      53.883  -7.335  43.623  1.00  0.00     0.252 A 
ENDROOT
BRANCH  11  12
HETATM   12  S1  UNL     1      53.153  -8.477  42.455  1.00  0.00    -0.121 SA
BRANCH  12  13
HETATM   13  C7  UNL     1      52.498  -9.905  43.360  1.00  0.00     0.189 C 
BRANCH  13  14
HETATM   14  C8  UNL     1      51.068 -10.108  43.140  1.00  0.00     0.182 C 
HETATM   15  O6  UNL     1      50.595 -11.258  43.004  1.00  0.00    -0.647 OA
HETATM   16  O7  UNL     1      50.210  -9.028  43.079  1.00  0.00    -0.647 OA
ENDBRANCH  13  14
ENDBRANCH  12  13
ENDBRANCH  11  12
BRANCH   2  17
HETATM   17  O1  UNL     1      55.870  -2.746  43.688  1.00  0.00    -0.359 OA
ATOM     18  H1  UNL     1      56.100  -1.969  43.191  1.00  0.00     0.213 HD
ENDBRANCH   2  17
BRANCH   8  19
HETATM   19  O4  UNL     1      56.028  -2.415  40.923  1.00  0.00    -0.288 OA
ATOM     20  H4  UNL     1      55.627  -1.797  40.324  1.00  0.00     0.244 HD
ENDBRANCH   8  19
TORSDOF 5
ENDMDL
