MODEL 1
REMARK VINA RESULT: -8.420482019      0.000      0.000
REMARK  1 active torsions:
REMARK  status: ('A' for Active; 'I' for Inactive)
REMARK    1  A    between atoms: C14_23  and  O2_24 
ROOT
HETATM    1  C1  UNL     1      36.784   0.341   6.895  1.00  0.00     0.043 C 
HETATM    2  C2  UNL     1      37.009  -1.162   7.196  1.00  0.00     0.074 C 
HETATM    3  C3  UNL     1      35.619  -1.737   7.271  1.00  0.00     0.043 C 
HETATM    4  N1  UNL     1      37.917  -1.754   6.332  1.00  0.00    -0.351 N 
ATOM      5  H1  UNL     1      38.810  -1.262   6.365  1.00  0.00     0.163 HD
HETATM    6  C4  UNL     1      37.975  -2.712   5.522  1.00  0.00     0.191 C 
HETATM    7  N2  UNL     1      39.277  -2.870   4.848  1.00  0.00    -0.063 NA
HETATM    8  N3  UNL     1      36.955  -3.594   5.206  1.00  0.00    -0.305 N 
ATOM      9  H3  UNL     1      36.471  -3.356   4.340  1.00  0.00     0.171 HD
HETATM   10  C5  UNL     1      36.492  -4.645   5.771  1.00  0.00     0.194 C 
HETATM   11  N4  UNL     1      35.377  -5.258   5.047  1.00  0.00    -0.063 NA
HETATM   12  N5  UNL     1      36.845  -5.297   6.919  1.00  0.00    -0.344 N 
ATOM     13  H5  UNL     1      35.995  -5.757   7.246  1.00  0.00     0.167 HD
HETATM   14  C6  UNL     1      37.703  -5.583   7.730  1.00  0.00     0.063 C 
HETATM   15  C7  UNL     1      37.271  -6.474   8.895  1.00  0.00     0.044 C 
HETATM   16  C8  UNL     1      37.823  -5.849  10.154  1.00  0.00     0.005 C 
HETATM   17  C9  UNL     1      36.792  -5.815  11.261  1.00  0.00     0.000 C 
HETATM   18  C10 UNL     1      36.015  -4.509  11.197  1.00  0.00     0.000 C 
HETATM   19  C11 UNL     1      36.860  -3.391  11.735  1.00  0.00     0.002 C 
HETATM   20  C12 UNL     1      36.043  -2.117  11.750  1.00  0.00     0.026 C 
HETATM   21  C13 UNL     1      36.418  -1.221  10.584  1.00  0.00     0.171 C 
HETATM   22  O1  UNL     1      36.746  -1.929   9.454  1.00  0.00    -0.359 OA
HETATM   23  C14 UNL     1      37.551  -1.182   8.628  1.00  0.00     0.283 C 
ENDROOT
BRANCH  23  24
HETATM   24  O2  UNL     1      37.779   0.103   9.121  1.00  0.00    -0.369 OA
ATOM     25  H2  UNL     1      38.309   0.095   9.910  1.00  0.00     0.212 HD
ENDBRANCH  23  24
TORSDOF 1
ENDMDL
MODEL 2
REMARK VINA RESULT: -8.136257692      2.152      4.456
REMARK  1 active torsions:
REMARK  status: ('A' for Active; 'I' for Inactive)
REMARK    1  A    between atoms: C14_23  and  O2_24 
ROOT
HETATM    1  C1  UNL     1      37.034  -3.990   4.714  1.00  0.00     0.043 C 
HETATM    2  C2  UNL     1      36.777  -3.484   6.156  1.00  0.00     0.074 C 
HETATM    3  C3  UNL     1      38.142  -3.464   6.791  1.00  0.00     0.043 C 
HETATM    4  N1  UNL     1      36.019  -2.324   6.192  1.00  0.00    -0.351 N 
ATOM      5  H1  UNL     1      35.128  -2.466   5.716  1.00  0.00     0.163 HD
HETATM    6  C4  UNL     1      36.097  -1.150   6.633  1.00  0.00     0.191 C 
HETATM    7  N2  UNL     1      34.918  -0.310   6.355  1.00  0.00    -0.063 NA
HETATM    8  N3  UNL     1      37.160  -0.591   7.322  1.00  0.00    -0.305 N 
ATOM      9  H3  UNL     1      37.773  -0.030   6.730  1.00  0.00     0.171 HD
HETATM   10  C5  UNL     1      37.537  -0.631   8.545  1.00  0.00     0.194 C 
HETATM   11  N4  UNL     1      38.757   0.135   8.808  1.00  0.00    -0.063 NA
HETATM   12  N5  UNL     1      37.014  -1.252   9.643  1.00  0.00    -0.344 N 
ATOM     13  H5  UNL     1      37.806  -1.429  10.262  1.00  0.00     0.167 HD
HETATM   14  C6  UNL     1      36.042  -1.691  10.225  1.00  0.00     0.063 C 
HETATM   15  C7  UNL     1      36.294  -2.321  11.595  1.00  0.00     0.044 C 
HETATM   16  C8  UNL     1      35.546  -3.633  11.618  1.00  0.00     0.005 C 
HETATM   17  C9  UNL     1      36.390  -4.748  12.195  1.00  0.00     0.000 C 
HETATM   18  C10 UNL     1      37.158  -5.439  11.079  1.00  0.00     0.000 C 
HETATM   19  C11 UNL     1      36.230  -6.329  10.303  1.00  0.00     0.002 C 
HETATM   20  C12 UNL     1      37.024  -7.078   9.256  1.00  0.00     0.026 C 
HETATM   21  C13 UNL     1      36.830  -6.458   7.885  1.00  0.00     0.171 C 
HETATM   22  O1  UNL     1      36.689  -5.093   7.934  1.00  0.00    -0.359 OA
HETATM   23  C14 UNL     1      36.017  -4.633   6.827  1.00  0.00     0.283 C 
ENDROOT
BRANCH  23  24
HETATM   24  O2  UNL     1      35.704  -5.652   5.928  1.00  0.00    -0.369 OA
ATOM     25  H2  UNL     1      35.777  -6.513   6.322  1.00  0.00     0.212 HD
ENDBRANCH  23  24
TORSDOF 1
ENDMDL
MODEL 3
REMARK VINA RESULT: -8.044611355      2.134      4.814
REMARK  1 active torsions:
REMARK  status: ('A' for Active; 'I' for Inactive)
REMARK    1  A    between atoms: C14_23  and  O2_24 
ROOT
HETATM    1  C1  UNL     1      37.250  -8.721   7.662  1.00  0.00     0.043 C 
HETATM    2  C2  UNL     1      36.987  -7.196   7.747  1.00  0.00     0.074 C 
HETATM    3  C3  UNL     1      38.331  -6.607   8.084  1.00  0.00     0.043 C 
HETATM    4  N1  UNL     1      36.315  -6.703   6.640  1.00  0.00    -0.351 N 
ATOM      5  H1  UNL     1      35.430  -7.195   6.514  1.00  0.00     0.163 HD
HETATM    6  C4  UNL     1      36.463  -5.835   5.745  1.00  0.00     0.191 C 
HETATM    7  N2  UNL     1      35.356  -5.756   4.775  1.00  0.00    -0.063 NA
HETATM    8  N3  UNL     1      37.543  -4.983   5.587  1.00  0.00    -0.305 N 
ATOM      9  H3  UNL     1      38.212  -5.305   4.887  1.00  0.00     0.171 HD
HETATM   10  C5  UNL     1      37.881  -3.875   6.135  1.00  0.00     0.194 C 
HETATM   11  N4  UNL     1      39.144  -3.332   5.631  1.00  0.00    -0.063 NA
HETATM   12  N5  UNL     1      37.282  -3.111   7.096  1.00  0.00    -0.344 N 
ATOM     13  H5  UNL     1      38.041  -2.614   7.563  1.00  0.00     0.167 HD
HETATM   14  C6  UNL     1      36.264  -2.749   7.652  1.00  0.00     0.063 C 
HETATM   15  C7  UNL     1      36.430  -1.740   8.789  1.00  0.00     0.044 C 
HETATM   16  C8  UNL     1      35.591  -2.235   9.941  1.00  0.00     0.005 C 
HETATM   17  C9  UNL     1      36.335  -2.148  11.255  1.00  0.00     0.000 C 
HETATM   18  C10 UNL     1      37.084  -3.447  11.507  1.00  0.00     0.000 C 
HETATM   19  C11 UNL     1      36.118  -4.510  11.945  1.00  0.00     0.002 C 
HETATM   20  C12 UNL     1      36.886  -5.770  12.279  1.00  0.00     0.026 C 
HETATM   21  C13 UNL     1      36.777  -6.784  11.156  1.00  0.00     0.171 C 
HETATM   22  O1  UNL     1      36.733  -6.199   9.914  1.00  0.00    -0.359 OA
HETATM   23  C14 UNL     1      36.128  -7.033   9.004  1.00  0.00     0.283 C 
ENDROOT
BRANCH  23  24
HETATM   24  O2  UNL     1      35.770  -8.261   9.560  1.00  0.00    -0.369 OA
ATOM     25  H2  UNL     1      36.520  -8.733   9.902  1.00  0.00     0.212 HD
ENDBRANCH  23  24
TORSDOF 1
ENDMDL
MODEL 4
REMARK VINA RESULT: -7.797777491      1.121      1.385
REMARK  1 active torsions:
REMARK  status: ('A' for Active; 'I' for Inactive)
REMARK    1  A    between atoms: C14_23  and  O2_24 
ROOT
HETATM    1  C1  UNL     1      36.664  -0.599   7.941  1.00  0.00     0.043 C 
HETATM    2  C2  UNL     1      36.855  -2.136   7.894  1.00  0.00     0.074 C 
HETATM    3  C3  UNL     1      35.457  -2.680   7.771  1.00  0.00     0.043 C 
HETATM    4  N1  UNL     1      37.797  -2.532   6.958  1.00  0.00    -0.351 N 
ATOM      5  H1  UNL     1      38.694  -2.082   7.143  1.00  0.00     0.163 HD
HETATM    6  C4  UNL     1      37.882  -3.277   5.950  1.00  0.00     0.191 C 
HETATM    7  N2  UNL     1      39.214  -3.304   5.316  1.00  0.00    -0.063 NA
HETATM    8  N3  UNL     1      36.869  -4.037   5.392  1.00  0.00    -0.305 N 
ATOM      9  H3  UNL     1      36.430  -3.594   4.585  1.00  0.00     0.171 HD
HETATM   10  C5  UNL     1      36.366  -5.180   5.677  1.00  0.00     0.194 C 
HETATM   11  N4  UNL     1      35.280  -5.583   4.781  1.00  0.00    -0.063 NA
HETATM   12  N5  UNL     1      36.654  -6.089   6.656  1.00  0.00    -0.344 N 
ATOM     13  H5  UNL     1      35.784  -6.592   6.828  1.00  0.00     0.167 HD
HETATM   14  C6  UNL     1      37.468  -6.574   7.415  1.00  0.00     0.063 C 
HETATM   15  C7  UNL     1      36.968  -7.701   8.321  1.00  0.00     0.044 C 
HETATM   16  C8  UNL     1      37.466  -7.397   9.714  1.00  0.00     0.005 C 
HETATM   17  C9  UNL     1      36.383  -7.597  10.751  1.00  0.00     0.000 C 
HETATM   18  C10 UNL     1      35.626  -6.295  10.958  1.00  0.00     0.000 C 
HETATM   19  C11 UNL     1      36.458  -5.351  11.779  1.00  0.00     0.002 C 
HETATM   20  C12 UNL     1      35.657  -4.097  12.053  1.00  0.00     0.026 C 
HETATM   21  C13 UNL     1      36.099  -2.964  11.146  1.00  0.00     0.171 C 
HETATM   22  O1  UNL     1      36.473  -3.398   9.897  1.00  0.00    -0.359 OA
HETATM   23  C14 UNL     1      37.326  -2.499   9.305  1.00  0.00     0.283 C 
ENDROOT
BRANCH  23  24
HETATM   24  O2  UNL     1      37.546  -1.369  10.093  1.00  0.00    -0.369 OA
ATOM     25  H2  UNL     1      38.390  -1.394  10.528  1.00  0.00     0.212 HD
ENDBRANCH  23  24
TORSDOF 1
ENDMDL
MODEL 5
REMARK VINA RESULT: -7.742936355      2.299      4.559
REMARK  1 active torsions:
REMARK  status: ('A' for Active; 'I' for Inactive)
REMARK    1  A    between atoms: C14_23  and  O2_24 
ROOT
HETATM    1  C1  UNL     1      38.047  -2.569   3.888  1.00  0.00     0.043 C 
HETATM    2  C2  UNL     1      37.650  -2.321   5.365  1.00  0.00     0.074 C 
HETATM    3  C3  UNL     1      38.957  -2.366   6.112  1.00  0.00     0.043 C 
HETATM    4  N1  UNL     1      36.842  -1.207   5.525  1.00  0.00    -0.351 N 
ATOM      5  H1  UNL     1      36.000  -1.295   4.956  1.00  0.00     0.163 HD
HETATM    6  C4  UNL     1      36.830  -0.123   6.159  1.00  0.00     0.191 C 
HETATM    7  N2  UNL     1      35.642   0.716   5.921  1.00  0.00    -0.063 NA
HETATM    8  N3  UNL     1      37.808   0.344   7.021  1.00  0.00    -0.305 N 
ATOM      9  H3  UNL     1      38.441   1.016   6.587  1.00  0.00     0.171 HD
HETATM   10  C5  UNL     1      38.085   0.111   8.249  1.00  0.00     0.194 C 
HETATM   11  N4  UNL     1      39.244   0.859   8.742  1.00  0.00    -0.063 NA
HETATM   12  N5  UNL     1      37.503  -0.702   9.180  1.00  0.00    -0.344 N 
ATOM     13  H5  UNL     1      38.249  -0.956   9.828  1.00  0.00     0.167 HD
HETATM   14  C6  UNL     1      36.507  -1.262   9.593  1.00  0.00     0.063 C 
HETATM   15  C7  UNL     1      36.674  -2.106  10.857  1.00  0.00     0.044 C 
HETATM   16  C8  UNL     1      35.987  -3.425  10.598  1.00  0.00     0.005 C 
HETATM   17  C9  UNL     1      36.830  -4.595  11.055  1.00  0.00     0.000 C 
HETATM   18  C10 UNL     1      37.716  -5.064   9.911  1.00  0.00     0.000 C 
HETATM   19  C11 UNL     1      36.896  -5.839   8.921  1.00  0.00     0.002 C 
HETATM   20  C12 UNL     1      37.805  -6.377   7.838  1.00  0.00     0.026 C 
HETATM   21  C13 UNL     1      37.696  -5.541   6.576  1.00  0.00     0.171 C 
HETATM   22  O1  UNL     1      37.490  -4.208   6.837  1.00  0.00    -0.359 OA
HETATM   23  C14 UNL     1      36.891  -3.589   5.767  1.00  0.00     0.283 C 
ENDROOT
BRANCH  23  24
HETATM   24  O2  UNL     1      36.699  -4.452   4.688  1.00  0.00    -0.369 OA
ATOM     25  H2  UNL     1      35.923  -4.990   4.793  1.00  0.00     0.212 HD
ENDBRANCH  23  24
TORSDOF 1
ENDMDL
