MODEL 1
REMARK VINA RESULT: -7.912751035      0.000      0.000
REMARK  2 active torsions:
REMARK  status: ('A' for Active; 'I' for Inactive)
REMARK    1  A    between atoms: C5_5  and  O1_6 
REMARK    2  A    between atoms: C9_15  and  N3_16 
ROOT
HETATM    1  C1  UNL     1      36.473  -7.987  12.736  1.00  0.00     0.023 C 
HETATM    2  C2  UNL     1      35.754  -8.058  11.409  1.00  0.00     0.015 C 
HETATM    3  C3  UNL     1      34.266  -8.107  11.558  1.00  0.00     0.023 C 
HETATM    4  C4  UNL     1      36.248  -9.277  10.674  1.00  0.00     0.071 C 
HETATM    5  C5  UNL     1      36.358  -8.851   9.247  1.00  0.00     0.229 C 
HETATM    6  N1  UNL     1      36.479  -7.386   9.304  1.00  0.00    -0.283 N 
HETATM    7  C6  UNL     1      36.144  -6.935  10.509  1.00  0.00     0.097 A 
HETATM    8  N2  UNL     1      36.205  -5.583  10.727  1.00  0.00    -0.328 N 
ATOM      9  H2  UNL     1      35.958  -5.198  11.638  1.00  0.00     0.169 HD
HETATM   10  C7  UNL     1      36.590  -4.777   9.741  1.00  0.00     0.152 A 
HETATM   11  C8  UNL     1      36.748  -3.393   9.662  1.00  0.00     0.099 A 
HETATM   12  S1  UNL     1      36.646  -1.879  10.448  1.00  0.00    -0.047 SA
HETATM   13  C9  UNL     1      37.148  -0.882   9.147  1.00  0.00     0.144 A 
HETATM   14  N4  UNL     1      37.369  -1.761   8.175  1.00  0.00    -0.321 N 
ATOM     15  H4  UNL     1      37.687  -1.450   7.256  1.00  0.00     0.169 HD
HETATM   16  C10 UNL     1      37.173  -3.032   8.416  1.00  0.00     0.143 A 
HETATM   17  N5  UNL     1      37.267  -4.237   7.751  1.00  0.00    -0.274 N 
ATOM     18  H5  UNL     1      37.561  -4.338   6.780  1.00  0.00     0.189 HD
HETATM   19  N6  UNL     1      36.930  -5.229   8.524  1.00  0.00    -0.210 N 
HETATM   20  C11 UNL     1      36.877  -6.561   8.284  1.00  0.00     0.205 A 
HETATM   21  S2  UNL     1      37.274  -7.155   6.838  1.00  0.00    -0.038 SA
ENDROOT
BRANCH  13  22
HETATM   22  N3  UNL     1      37.283   0.425   9.115  1.00  0.00    -0.380 N 
ATOM     23  H32 UNL     1      37.941   1.009   9.632  1.00  0.00     0.158 HD
ATOM     24  H31 UNL     1      36.759   1.109   8.570  1.00  0.00     0.158 HD
ENDBRANCH  13  22
BRANCH   5  25
HETATM   25  O1  UNL     1      37.483  -9.394   8.616  1.00  0.00    -0.376 OA
ATOM     26  H1  UNL     1      37.946  -8.752   8.090  1.00  0.00     0.212 HD
ENDBRANCH   5  25
TORSDOF 2
ENDMDL
MODEL 2
REMARK VINA RESULT: -7.678336446      1.127      1.166
REMARK  2 active torsions:
REMARK  status: ('A' for Active; 'I' for Inactive)
REMARK    1  A    between atoms: C5_5  and  O1_6 
REMARK    2  A    between atoms: C9_15  and  N3_16 
ROOT
HETATM    1  C1  UNL     1      36.482  -7.840  12.645  1.00  0.00     0.023 C 
HETATM    2  C2  UNL     1      35.740  -8.160  11.369  1.00  0.00     0.015 C 
HETATM    3  C3  UNL     1      34.254  -8.077  11.525  1.00  0.00     0.023 C 
HETATM    4  C4  UNL     1      36.143  -9.544  10.927  1.00  0.00     0.071 C 
HETATM    5  C5  UNL     1      36.258  -9.459   9.441  1.00  0.00     0.229 C 
HETATM    6  N1  UNL     1      36.474  -8.030   9.166  1.00  0.00    -0.283 N 
HETATM    7  C6  UNL     1      36.187  -7.297  10.238  1.00  0.00     0.097 A 
HETATM    8  N2  UNL     1      36.338  -5.938  10.145  1.00  0.00    -0.328 N 
ATOM      9  H2  UNL     1      36.130  -5.342  10.946  1.00  0.00     0.169 HD
HETATM   10  C7  UNL     1      36.759  -5.402   9.002  1.00  0.00     0.152 A 
HETATM   11  C8  UNL     1      37.004  -4.086   8.612  1.00  0.00     0.099 A 
HETATM   12  S1  UNL     1      37.012  -2.430   9.036  1.00  0.00    -0.047 SA
HETATM   13  C9  UNL     1      37.557  -1.787   7.543  1.00  0.00     0.144 A 
HETATM   14  N4  UNL     1      37.707  -2.876   6.794  1.00  0.00    -0.321 N 
ATOM     15  H4  UNL     1      38.029  -2.802   5.829  1.00  0.00     0.169 HD
HETATM   16  C10 UNL     1      37.433  -4.044   7.317  1.00  0.00     0.143 A 
HETATM   17  N5  UNL     1      37.438  -5.371   6.941  1.00  0.00    -0.274 N 
ATOM     18  H5  UNL     1      37.711  -5.708   6.018  1.00  0.00     0.189 HD
HETATM   19  N6  UNL     1      37.050  -6.139   7.918  1.00  0.00    -0.210 N 
HETATM   20  C11 UNL     1      36.909  -7.484   7.986  1.00  0.00     0.205 A 
HETATM   21  S2  UNL     1      37.245  -8.414   6.711  1.00  0.00    -0.038 SA
ENDROOT
BRANCH  13  22
HETATM   22  N3  UNL     1      37.776  -0.533   7.216  1.00  0.00    -0.380 N 
ATOM     23  H32 UNL     1      38.595  -0.128   6.762  1.00  0.00     0.158 HD
ATOM     24  H31 UNL     1      37.172   0.277   7.352  1.00  0.00     0.158 HD
ENDBRANCH  13  22
BRANCH   5  25
HETATM   25  O1  UNL     1      37.336 -10.203   8.949  1.00  0.00    -0.376 OA
ATOM     26  H1  UNL     1      37.205 -10.477   8.048  1.00  0.00     0.212 HD
ENDBRANCH   5  25
TORSDOF 2
ENDMDL
MODEL 3
REMARK VINA RESULT: -7.598071476      3.020      5.898
REMARK  2 active torsions:
REMARK  status: ('A' for Active; 'I' for Inactive)
REMARK    1  A    between atoms: C5_5  and  O1_6 
REMARK    2  A    between atoms: C9_15  and  N3_16 
ROOT
HETATM    1  C1  UNL     1      35.790  -4.433  11.950  1.00  0.00     0.023 C 
HETATM    2  C2  UNL     1      36.901  -4.042  11.004  1.00  0.00     0.015 C 
HETATM    3  C3  UNL     1      38.226  -3.911  11.688  1.00  0.00     0.023 C 
HETATM    4  C4  UNL     1      36.520  -2.741  10.346  1.00  0.00     0.071 C 
HETATM    5  C5  UNL     1      36.967  -2.879   8.927  1.00  0.00     0.229 C 
HETATM    6  N1  UNL     1      37.043  -4.330   8.700  1.00  0.00    -0.283 N 
HETATM    7  C6  UNL     1      37.007  -4.988   9.856  1.00  0.00     0.097 A 
HETATM    8  N2  UNL     1      37.068  -6.356   9.817  1.00  0.00    -0.328 N 
ATOM      9  H2  UNL     1      37.041  -6.897  10.681  1.00  0.00     0.169 HD
HETATM   10  C7  UNL     1      37.162  -6.975   8.642  1.00  0.00     0.152 A 
HETATM   11  C8  UNL     1      37.240  -8.322   8.289  1.00  0.00     0.099 A 
HETATM   12  S1  UNL     1      37.282  -9.951   8.805  1.00  0.00    -0.047 SA
HETATM   13  C9  UNL     1      37.402 -10.701   7.268  1.00  0.00     0.144 A 
HETATM   14  N4  UNL     1      37.403  -9.664   6.437  1.00  0.00    -0.321 N 
ATOM     15  H4  UNL     1      37.467  -9.807   5.429  1.00  0.00     0.169 HD
HETATM   16  C10 UNL     1      37.322  -8.457   6.934  1.00  0.00     0.143 A 
HETATM   17  N5  UNL     1      37.291  -7.153   6.483  1.00  0.00    -0.274 N 
ATOM     18  H5  UNL     1      37.334  -6.881   5.501  1.00  0.00     0.189 HD
HETATM   19  N6  UNL     1      37.199  -6.314   7.474  1.00  0.00    -0.210 N 
HETATM   20  C11 UNL     1      37.139  -4.961   7.487  1.00  0.00     0.205 A 
HETATM   21  S2  UNL     1      37.180  -4.120   6.111  1.00  0.00    -0.038 SA
ENDROOT
BRANCH  13  22
HETATM   22  N3  UNL     1      37.474 -11.982   6.980  1.00  0.00    -0.380 N 
ATOM     23  H32 UNL     1      36.963 -12.758   7.402  1.00  0.00     0.158 HD
ATOM     24  H31 UNL     1      38.051 -12.448   6.280  1.00  0.00     0.158 HD
ENDBRANCH  13  22
BRANCH   5  25
HETATM   25  O1  UNL     1      36.059  -2.307   8.028  1.00  0.00    -0.376 OA
ATOM     26  H1  UNL     1      36.452  -2.134   7.180  1.00  0.00     0.212 HD
ENDBRANCH   5  25
TORSDOF 2
ENDMDL
MODEL 4
REMARK VINA RESULT: -7.543110306      2.981      5.031
REMARK  2 active torsions:
REMARK  status: ('A' for Active; 'I' for Inactive)
REMARK    1  A    between atoms: C5_5  and  O1_6 
REMARK    2  A    between atoms: C9_15  and  N3_16 
ROOT
HETATM    1  C1  UNL     1      38.411  -4.268  11.496  1.00  0.00     0.023 C 
HETATM    2  C2  UNL     1      37.052  -4.902  11.315  1.00  0.00     0.015 C 
HETATM    3  C3  UNL     1      35.962  -3.894  11.124  1.00  0.00     0.023 C 
HETATM    4  C4  UNL     1      36.768  -5.756  12.523  1.00  0.00     0.071 C 
HETATM    5  C5  UNL     1      36.097  -6.977  11.986  1.00  0.00     0.229 C 
HETATM    6  N1  UNL     1      36.510  -7.040  10.576  1.00  0.00    -0.283 N 
HETATM    7  C6  UNL     1      37.045  -5.884  10.193  1.00  0.00     0.097 A 
HETATM    8  N2  UNL     1      37.484  -5.778   8.899  1.00  0.00    -0.328 N 
ATOM      9  H2  UNL     1      37.902  -4.909   8.567  1.00  0.00     0.169 HD
HETATM   10  C7  UNL     1      37.362  -6.819   8.079  1.00  0.00     0.152 A 
HETATM   11  C8  UNL     1      37.708  -7.011   6.741  1.00  0.00     0.099 A 
HETATM   12  S1  UNL     1      38.385  -6.356   5.315  1.00  0.00    -0.047 SA
HETATM   13  C9  UNL     1      38.207  -7.724   4.297  1.00  0.00     0.144 A 
HETATM   14  N4  UNL     1      37.636  -8.615   5.102  1.00  0.00    -0.321 N 
ATOM     15  H4  UNL     1      37.404  -9.548   4.763  1.00  0.00     0.169 HD
HETATM   16  C10 UNL     1      37.378  -8.273   6.339  1.00  0.00     0.143 A 
HETATM   17  N5  UNL     1      36.825  -8.832   7.472  1.00  0.00    -0.274 N 
ATOM     18  H5  UNL     1      36.465  -9.784   7.528  1.00  0.00     0.189 HD
HETATM   19  N6  UNL     1      36.823  -7.987   8.462  1.00  0.00    -0.210 N 
HETATM   20  C11 UNL     1      36.382  -8.115   9.736  1.00  0.00     0.205 A 
HETATM   21  S2  UNL     1      35.726  -9.498  10.247  1.00  0.00    -0.038 SA
ENDROOT
BRANCH  13  22
HETATM   22  N3  UNL     1      38.548  -7.862   3.035  1.00  0.00    -0.380 N 
ATOM     23  H32 UNL     1      38.940  -7.164   2.403  1.00  0.00     0.158 HD
ATOM     24  H31 UNL     1      38.487  -8.691   2.444  1.00  0.00     0.158 HD
ENDBRANCH  13  22
BRANCH   5  25
HETATM   25  O1  UNL     1      36.502  -8.141  12.650  1.00  0.00    -0.376 OA
ATOM     26  H1  UNL     1      36.073  -8.918  12.311  1.00  0.00     0.212 HD
ENDBRANCH   5  25
TORSDOF 2
ENDMDL
MODEL 5
REMARK VINA RESULT: -7.466474844      3.139      5.614
REMARK  2 active torsions:
REMARK  status: ('A' for Active; 'I' for Inactive)
REMARK    1  A    between atoms: C5_5  and  O1_6 
REMARK    2  A    between atoms: C9_15  and  N3_16 
ROOT
HETATM    1  C1  UNL     1      35.926  -4.778  11.830  1.00  0.00     0.023 C 
HETATM    2  C2  UNL     1      37.043  -4.025  11.147  1.00  0.00     0.015 C 
HETATM    3  C3  UNL     1      38.388  -4.328  11.730  1.00  0.00     0.023 C 
HETATM    4  C4  UNL     1      36.747  -2.551  11.251  1.00  0.00     0.071 C 
HETATM    5  C5  UNL     1      37.153  -1.980   9.932  1.00  0.00     0.229 C 
HETATM    6  N1  UNL     1      37.116  -3.122   9.005  1.00  0.00    -0.283 N 
HETATM    7  C6  UNL     1      37.055  -4.269   9.676  1.00  0.00     0.097 A 
HETATM    8  N2  UNL     1      37.013  -5.432   8.953  1.00  0.00    -0.328 N 
ATOM      9  H2  UNL     1      36.964  -6.332   9.431  1.00  0.00     0.169 HD
HETATM   10  C7  UNL     1      37.037  -5.380   7.624  1.00  0.00     0.152 A 
HETATM   11  C8  UNL     1      37.007  -6.368   6.640  1.00  0.00     0.099 A 
HETATM   12  S1  UNL     1      36.937  -8.035   6.267  1.00  0.00    -0.047 SA
HETATM   13  C9  UNL     1      36.969  -7.915   4.557  1.00  0.00     0.144 A 
HETATM   14  N4  UNL     1      37.031  -6.602   4.358  1.00  0.00    -0.321 N 
ATOM     15  H4  UNL     1      37.064  -6.221   3.413  1.00  0.00     0.169 HD
HETATM   16  C10 UNL     1      37.051  -5.807   5.397  1.00  0.00     0.143 A 
HETATM   17  N5  UNL     1      37.108  -4.454   5.663  1.00  0.00    -0.274 N 
ATOM     18  H5  UNL     1      37.151  -3.728   4.948  1.00  0.00     0.189 HD
HETATM   19  N6  UNL     1      37.098  -4.224   6.943  1.00  0.00    -0.210 N 
HETATM   20  C11 UNL     1      37.140  -3.060   7.636  1.00  0.00     0.205 A 
HETATM   21  S2  UNL     1      37.216  -1.645   6.866  1.00  0.00    -0.038 SA
ENDROOT
BRANCH  13  22
HETATM   22  N3  UNL     1      36.940  -8.878   3.663  1.00  0.00    -0.380 N 
ATOM     23  H32 UNL     1      36.188  -9.123   3.019  1.00  0.00     0.158 HD
ATOM     24  H31 UNL     1      37.659  -9.565   3.440  1.00  0.00     0.158 HD
ENDBRANCH  13  22
BRANCH   5  25
HETATM   25  O1  UNL     1      36.273  -0.985   9.492  1.00  0.00    -0.376 OA
ATOM     26  H1  UNL     1      35.703  -1.291   8.795  1.00  0.00     0.212 HD
ENDBRANCH   5  25
TORSDOF 2
ENDMDL
