MODEL 1
REMARK VINA RESULT: -6.656136207      0.000      0.000
REMARK  3 active torsions:
REMARK  status: ('A' for Active; 'I' for Inactive)
REMARK    1  A    between atoms: N1_2  and  C2_4 
REMARK    2  A    between atoms: C2_4  and  N2_6 
REMARK    3  A    between atoms: N3_11  and  O1_13 
ROOT
HETATM    1  N2  UNL     1      37.351  -0.996   9.865  1.00  0.00    -0.331 N 
ATOM      2  H2  UNL     1      37.525  -0.433  10.698  1.00  0.00     0.168 HD
HETATM    3  C3  UNL     1      37.070  -2.242  10.005  1.00  0.00     0.059 C 
HETATM    4  C4  UNL     1      37.005  -2.826  11.363  1.00  0.00     0.125 C 
HETATM    5  C5  UNL     1      36.252  -4.092  11.444  1.00  0.00     0.052 C 
HETATM    6  N3  UNL     1      35.282  -4.209  12.282  1.00  0.00    -0.272 N 
ATOM      7  H3  UNL     1      34.760  -5.084  12.340  1.00  0.00     0.194 HD
HETATM    8  C6  UNL     1      36.611  -5.247  10.571  1.00  0.00     0.040 A 
HETATM    9  C7  UNL     1      36.697  -6.551  10.995  1.00  0.00     0.102 A 
HETATM   10  N4  UNL     1      36.461  -7.112  12.310  1.00  0.00    -0.093 NA
HETATM   11  S2  UNL     1      37.143  -7.401   9.593  1.00  0.00    -0.058 SA
HETATM   12  C8  UNL     1      37.213  -6.107   8.496  1.00  0.00     0.106 A 
HETATM   13  N5  UNL     1      37.542  -6.120   7.086  1.00  0.00    -0.093 NA
HETATM   14  C9  UNL     1      36.881  -5.019   9.263  1.00  0.00     0.052 A 
HETATM   15  S3  UNL     1      36.751  -3.306   8.623  1.00  0.00    -0.073 SA
ENDROOT
BRANCH   1  16
HETATM   16  C2  UNL     1      37.428  -0.375   8.585  1.00  0.00     0.172 C 
HETATM   17  S1  UNL     1      38.848   0.125   7.946  1.00  0.00    -0.041 SA
BRANCH  16  18
HETATM   18  N1  UNL     1      36.232  -0.182   7.841  1.00  0.00    -0.371 N 
HETATM   19  C1  UNL     1      36.254  -0.150   6.391  1.00  0.00     0.148 C 
ATOM     20  H1  UNL     1      35.347  -0.065   8.334  1.00  0.00     0.161 HD
ENDBRANCH  16  18
ENDBRANCH   1  16
BRANCH   6  21
HETATM   21  O1  UNL     1      34.948  -3.157  13.097  1.00  0.00    -0.290 OA
ATOM     22  H1  UNL     1      34.348  -3.288  13.822  1.00  0.00     0.244 HD
ENDBRANCH   6  21
TORSDOF 3
ENDMDL
MODEL 2
REMARK VINA RESULT: -6.553684074      1.864      2.290
REMARK  3 active torsions:
REMARK  status: ('A' for Active; 'I' for Inactive)
REMARK    1  A    between atoms: N1_2  and  C2_4 
REMARK    2  A    between atoms: C2_4  and  N2_6 
REMARK    3  A    between atoms: N3_11  and  O1_13 
ROOT
HETATM    1  N2  UNL     1      36.548   0.129   7.616  1.00  0.00    -0.331 N 
ATOM      2  H2  UNL     1      36.872   0.943   8.138  1.00  0.00     0.168 HD
HETATM    3  C3  UNL     1      36.619  -1.029   8.165  1.00  0.00     0.059 C 
HETATM    4  C4  UNL     1      37.167  -1.155   9.534  1.00  0.00     0.125 C 
HETATM    5  C5  UNL     1      36.793  -2.404  10.225  1.00  0.00     0.052 C 
HETATM    6  N3  UNL     1      36.229  -2.352  11.382  1.00  0.00    -0.272 N 
ATOM      7  H3  UNL     1      35.970  -3.214  11.862  1.00  0.00     0.194 HD
HETATM    8  C6  UNL     1      37.070  -3.730   9.602  1.00  0.00     0.040 A 
HETATM    9  C7  UNL     1      37.588  -4.814  10.269  1.00  0.00     0.102 A 
HETATM   10  N4  UNL     1      37.959  -4.949  11.663  1.00  0.00    -0.093 NA
HETATM   11  S2  UNL     1      37.692  -6.012   9.069  1.00  0.00    -0.058 SA
HETATM   12  C8  UNL     1      37.083  -5.135   7.749  1.00  0.00     0.106 A 
HETATM   13  N5  UNL     1      36.891  -5.560   6.378  1.00  0.00    -0.093 NA
HETATM   14  C9  UNL     1      36.807  -3.902   8.285  1.00  0.00     0.052 A 
HETATM   15  S3  UNL     1      36.082  -2.507   7.342  1.00  0.00    -0.073 SA
ENDROOT
BRANCH   1  16
HETATM   16  C2  UNL     1      36.031   0.316   6.301  1.00  0.00     0.172 C 
HETATM   17  S1  UNL     1      36.993   0.305   4.979  1.00  0.00    -0.041 SA
BRANCH  16  18
HETATM   18  N1  UNL     1      34.634   0.519   6.134  1.00  0.00    -0.371 N 
HETATM   19  C1  UNL     1      34.129   1.665   5.402  1.00  0.00     0.148 C 
ATOM     20  H1  UNL     1      33.977  -0.151   6.534  1.00  0.00     0.161 HD
ENDBRANCH  16  18
ENDBRANCH   1  16
BRANCH   6  21
HETATM   21  O1  UNL     1      35.977  -1.138  11.969  1.00  0.00    -0.290 OA
ATOM     22  H1  UNL     1      35.093  -0.912  12.234  1.00  0.00     0.244 HD
ENDBRANCH   6  21
TORSDOF 3
ENDMDL
MODEL 3
REMARK VINA RESULT: -6.384784267      2.294      2.599
REMARK  3 active torsions:
REMARK  status: ('A' for Active; 'I' for Inactive)
REMARK    1  A    between atoms: N1_2  and  C2_4 
REMARK    2  A    between atoms: C2_4  and  N2_6 
REMARK    3  A    between atoms: N3_11  and  O1_13 
ROOT
HETATM    1  N2  UNL     1      37.520  -3.228   8.198  1.00  0.00    -0.331 N 
ATOM      2  H2  UNL     1      37.916  -2.498   8.790  1.00  0.00     0.168 HD
HETATM    3  C3  UNL     1      37.128  -4.323   8.741  1.00  0.00     0.059 C 
HETATM    4  C4  UNL     1      37.259  -4.500  10.204  1.00  0.00     0.125 C 
HETATM    5  C5  UNL     1      36.394  -5.552  10.769  1.00  0.00     0.052 C 
HETATM    6  N3  UNL     1      35.597  -5.274  11.741  1.00  0.00    -0.272 N 
ATOM      7  H3  UNL     1      34.997  -6.000  12.134  1.00  0.00     0.194 HD
HETATM    8  C6  UNL     1      36.439  -6.943  10.233  1.00  0.00     0.040 A 
HETATM    9  C7  UNL     1      36.452  -8.079  11.005  1.00  0.00     0.102 A 
HETATM   10  N4  UNL     1      36.411  -8.216  12.447  1.00  0.00    -0.093 NA
HETATM   11  S2  UNL     1      36.516  -9.339   9.866  1.00  0.00    -0.058 SA
HETATM   12  C8  UNL     1      36.523  -8.420   8.439  1.00  0.00     0.106 A 
HETATM   13  N5  UNL     1      36.569  -8.869   7.062  1.00  0.00    -0.093 NA
HETATM   14  C9  UNL     1      36.475  -7.126   8.891  1.00  0.00     0.052 A 
HETATM   15  S3  UNL     1      36.425  -5.653   7.800  1.00  0.00    -0.073 SA
ENDROOT
BRANCH   1  16
HETATM   16  C2  UNL     1      37.420  -2.997   6.795  1.00  0.00     0.172 C 
HETATM   17  S1  UNL     1      36.087  -2.338   6.115  1.00  0.00    -0.041 SA
BRANCH  16  18
HETATM   18  N1  UNL     1      38.514  -3.353   5.960  1.00  0.00    -0.371 N 
HETATM   19  C1  UNL     1      38.711  -2.709   4.674  1.00  0.00     0.148 C 
ATOM     20  H1  UNL     1      39.170  -4.071   6.268  1.00  0.00     0.161 HD
ENDBRANCH  16  18
ENDBRANCH   1  16
BRANCH   6  21
HETATM   21  O1  UNL     1      35.553  -4.000  12.250  1.00  0.00    -0.290 OA
ATOM     22  H1  UNL     1      35.602  -3.861  13.188  1.00  0.00     0.244 HD
ENDBRANCH   6  21
TORSDOF 3
ENDMDL
MODEL 4
REMARK VINA RESULT: -6.224533188      2.462      3.504
REMARK  3 active torsions:
REMARK  status: ('A' for Active; 'I' for Inactive)
REMARK    1  A    between atoms: N1_2  and  C2_4 
REMARK    2  A    between atoms: C2_4  and  N2_6 
REMARK    3  A    between atoms: N3_11  and  O1_13 
ROOT
HETATM    1  N2  UNL     1      36.812  -2.775   7.117  1.00  0.00    -0.331 N 
ATOM      2  H2  UNL     1      36.784  -3.145   6.167  1.00  0.00     0.168 HD
HETATM    3  C3  UNL     1      36.786  -3.597   8.104  1.00  0.00     0.059 C 
HETATM    4  C4  UNL     1      36.717  -5.051   7.841  1.00  0.00     0.125 C 
HETATM    5  C5  UNL     1      37.144  -5.894   8.974  1.00  0.00     0.052 C 
HETATM    6  N3  UNL     1      38.064  -6.779   8.803  1.00  0.00    -0.272 N 
ATOM      7  H3  UNL     1      38.361  -7.364   9.586  1.00  0.00     0.194 HD
HETATM    8  C6  UNL     1      36.513  -5.741  10.316  1.00  0.00     0.040 A 
HETATM    9  C7  UNL     1      36.119  -6.784  11.119  1.00  0.00     0.102 A 
HETATM   10  N4  UNL     1      36.222  -8.212  10.895  1.00  0.00    -0.093 NA
HETATM   11  S2  UNL     1      35.472  -6.014  12.489  1.00  0.00    -0.058 SA
HETATM   12  C8  UNL     1      35.708  -4.396  12.033  1.00  0.00     0.106 A 
HETATM   13  N5  UNL     1      35.376  -3.185  12.755  1.00  0.00    -0.093 NA
HETATM   14  C9  UNL     1      36.297  -4.493  10.798  1.00  0.00     0.052 A 
HETATM   15  S3  UNL     1      36.830  -3.056   9.793  1.00  0.00    -0.073 SA
ENDROOT
BRANCH   1  16
HETATM   16  C2  UNL     1      36.878  -1.364   7.305  1.00  0.00     0.172 C 
HETATM   17  S1  UNL     1      38.302  -0.566   7.399  1.00  0.00    -0.041 SA
BRANCH  16  18
HETATM   18  N1  UNL     1      35.668  -0.628   7.416  1.00  0.00    -0.371 N 
HETATM   19  C1  UNL     1      34.713  -0.594   6.324  1.00  0.00     0.148 C 
ATOM     20  H1  UNL     1      35.467  -0.115   8.275  1.00  0.00     0.161 HD
ENDBRANCH  16  18
ENDBRANCH   1  16
BRANCH   6  21
HETATM   21  O1  UNL     1      38.646  -6.937   7.571  1.00  0.00    -0.290 OA
ATOM     22  H1  UNL     1      39.135  -7.727   7.373  1.00  0.00     0.244 HD
ENDBRANCH   6  21
TORSDOF 3
ENDMDL
MODEL 5
REMARK VINA RESULT: -6.176436991      2.641      3.720
REMARK  3 active torsions:
REMARK  status: ('A' for Active; 'I' for Inactive)
REMARK    1  A    between atoms: N1_2  and  C2_4 
REMARK    2  A    between atoms: C2_4  and  N2_6 
REMARK    3  A    between atoms: N3_11  and  O1_13 
ROOT
HETATM    1  N2  UNL     1      36.626  -3.024   6.646  1.00  0.00    -0.331 N 
ATOM      2  H2  UNL     1      36.565  -3.518   5.756  1.00  0.00     0.168 HD
HETATM    3  C3  UNL     1      36.676  -3.707   7.732  1.00  0.00     0.059 C 
HETATM    4  C4  UNL     1      36.643  -5.185   7.667  1.00  0.00     0.125 C 
HETATM    5  C5  UNL     1      37.153  -5.857   8.877  1.00  0.00     0.052 C 
HETATM    6  N3  UNL     1      38.093  -6.732   8.777  1.00  0.00    -0.272 N 
ATOM      7  H3  UNL     1      38.446  -7.199   9.613  1.00  0.00     0.194 HD
HETATM    8  C6  UNL     1      36.582  -5.543  10.219  1.00  0.00     0.040 A 
HETATM    9  C7  UNL     1      36.262  -6.480  11.171  1.00  0.00     0.102 A 
HETATM   10  N4  UNL     1      36.403  -7.922  11.133  1.00  0.00    -0.093 NA
HETATM   11  S2  UNL     1      35.657  -5.552  12.460  1.00  0.00    -0.058 SA
HETATM   12  C8  UNL     1      35.816  -4.003  11.784  1.00  0.00     0.106 A 
HETATM   13  N5  UNL     1      35.478  -2.716  12.355  1.00  0.00    -0.093 NA
HETATM   14  C9  UNL     1      36.348  -4.249  10.543  1.00  0.00     0.052 A 
HETATM   15  S3  UNL     1      36.783  -2.945   9.331  1.00  0.00    -0.073 SA
ENDROOT
BRANCH   1  16
HETATM   16  C2  UNL     1      36.654  -1.599   6.642  1.00  0.00     0.172 C 
HETATM   17  S1  UNL     1      35.290  -0.704   6.527  1.00  0.00    -0.041 SA
BRANCH  16  18
HETATM   18  N1  UNL     1      37.906  -0.935   6.741  1.00  0.00    -0.371 N 
HETATM   19  C1  UNL     1      38.061   0.246   7.569  1.00  0.00     0.148 C 
ATOM     20  H1  UNL     1      38.709  -1.295   6.223  1.00  0.00     0.161 HD
ENDBRANCH  16  18
ENDBRANCH   1  16
BRANCH   6  21
HETATM   21  O1  UNL     1      38.619  -7.037   7.548  1.00  0.00    -0.290 OA
ATOM     22  H1  UNL     1      39.531  -6.845   7.360  1.00  0.00     0.244 HD
ENDBRANCH   6  21
TORSDOF 3
ENDMDL
