MODEL 1
REMARK VINA RESULT: -8.723303613      0.000      0.000
REMARK  10 active torsions:
REMARK  status: ('A' for Active; 'I' for Inactive)
REMARK    1  A    between atoms: C2_2  and  O1_5 
REMARK    2  A    between atoms: O1_5  and  C5_6 
REMARK    3  A    between atoms: C5_6  and  C6_7 
REMARK    4  A    between atoms: C6_7  and  N1_8 
REMARK    5  A    between atoms: N1_8  and  C7_10 
REMARK    6  A    between atoms: C7_10  and  C8_11 
REMARK    7  A    between atoms: C8_11  and  C9_13 
REMARK    8  A    between atoms: C10_14  and  C11_15 
REMARK    9  A    between atoms: C24_30  and  C26_32 
REMARK   10  A    between atoms: C26_32  and  C27_33 
ROOT
HETATM    1  C9  UNL     1      44.650  12.782   0.263  1.00  0.00     0.080 C 
HETATM    2  C10 UNL     1      44.607  12.892  -1.235  1.00  0.00     0.060 C 
HETATM    3  C12 UNL     1      44.342  11.466  -1.725  1.00  0.00     0.017 C 
HETATM    4  C13 UNL     1      44.345  10.670  -0.462  1.00  0.00    -0.004 C 
HETATM    5  C14 UNL     1      44.754   9.273  -0.587  1.00  0.00     0.006 C 
HETATM    6  C15 UNL     1      46.120   9.229  -1.191  1.00  0.00     0.010 C 
HETATM    7  C16 UNL     1      47.147  10.044  -0.477  1.00  0.00    -0.035 C 
HETATM    8  C17 UNL     1      48.072  10.561  -1.601  1.00  0.00     0.016 C 
HETATM    9  C18 UNL     1      48.046   9.045   0.252  1.00  0.00     0.005 C 
HETATM   10  C19 UNL     1      49.504   9.275   0.043  1.00  0.00     0.076 C 
HETATM   11  C20 UNL     1      50.367   8.682   1.113  1.00  0.00     0.098 C 
HETATM   12  F1  UNL     1      51.729   8.897   1.068  1.00  0.00    -0.211 F 
HETATM   13  C21 UNL     1      49.903   7.958   2.112  1.00  0.00    -0.032 C 
HETATM   14  C22 UNL     1      48.443   7.690   2.217  1.00  0.00     0.023 C 
HETATM   15  C23 UNL     1      48.638   7.623   3.708  1.00  0.00     0.024 C 
HETATM   16  C24 UNL     1      50.034   7.139   3.366  1.00  0.00    -0.007 C 
HETATM   17  C25 UNL     1      50.069   5.670   2.999  1.00  0.00     0.021 C 
HETATM   18  C28 UNL     1      47.629   8.798   1.673  1.00  0.00    -0.001 C 
HETATM   19  C29 UNL     1      47.613  10.054   2.451  1.00  0.00     0.006 C 
HETATM   20  C30 UNL     1      47.488  11.294   1.655  1.00  0.00     0.006 C 
HETATM   21  C31 UNL     1      46.660  11.180   0.369  1.00  0.00     0.003 C 
HETATM   22  C32 UNL     1      45.229  11.404   0.549  1.00  0.00    -0.025 C 
HETATM   23  C33 UNL     1      44.681  10.945   1.905  1.00  0.00     0.016 C 
ENDROOT
BRANCH   1  24
HETATM   24  C8  UNL     1      45.102  13.920   1.004  1.00  0.00     0.170 C 
HETATM   25  O2  UNL     1      46.065  13.925   1.798  1.00  0.00    -0.291 OA
BRANCH  24  26
HETATM   26  C7  UNL     1      44.465  15.258   0.917  1.00  0.00     0.138 C 
BRANCH  26  27
HETATM   27  N1  UNL     1      44.019  15.774   2.149  1.00  0.00    -0.373 N 
ATOM     28  H1  UNL     1      43.411  15.199   2.733  1.00  0.00     0.164 HD
BRANCH  27  29
HETATM   29  C6  UNL     1      44.384  17.053   2.601  1.00  0.00     0.086 C 
BRANCH  29  30
HETATM   30  C5  UNL     1      45.823  17.387   2.715  1.00  0.00     0.213 C 
BRANCH  30  31
HETATM   31  O1  UNL     1      46.291  17.781   3.930  1.00  0.00    -0.376 OA
BRANCH  31  32
HETATM   32  C2  UNL     1      47.117  17.012   4.660  1.00  0.00     0.050 C 
HETATM   33  C1  UNL     1      46.407  16.032   5.580  1.00  0.00     0.045 C 
HETATM   34  C3  UNL     1      48.260  17.658   5.368  1.00  0.00     0.045 C 
HETATM   35  C4  UNL     1      47.798  16.061   3.614  1.00  0.00     0.045 C 
ENDBRANCH  31  32
ENDBRANCH  30  31
ENDBRANCH  29  30
ENDBRANCH  27  29
ENDBRANCH  26  27
ENDBRANCH  24  26
ENDBRANCH   1  24
BRANCH   2  36
HETATM   36  C11 UNL     1      45.659  13.570  -1.930  1.00  0.00     0.236 C 
HETATM   37  O3  UNL     1      45.412  14.658  -2.454  1.00  0.00    -0.306 OA
ENDBRANCH   2  36
BRANCH  16  38
HETATM   38  C26 UNL     1      51.144   7.606   4.245  1.00  0.00     0.127 C 
BRANCH  38  39
HETATM   39  C27 UNL     1      52.263   6.638   4.322  1.00  0.00     0.173 C 
HETATM   40  O4  UNL     1      52.522   6.103   5.445  1.00  0.00    -0.648 OA
HETATM   41  O5  UNL     1      53.039   6.285   3.239  1.00  0.00    -0.648 OA
ENDBRANCH  38  39
ENDBRANCH  16  38
TORSDOF 10
ENDMDL
MODEL 2
REMARK VINA RESULT: -8.249988618      1.021      1.296
REMARK  10 active torsions:
REMARK  status: ('A' for Active; 'I' for Inactive)
REMARK    1  A    between atoms: C2_2  and  O1_5 
REMARK    2  A    between atoms: O1_5  and  C5_6 
REMARK    3  A    between atoms: C5_6  and  C6_7 
REMARK    4  A    between atoms: C6_7  and  N1_8 
REMARK    5  A    between atoms: N1_8  and  C7_10 
REMARK    6  A    between atoms: C7_10  and  C8_11 
REMARK    7  A    between atoms: C8_11  and  C9_13 
REMARK    8  A    between atoms: C10_14  and  C11_15 
REMARK    9  A    between atoms: C24_30  and  C26_32 
REMARK   10  A    between atoms: C26_32  and  C27_33 
ROOT
HETATM    1  C9  UNL     1      44.516  12.218  -0.657  1.00  0.00     0.080 C 
HETATM    2  C10 UNL     1      44.383  11.958  -2.131  1.00  0.00     0.060 C 
HETATM    3  C12 UNL     1      44.033  10.472  -2.237  1.00  0.00     0.017 C 
HETATM    4  C13 UNL     1      44.084  10.013  -0.818  1.00  0.00    -0.004 C 
HETATM    5  C14 UNL     1      44.429   8.608  -0.611  1.00  0.00     0.006 C 
HETATM    6  C15 UNL     1      45.752   8.344  -1.254  1.00  0.00     0.010 C 
HETATM    7  C16 UNL     1      46.853   9.254  -0.819  1.00  0.00    -0.035 C 
HETATM    8  C17 UNL     1      47.725   9.429  -2.082  1.00  0.00     0.016 C 
HETATM    9  C18 UNL     1      47.756   8.418   0.089  1.00  0.00     0.005 C 
HETATM   10  C19 UNL     1      49.206   8.513  -0.244  1.00  0.00     0.076 C 
HETATM   11  C20 UNL     1      50.110   8.156   0.894  1.00  0.00     0.098 C 
HETATM   12  F1  UNL     1      51.474   8.280   0.727  1.00  0.00    -0.211 F 
HETATM   13  C21 UNL     1      49.681   7.725   2.064  1.00  0.00    -0.032 C 
HETATM   14  C22 UNL     1      48.222   7.570   2.307  1.00  0.00     0.023 C 
HETATM   15  C23 UNL     1      48.506   7.861   3.755  1.00  0.00     0.024 C 
HETATM   16  C24 UNL     1      49.858   7.235   3.474  1.00  0.00    -0.007 C 
HETATM   17  C25 UNL     1      49.813   5.720   3.483  1.00  0.00     0.021 C 
HETATM   18  C28 UNL     1      47.419   8.551   1.546  1.00  0.00    -0.001 C 
HETATM   19  C29 UNL     1      47.501   9.959   1.987  1.00  0.00     0.006 C 
HETATM   20  C30 UNL     1      47.374  10.970   0.915  1.00  0.00     0.006 C 
HETATM   21  C31 UNL     1      46.464  10.588  -0.259  1.00  0.00     0.003 C 
HETATM   22  C32 UNL     1      45.056  10.924  -0.067  1.00  0.00    -0.025 C 
HETATM   23  C33 UNL     1      44.577  10.843   1.387  1.00  0.00     0.016 C 
ENDROOT
BRANCH   1  24
HETATM   24  C8  UNL     1      45.056  13.478  -0.246  1.00  0.00     0.170 C 
HETATM   25  O2  UNL     1      45.442  14.380  -1.018  1.00  0.00    -0.291 OA
BRANCH  24  26
HETATM   26  C7  UNL     1      45.229  13.871   1.175  1.00  0.00     0.138 C 
BRANCH  26  27
HETATM   27  N1  UNL     1      44.219  14.716   1.675  1.00  0.00    -0.373 N 
ATOM     28  H1  UNL     1      43.338  14.302   1.982  1.00  0.00     0.164 HD
BRANCH  27  29
HETATM   29  C6  UNL     1      44.384  16.107   1.764  1.00  0.00     0.086 C 
BRANCH  29  30
HETATM   30  C5  UNL     1      45.014  16.676   2.979  1.00  0.00     0.213 C 
BRANCH  30  31
HETATM   31  O1  UNL     1      46.364  16.563   3.109  1.00  0.00    -0.376 OA
BRANCH  31  32
HETATM   32  C2  UNL     1      46.939  16.164   4.257  1.00  0.00     0.050 C 
HETATM   33  C1  UNL     1      46.963  14.657   4.452  1.00  0.00     0.045 C 
HETATM   34  C3  UNL     1      46.557  16.848   5.526  1.00  0.00     0.045 C 
HETATM   35  C4  UNL     1      48.460  16.506   4.075  1.00  0.00     0.045 C 
ENDBRANCH  31  32
ENDBRANCH  30  31
ENDBRANCH  29  30
ENDBRANCH  27  29
ENDBRANCH  26  27
ENDBRANCH  24  26
ENDBRANCH   1  24
BRANCH   2  36
HETATM   36  C11 UNL     1      45.415  12.388  -3.025  1.00  0.00     0.236 C 
HETATM   37  O3  UNL     1      45.801  11.607  -3.897  1.00  0.00    -0.306 OA
ENDBRANCH   2  36
BRANCH  16  38
HETATM   38  C26 UNL     1      51.039   7.843   4.152  1.00  0.00     0.127 C 
BRANCH  38  39
HETATM   39  C27 UNL     1      52.186   6.911   4.258  1.00  0.00     0.173 C 
HETATM   40  O4  UNL     1      52.799   6.588   3.193  1.00  0.00    -0.648 OA
HETATM   41  O5  UNL     1      52.624   6.377   5.450  1.00  0.00    -0.648 OA
ENDBRANCH  38  39
ENDBRANCH  16  38
TORSDOF 10
ENDMDL
MODEL 3
REMARK VINA RESULT: -7.860436433      2.110      3.529
REMARK  10 active torsions:
REMARK  status: ('A' for Active; 'I' for Inactive)
REMARK    1  A    between atoms: C2_2  and  O1_5 
REMARK    2  A    between atoms: O1_5  and  C5_6 
REMARK    3  A    between atoms: C5_6  and  C6_7 
REMARK    4  A    between atoms: C6_7  and  N1_8 
REMARK    5  A    between atoms: N1_8  and  C7_10 
REMARK    6  A    between atoms: C7_10  and  C8_11 
REMARK    7  A    between atoms: C8_11  and  C9_13 
REMARK    8  A    between atoms: C10_14  and  C11_15 
REMARK    9  A    between atoms: C24_30  and  C26_32 
REMARK   10  A    between atoms: C26_32  and  C27_33 
ROOT
HETATM    1  C9  UNL     1      46.807  10.237   0.498  1.00  0.00     0.080 C 
HETATM    2  C10 UNL     1      47.584  10.833  -0.643  1.00  0.00     0.060 C 
HETATM    3  C12 UNL     1      48.008   9.635  -1.496  1.00  0.00     0.017 C 
HETATM    4  C13 UNL     1      47.504   8.469  -0.712  1.00  0.00    -0.004 C 
HETATM    5  C14 UNL     1      48.249   7.221  -0.870  1.00  0.00     0.006 C 
HETATM    6  C15 UNL     1      49.676   7.470  -0.505  1.00  0.00     0.010 C 
HETATM    7  C16 UNL     1      49.882   8.070   0.846  1.00  0.00    -0.035 C 
HETATM    8  C17 UNL     1      51.111   8.990   0.671  1.00  0.00     0.016 C 
HETATM    9  C18 UNL     1      50.436   6.948   1.725  1.00  0.00     0.005 C 
HETATM   10  C19 UNL     1      51.645   7.331   2.508  1.00  0.00     0.076 C 
HETATM   11  C20 UNL     1      51.877   6.476   3.715  1.00  0.00     0.098 C 
HETATM   12  F1  UNL     1      52.924   6.784   4.559  1.00  0.00    -0.211 F 
HETATM   13  C21 UNL     1      51.135   5.433   4.029  1.00  0.00    -0.032 C 
HETATM   14  C22 UNL     1      49.991   5.050   3.159  1.00  0.00     0.023 C 
HETATM   15  C23 UNL     1      49.327   4.507   4.395  1.00  0.00     0.024 C 
HETATM   16  C24 UNL     1      50.742   4.257   4.879  1.00  0.00    -0.007 C 
HETATM   17  C25 UNL     1      51.345   2.997   4.293  1.00  0.00     0.021 C 
HETATM   18  C28 UNL     1      49.374   6.218   2.496  1.00  0.00    -0.001 C 
HETATM   19  C29 UNL     1      48.609   7.143   3.359  1.00  0.00     0.006 C 
HETATM   20  C30 UNL     1      48.643   8.565   2.954  1.00  0.00     0.006 C 
HETATM   21  C31 UNL     1      48.738   8.828   1.446  1.00  0.00     0.003 C 
HETATM   22  C32 UNL     1      47.451   8.884   0.760  1.00  0.00    -0.025 C 
HETATM   23  C33 UNL     1      46.375   7.968   1.354  1.00  0.00     0.016 C 
ENDROOT
BRANCH   1  24
HETATM   24  C8  UNL     1      46.462  11.094   1.590  1.00  0.00     0.170 C 
HETATM   25  O2  UNL     1      47.258  11.507   2.459  1.00  0.00    -0.291 OA
BRANCH  24  26
HETATM   26  C7  UNL     1      45.088  11.605   1.829  1.00  0.00     0.138 C 
BRANCH  26  27
HETATM   27  N1  UNL     1      44.629  12.521   0.864  1.00  0.00    -0.373 N 
ATOM     28  H1  UNL     1      44.070  12.175   0.083  1.00  0.00     0.164 HD
BRANCH  27  29
HETATM   29  C6  UNL     1      44.914  13.894   0.939  1.00  0.00     0.086 C 
BRANCH  29  30
HETATM   30  C5  UNL     1      44.775  14.582   2.244  1.00  0.00     0.213 C 
BRANCH  30  31
HETATM   31  O1  UNL     1      45.711  15.510   2.579  1.00  0.00    -0.376 OA
BRANCH  31  32
HETATM   32  C2  UNL     1      46.159  15.650   3.839  1.00  0.00     0.050 C 
HETATM   33  C1  UNL     1      46.702  14.371   4.454  1.00  0.00     0.045 C 
HETATM   34  C3  UNL     1      45.310  16.382   4.823  1.00  0.00     0.045 C 
HETATM   35  C4  UNL     1      47.448  16.535   3.704  1.00  0.00     0.045 C 
ENDBRANCH  31  32
ENDBRANCH  30  31
ENDBRANCH  29  30
ENDBRANCH  27  29
ENDBRANCH  26  27
ENDBRANCH  24  26
ENDBRANCH   1  24
BRANCH   2  36
HETATM   36  C11 UNL     1      48.632  11.771  -0.378  1.00  0.00     0.236 C 
HETATM   37  O3  UNL     1      49.680  11.681  -1.022  1.00  0.00    -0.306 OA
ENDBRANCH   2  36
BRANCH  16  38
HETATM   38  C26 UNL     1      51.009   4.480   6.329  1.00  0.00     0.127 C 
BRANCH  38  39
HETATM   39  C27 UNL     1      52.270   3.848   6.786  1.00  0.00     0.173 C 
HETATM   40  O4  UNL     1      53.359   4.474   6.599  1.00  0.00    -0.648 OA
HETATM   41  O5  UNL     1      52.323   2.618   7.404  1.00  0.00    -0.648 OA
ENDBRANCH  38  39
ENDBRANCH  16  38
TORSDOF 10
ENDMDL
MODEL 4
REMARK VINA RESULT: -7.675787637      4.587      9.262
REMARK  10 active torsions:
REMARK  status: ('A' for Active; 'I' for Inactive)
REMARK    1  A    between atoms: C2_2  and  O1_5 
REMARK    2  A    between atoms: O1_5  and  C5_6 
REMARK    3  A    between atoms: C5_6  and  C6_7 
REMARK    4  A    between atoms: C6_7  and  N1_8 
REMARK    5  A    between atoms: N1_8  and  C7_10 
REMARK    6  A    between atoms: C7_10  and  C8_11 
REMARK    7  A    between atoms: C8_11  and  C9_13 
REMARK    8  A    between atoms: C10_14  and  C11_15 
REMARK    9  A    between atoms: C24_30  and  C26_32 
REMARK   10  A    between atoms: C26_32  and  C27_33 
ROOT
HETATM    1  C9  UNL     1      44.679   9.060  -1.862  1.00  0.00     0.080 C 
HETATM    2  C10 UNL     1      44.387   9.600  -3.234  1.00  0.00     0.060 C 
HETATM    3  C12 UNL     1      45.616  10.439  -3.594  1.00  0.00     0.017 C 
HETATM    4  C13 UNL     1      46.449  10.363  -2.357  1.00  0.00    -0.004 C 
HETATM    5  C14 UNL     1      47.327  11.504  -2.105  1.00  0.00     0.006 C 
HETATM    6  C15 UNL     1      46.493  12.743  -2.053  1.00  0.00     0.010 C 
HETATM    7  C16 UNL     1      45.358  12.694  -1.084  1.00  0.00    -0.035 C 
HETATM    8  C17 UNL     1      44.243  13.522  -1.761  1.00  0.00     0.016 C 
HETATM    9  C18 UNL     1      45.765  13.589   0.087  1.00  0.00     0.005 C 
HETATM   10  C19 UNL     1      44.718  14.567   0.496  1.00  0.00     0.076 C 
HETATM   11  C20 UNL     1      44.868  15.060   1.901  1.00  0.00     0.098 C 
HETATM   12  F1  UNL     1      43.913  15.911   2.416  1.00  0.00    -0.211 F 
HETATM   13  C21 UNL     1      45.870  14.727   2.691  1.00  0.00    -0.032 C 
HETATM   14  C22 UNL     1      46.932  13.812   2.195  1.00  0.00     0.023 C 
HETATM   15  C23 UNL     1      47.103  13.356   3.618  1.00  0.00     0.024 C 
HETATM   16  C24 UNL     1      46.647  14.757   3.978  1.00  0.00    -0.007 C 
HETATM   17  C25 UNL     1      47.759  15.780   3.863  1.00  0.00     0.021 C 
HETATM   18  C28 UNL     1      46.418  12.836   1.211  1.00  0.00    -0.001 C 
HETATM   19  C29 UNL     1      45.529  11.775   1.730  1.00  0.00     0.006 C 
HETATM   20  C30 UNL     1      44.478  11.313   0.799  1.00  0.00     0.006 C 
HETATM   21  C31 UNL     1      44.846  11.342  -0.691  1.00  0.00     0.003 C 
HETATM   22  C32 UNL     1      45.507  10.134  -1.174  1.00  0.00    -0.025 C 
HETATM   23  C33 UNL     1      46.395   9.439  -0.136  1.00  0.00     0.016 C 
ENDROOT
BRANCH   1  24
HETATM   24  C8  UNL     1      43.615   8.410  -1.160  1.00  0.00     0.170 C 
HETATM   25  O2  UNL     1      43.562   8.251   0.077  1.00  0.00    -0.291 OA
BRANCH  24  26
HETATM   26  C7  UNL     1      42.422   7.834  -1.831  1.00  0.00     0.138 C 
BRANCH  26  27
HETATM   27  N1  UNL     1      42.696   6.733  -2.666  1.00  0.00    -0.373 N 
ATOM     28  H1  UNL     1      43.053   5.874  -2.247  1.00  0.00     0.164 HD
BRANCH  27  29
HETATM   29  C6  UNL     1      42.493   6.779  -4.054  1.00  0.00     0.086 C 
BRANCH  29  30
HETATM   30  C5  UNL     1      41.108   6.874  -4.572  1.00  0.00     0.213 C 
BRANCH  30  31
HETATM   31  O1  UNL     1      40.521   5.737  -5.035  1.00  0.00    -0.376 OA
BRANCH  31  32
HETATM   32  C2  UNL     1      39.294   5.740  -5.583  1.00  0.00     0.050 C 
HETATM   33  C1  UNL     1      38.163   5.893  -4.579  1.00  0.00     0.045 C 
HETATM   34  C3  UNL     1      38.957   4.695  -6.593  1.00  0.00     0.045 C 
HETATM   35  C4  UNL     1      39.222   7.089  -6.382  1.00  0.00     0.045 C 
ENDBRANCH  31  32
ENDBRANCH  30  31
ENDBRANCH  29  30
ENDBRANCH  27  29
ENDBRANCH  26  27
ENDBRANCH  24  26
ENDBRANCH   1  24
BRANCH   2  36
HETATM   36  C11 UNL     1      43.135  10.243  -3.494  1.00  0.00     0.236 C 
HETATM   37  O3  UNL     1      42.648  10.149  -4.623  1.00  0.00    -0.306 OA
ENDBRANCH   2  36
BRANCH  16  38
HETATM   38  C26 UNL     1      45.772  14.896   5.177  1.00  0.00     0.127 C 
BRANCH  38  39
HETATM   39  C27 UNL     1      45.581  16.307   5.590  1.00  0.00     0.173 C 
HETATM   40  O4  UNL     1      44.497  16.887   5.268  1.00  0.00    -0.648 OA
HETATM   41  O5  UNL     1      46.515  17.023   6.305  1.00  0.00    -0.648 OA
ENDBRANCH  38  39
ENDBRANCH  16  38
TORSDOF 10
ENDMDL
MODEL 5
REMARK VINA RESULT: -7.471788428      3.735      9.356
REMARK  10 active torsions:
REMARK  status: ('A' for Active; 'I' for Inactive)
REMARK    1  A    between atoms: C2_2  and  O1_5 
REMARK    2  A    between atoms: O1_5  and  C5_6 
REMARK    3  A    between atoms: C5_6  and  C6_7 
REMARK    4  A    between atoms: C6_7  and  N1_8 
REMARK    5  A    between atoms: N1_8  and  C7_10 
REMARK    6  A    between atoms: C7_10  and  C8_11 
REMARK    7  A    between atoms: C8_11  and  C9_13 
REMARK    8  A    between atoms: C10_14  and  C11_15 
REMARK    9  A    between atoms: C24_30  and  C26_32 
REMARK   10  A    between atoms: C26_32  and  C27_33 
ROOT
HETATM    1  C9  UNL     1      48.407   9.209  -0.574  1.00  0.00     0.080 C 
HETATM    2  C10 UNL     1      48.153   8.535   0.745  1.00  0.00     0.060 C 
HETATM    3  C12 UNL     1      46.662   8.190   0.727  1.00  0.00     0.017 C 
HETATM    4  C13 UNL     1      46.196   8.778  -0.564  1.00  0.00    -0.004 C 
HETATM    5  C14 UNL     1      44.796   9.194  -0.610  1.00  0.00     0.006 C 
HETATM    6  C15 UNL     1      44.557  10.181   0.487  1.00  0.00     0.010 C 
HETATM    7  C16 UNL     1      45.483  11.352   0.488  1.00  0.00    -0.035 C 
HETATM    8  C17 UNL     1      45.678  11.682   1.984  1.00  0.00     0.016 C 
HETATM    9  C18 UNL     1      44.657  12.542  -0.005  1.00  0.00     0.005 C 
HETATM   10  C19 UNL     1      44.777  13.758   0.849  1.00  0.00     0.076 C 
HETATM   11  C20 UNL     1      44.430  15.029   0.138  1.00  0.00     0.098 C 
HETATM   12  F1  UNL     1      44.577  16.228   0.805  1.00  0.00    -0.211 F 
HETATM   13  C21 UNL     1      43.986  15.078  -1.102  1.00  0.00    -0.032 C 
HETATM   14  C22 UNL     1      43.806  13.820  -1.875  1.00  0.00     0.023 C 
HETATM   15  C23 UNL     1      44.094  14.624  -3.113  1.00  0.00     0.024 C 
HETATM   16  C24 UNL     1      43.491  15.779  -2.336  1.00  0.00    -0.007 C 
HETATM   17  C25 UNL     1      41.977  15.761  -2.345  1.00  0.00     0.021 C 
HETATM   18  C28 UNL     1      44.777  12.777  -1.483  1.00  0.00    -0.001 C 
HETATM   19  C29 UNL     1      46.185  13.000  -1.876  1.00  0.00     0.006 C 
HETATM   20  C30 UNL     1      47.198  12.465  -0.942  1.00  0.00     0.006 C 
HETATM   21  C31 UNL     1      46.807  11.185  -0.192  1.00  0.00     0.003 C 
HETATM   22  C32 UNL     1      47.119   9.949  -0.903  1.00  0.00    -0.025 C 
HETATM   23  C33 UNL     1      47.024  10.053  -2.429  1.00  0.00     0.016 C 
ENDROOT
BRANCH   1  24
HETATM   24  C8  UNL     1      49.674   9.847  -0.765  1.00  0.00     0.170 C 
HETATM   25  O2  UNL     1      50.114  10.790  -0.075  1.00  0.00    -0.291 OA
BRANCH  24  26
HETATM   26  C7  UNL     1      50.635   9.459  -1.828  1.00  0.00     0.138 C 
BRANCH  26  27
HETATM   27  N1  UNL     1      51.242   8.203  -1.637  1.00  0.00    -0.373 N 
ATOM     28  H1  UNL     1      50.960   7.424  -2.232  1.00  0.00     0.164 HD
BRANCH  27  29
HETATM   29  C6  UNL     1      52.222   7.987  -0.654  1.00  0.00     0.086 C 
BRANCH  29  30
HETATM   30  C5  UNL     1      51.890   7.134   0.511  1.00  0.00     0.213 C 
BRANCH  30  31
HETATM   31  O1  UNL     1      51.919   7.702   1.747  1.00  0.00    -0.376 OA
BRANCH  31  32
HETATM   32  C2  UNL     1      51.643   7.002   2.860  1.00  0.00     0.050 C 
HETATM   33  C1  UNL     1      50.464   6.052   2.725  1.00  0.00     0.045 C 
HETATM   34  C3  UNL     1      51.583   7.725   4.164  1.00  0.00     0.045 C 
HETATM   35  C4  UNL     1      52.855   6.018   3.018  1.00  0.00     0.045 C 
ENDBRANCH  31  32
ENDBRANCH  30  31
ENDBRANCH  29  30
ENDBRANCH  27  29
ENDBRANCH  26  27
ENDBRANCH  24  26
ENDBRANCH   1  24
BRANCH   2  36
HETATM   36  C11 UNL     1      48.604   9.148   1.956  1.00  0.00     0.236 C 
HETATM   37  O3  UNL     1      48.149   8.740   3.028  1.00  0.00    -0.306 OA
ENDBRANCH   2  36
BRANCH  16  38
HETATM   38  C26 UNL     1      44.116  17.120  -2.527  1.00  0.00     0.127 C 
BRANCH  38  39
HETATM   39  C27 UNL     1      43.531  17.871  -3.662  1.00  0.00     0.173 C 
HETATM   40  O4  UNL     1      43.842  17.519  -4.843  1.00  0.00    -0.648 OA
HETATM   41  O5  UNL     1      42.665  18.932  -3.506  1.00  0.00    -0.648 OA
ENDBRANCH  38  39
ENDBRANCH  16  38
TORSDOF 10
ENDMDL
