MODEL 1
REMARK VINA RESULT: -5.553537842      0.000      0.000
REMARK  1 active torsions:
REMARK  status: ('A' for Active; 'I' for Inactive)
REMARK    1  A    between atoms: N1_1  and  N2_4 
REMARK       I    between atoms: C1_6  and  N4_8 
REMARK       I    between atoms: C2_10  and  N6_12 
ROOT
HETATM    1  N2  UNL     1      -0.995  27.014  25.180  1.00  0.00    -0.280 N 
ATOM      2  H2  UNL     1      -1.084  27.275  24.198  1.00  0.00     0.189 HD
HETATM    3  C1  UNL     1      -1.965  26.366  25.749  1.00  0.00     0.209 C 
HETATM    4  N3  UNL     1      -3.107  26.053  24.969  1.00  0.00    -0.062 NA
HETATM    5  N4  UNL     1      -1.821  26.018  27.102  1.00  0.00    -0.302 N 
ATOM      6  H4  UNL     1      -1.073  25.369  27.351  1.00  0.00     0.171 HD
HETATM    7  C2  UNL     1      -2.569  26.463  28.050  1.00  0.00     0.212 C 
HETATM    8  N5  UNL     1      -3.626  27.364  27.789  1.00  0.00    -0.062 NA
HETATM    9  N6  UNL     1      -2.352  26.058  29.383  1.00  0.00    -0.253 N 
HETATM   10  C3  UNL     1      -1.451  26.373  30.480  1.00  0.00     0.256 C 
HETATM   11  C4  UNL     1      -1.738  24.994  30.901  1.00  0.00     0.256 C 
HETATM   12  O1  UNL     1      -1.195  24.088  31.545  1.00  0.00    -0.270 OA
HETATM   13  N7  UNL     1      -2.968  25.127  30.227  1.00  0.00    -0.264 N 
ATOM     14  H7  UNL     1      -3.900  24.721  30.315  1.00  0.00     0.190 HD
ENDROOT
BRANCH   1  15
HETATM   15  N1  UNL     1       0.168  27.367  25.870  1.00  0.00    -0.343 N 
ATOM     16  H12 UNL     1       0.987  27.632  25.322  1.00  0.00     0.176 HD
ATOM     17  H11 UNL     1       0.214  27.365  26.889  1.00  0.00     0.176 HD
ENDBRANCH   1  15
TORSDOF 1
ENDMDL
MODEL 2
REMARK VINA RESULT: -5.190856362      6.388      7.299
REMARK  1 active torsions:
REMARK  status: ('A' for Active; 'I' for Inactive)
REMARK    1  A    between atoms: N1_1  and  N2_4 
REMARK       I    between atoms: C1_6  and  N4_8 
REMARK       I    between atoms: C2_10  and  N6_12 
ROOT
HETATM    1  N2  UNL     1       2.509  26.793  33.966  1.00  0.00    -0.280 N 
ATOM      2  H2  UNL     1       2.647  27.803  34.009  1.00  0.00     0.189 HD
HETATM    3  C1  UNL     1       1.411  26.330  33.450  1.00  0.00     0.209 C 
HETATM    4  N3  UNL     1       0.455  27.261  32.970  1.00  0.00    -0.062 NA
HETATM    5  N4  UNL     1       1.243  24.936  33.399  1.00  0.00    -0.302 N 
ATOM      6  H4  UNL     1       1.890  24.398  32.823  1.00  0.00     0.171 HD
HETATM    7  C2  UNL     1       0.325  24.293  34.033  1.00  0.00     0.212 C 
HETATM    8  N5  UNL     1      -0.609  24.966  34.853  1.00  0.00    -0.062 NA
HETATM    9  N6  UNL     1       0.230  22.891  33.925  1.00  0.00    -0.253 N 
HETATM   10  C3  UNL     1       0.883  21.713  34.472  1.00  0.00     0.256 C 
HETATM   11  C4  UNL     1       0.453  21.086  33.213  1.00  0.00     0.256 C 
HETATM   12  O1  UNL     1       0.803  20.162  32.469  1.00  0.00    -0.270 OA
HETATM   13  N7  UNL     1      -0.594  22.029  33.192  1.00  0.00    -0.264 N 
ATOM     14  H7  UNL     1      -1.539  22.066  32.810  1.00  0.00     0.190 HD
ENDROOT
BRANCH   1  15
HETATM   15  N1  UNL     1       3.507  25.952  34.464  1.00  0.00    -0.343 N 
ATOM     16  H12 UNL     1       3.886  25.238  33.840  1.00  0.00     0.176 HD
ATOM     17  H11 UNL     1       3.860  26.035  35.418  1.00  0.00     0.176 HD
ENDBRANCH   1  15
TORSDOF 1
ENDMDL
MODEL 3
REMARK VINA RESULT: -5.054628965      3.096      5.270
REMARK  1 active torsions:
REMARK  status: ('A' for Active; 'I' for Inactive)
REMARK    1  A    between atoms: N1_1  and  N2_4 
REMARK       I    between atoms: C1_6  and  N4_8 
REMARK       I    between atoms: C2_10  and  N6_12 
ROOT
HETATM    1  N2  UNL     1      -2.395  25.509  28.915  1.00  0.00    -0.280 N 
ATOM      2  H2  UNL     1      -2.954  25.242  29.725  1.00  0.00     0.189 HD
HETATM    3  C1  UNL     1      -2.724  26.573  28.248  1.00  0.00     0.209 C 
HETATM    4  N3  UNL     1      -3.853  27.312  28.684  1.00  0.00    -0.062 NA
HETATM    5  N4  UNL     1      -1.939  26.924  27.137  1.00  0.00    -0.302 N 
ATOM      6  H4  UNL     1      -0.964  27.175  27.302  1.00  0.00     0.171 HD
HETATM    7  C2  UNL     1      -2.370  26.949  25.924  1.00  0.00     0.212 C 
HETATM    8  N5  UNL     1      -3.707  26.614  25.613  1.00  0.00    -0.062 NA
HETATM    9  N6  UNL     1      -1.510  27.314  24.867  1.00  0.00    -0.253 N 
HETATM   10  C3  UNL     1      -0.458  26.710  24.065  1.00  0.00     0.256 C 
HETATM   11  C4  UNL     1       0.013  28.096  23.927  1.00  0.00     0.256 C 
HETATM   12  O1  UNL     1       1.073  28.700  23.728  1.00  0.00    -0.270 OA
HETATM   13  N7  UNL     1      -1.325  28.488  24.129  1.00  0.00    -0.264 N 
ATOM     14  H7  UNL     1      -1.906  29.281  23.856  1.00  0.00     0.190 HD
ENDROOT
BRANCH   1  15
HETATM   15  N1  UNL     1      -1.299  24.720  28.559  1.00  0.00    -0.343 N 
ATOM     16  H12 UNL     1      -1.219  23.794  28.982  1.00  0.00     0.176 HD
ATOM     17  H11 UNL     1      -0.591  25.041  27.898  1.00  0.00     0.176 HD
ENDBRANCH   1  15
TORSDOF 1
ENDMDL
MODEL 4
REMARK VINA RESULT: -4.864743772      3.081      4.803
REMARK  1 active torsions:
REMARK  status: ('A' for Active; 'I' for Inactive)
REMARK    1  A    between atoms: N1_1  and  N2_4 
REMARK       I    between atoms: C1_6  and  N4_8 
REMARK       I    between atoms: C2_10  and  N6_12 
ROOT
HETATM    1  N2  UNL     1      -1.088  27.004  30.757  1.00  0.00    -0.280 N 
ATOM      2  H2  UNL     1      -0.224  26.686  31.198  1.00  0.00     0.189 HD
HETATM    3  C1  UNL     1      -1.736  26.188  29.982  1.00  0.00     0.209 C 
HETATM    4  N3  UNL     1      -1.203  24.888  29.788  1.00  0.00    -0.062 NA
HETATM    5  N4  UNL     1      -2.922  26.646  29.387  1.00  0.00    -0.302 N 
ATOM      6  H4  UNL     1      -3.703  26.884  30.000  1.00  0.00     0.171 HD
HETATM    7  C2  UNL     1      -3.090  26.786  28.118  1.00  0.00     0.212 C 
HETATM    8  N5  UNL     1      -2.058  26.477  27.203  1.00  0.00    -0.062 NA
HETATM    9  N6  UNL     1      -4.318  27.253  27.606  1.00  0.00    -0.253 N 
HETATM   10  C3  UNL     1      -5.013  28.519  27.439  1.00  0.00     0.256 C 
HETATM   11  C4  UNL     1      -6.221  27.683  27.508  1.00  0.00     0.256 C 
HETATM   12  O1  UNL     1      -7.408  27.792  27.834  1.00  0.00    -0.270 OA
HETATM   13  N7  UNL     1      -5.424  26.629  27.017  1.00  0.00    -0.264 N 
ATOM     14  H7  UNL     1      -5.583  25.782  26.472  1.00  0.00     0.190 HD
ENDROOT
BRANCH   1  15
HETATM   15  N1  UNL     1      -1.536  28.304  31.006  1.00  0.00    -0.343 N 
ATOM     16  H12 UNL     1      -2.521  28.433  31.240  1.00  0.00     0.176 HD
ATOM     17  H11 UNL     1      -0.912  29.110  30.962  1.00  0.00     0.176 HD
ENDBRANCH   1  15
TORSDOF 1
ENDMDL
MODEL 5
REMARK VINA RESULT: -4.730523594      2.019      3.219
REMARK  1 active torsions:
REMARK  status: ('A' for Active; 'I' for Inactive)
REMARK    1  A    between atoms: N1_1  and  N2_4 
REMARK       I    between atoms: C1_6  and  N4_8 
REMARK       I    between atoms: C2_10  and  N6_12 
ROOT
HETATM    1  N2  UNL     1      -2.104  26.740  27.535  1.00  0.00    -0.280 N 
ATOM      2  H2  UNL     1      -2.394  27.573  27.024  1.00  0.00     0.189 HD
HETATM    3  C1  UNL     1      -2.467  26.605  28.775  1.00  0.00     0.209 C 
HETATM    4  N3  UNL     1      -3.252  27.633  29.356  1.00  0.00    -0.062 NA
HETATM    5  N4  UNL     1      -2.059  25.449  29.459  1.00  0.00    -0.302 N 
ATOM      6  H4  UNL     1      -2.408  24.549  29.127  1.00  0.00     0.171 HD
HETATM    7  C2  UNL     1      -1.272  25.449  30.478  1.00  0.00     0.212 C 
HETATM    8  N5  UNL     1      -0.746  26.653  30.999  1.00  0.00    -0.062 NA
HETATM    9  N6  UNL     1      -0.913  24.238  31.105  1.00  0.00    -0.253 N 
HETATM   10  C3  UNL     1       0.009  23.135  30.890  1.00  0.00     0.256 C 
HETATM   11  C4  UNL     1      -0.983  22.365  31.655  1.00  0.00     0.256 C 
HETATM   12  O1  UNL     1      -1.371  21.196  31.759  1.00  0.00    -0.270 OA
HETATM   13  N7  UNL     1      -1.342  23.583  32.266  1.00  0.00    -0.264 N 
ATOM     14  H7  UNL     1      -1.739  23.865  33.162  1.00  0.00     0.190 HD
ENDROOT
BRANCH   1  15
HETATM   15  N1  UNL     1      -1.331  25.779  26.880  1.00  0.00    -0.343 N 
ATOM     16  H12 UNL     1      -1.782  25.209  26.164  1.00  0.00     0.176 HD
ATOM     17  H11 UNL     1      -0.344  25.638  27.097  1.00  0.00     0.176 HD
ENDBRANCH   1  15
TORSDOF 1
ENDMDL
