MODEL 1
REMARK VINA RESULT: -7.583446283      0.000      0.000
REMARK  9 active torsions:
REMARK  status: ('A' for Active; 'I' for Inactive)
REMARK    1  A    between atoms: C3_3  and  C4_4 
REMARK    2  A    between atoms: C3_3  and  O1_6 
REMARK    3  A    between atoms: O1_6  and  C6_7 
REMARK    4  A    between atoms: C6_7  and  C7_8 
REMARK    5  A    between atoms: C7_8  and  N1_9 
REMARK    6  A    between atoms: N1_9  and  C8_11 
REMARK    7  A    between atoms: C9_14  and  N3_15 
REMARK       I    between atoms: N3_15  and  C10_17 
REMARK    8  A    between atoms: C11_24  and  N7_25 
REMARK    9  A    between atoms: N7_25  and  C12_27 
ROOT
HETATM    1  C8  UNL     1      -2.035  26.196  28.443  1.00  0.00     0.707 A 
HETATM    2  N2  UNL     1      -1.331  26.164  27.304  1.00  0.00    -0.021 N 
ATOM      3  H2  UNL     1      -0.406  25.733  27.309  1.00  0.00     0.203 HD
HETATM    4  C9  UNL     1      -1.802  26.684  26.146  1.00  0.00     0.713 A 
HETATM    5  N6  UNL     1      -3.027  27.239  26.192  1.00  0.00    -0.021 N 
ATOM      6  H6  UNL     1      -3.407  27.637  25.333  1.00  0.00     0.203 HD
HETATM    7  C11 UNL     1      -3.774  27.298  27.302  1.00  0.00     0.713 A 
HETATM    8  N9  UNL     1      -3.254  26.763  28.435  1.00  0.00    -0.021 N 
ATOM      9  H9  UNL     1      -3.798  26.792  29.297  1.00  0.00     0.203 HD
ENDROOT
BRANCH   1  10
HETATM   10  N1  UNL     1      -1.595  25.708  29.541  1.00  0.00    -0.223 N 
ATOM     11  H1  UNL     1      -0.884  24.979  29.476  1.00  0.00     0.177 HD
BRANCH  10  12
HETATM   12  C7  UNL     1      -2.014  26.095  30.848  1.00  0.00     0.164 C 
BRANCH  12  13
HETATM   13  C6  UNL     1      -0.789  26.432  31.660  1.00  0.00     0.195 C 
BRANCH  13  14
HETATM   14  O1  UNL     1       0.253  25.523  31.523  1.00  0.00    -0.354 OA
BRANCH  14  15
HETATM   15  C3  UNL     1       0.699  24.668  32.518  1.00  0.00     0.042 C 
HETATM   16  C2  UNL     1       0.597  23.377  32.293  1.00  0.00     0.001 C 
HETATM   17  C1  UNL     1       0.036  22.818  31.047  1.00  0.00     0.038 C 
BRANCH  15  18
HETATM   18  C4  UNL     1       1.273  25.137  33.792  1.00  0.00     0.060 C 
HETATM   19  C5  UNL     1       2.607  24.445  34.088  1.00  0.00     0.012 C 
ENDBRANCH  15  18
ENDBRANCH  14  15
ENDBRANCH  13  14
ENDBRANCH  12  13
ENDBRANCH  10  12
ENDBRANCH   1  10
BRANCH   4  20
HETATM   20  N3  UNL     1      -1.177  26.679  25.044  1.00  0.00    -0.163 N 
HETATM   21  C10 UNL     1      -1.547  27.305  23.859  1.00  0.00     0.200 C 
HETATM   22  N4  UNL     1      -1.095  28.470  23.571  1.00  0.00    -0.373 N 
HETATM   23  N5  UNL     1      -2.427  26.667  22.954  1.00  0.00    -0.063 NA
ATOM     24  H42 UNL     1      -0.459  28.930  24.224  1.00  0.00     0.158 HD
ATOM     25  H41 UNL     1      -1.366  28.929  22.702  1.00  0.00     0.158 HD
ATOM     26  H3  UNL     1      -0.302  26.156  25.023  1.00  0.00     0.187 HD
ENDBRANCH   4  20
BRANCH   7  27
HETATM   27  N7  UNL     1      -4.924  27.845  27.248  1.00  0.00    -0.167 N 
ATOM     28  H7  UNL     1      -4.992  28.814  27.557  1.00  0.00     0.186 HD
BRANCH  27  29
HETATM   29  C12 UNL     1      -6.105  27.232  26.800  1.00  0.00     0.199 C 
HETATM   30  N8  UNL     1      -6.794  27.769  25.670  1.00  0.00    -0.069 NA
HETATM   31  S1  UNL     1      -6.770  25.909  27.497  1.00  0.00    -0.044 SA
ENDBRANCH  27  29
ENDBRANCH   7  27
TORSDOF 9
ENDMDL
MODEL 2
REMARK VINA RESULT: -7.572558347      1.781      3.563
REMARK  9 active torsions:
REMARK  status: ('A' for Active; 'I' for Inactive)
REMARK    1  A    between atoms: C3_3  and  C4_4 
REMARK    2  A    between atoms: C3_3  and  O1_6 
REMARK    3  A    between atoms: O1_6  and  C6_7 
REMARK    4  A    between atoms: C6_7  and  C7_8 
REMARK    5  A    between atoms: C7_8  and  N1_9 
REMARK    6  A    between atoms: N1_9  and  C8_11 
REMARK    7  A    between atoms: C9_14  and  N3_15 
REMARK       I    between atoms: N3_15  and  C10_17 
REMARK    8  A    between atoms: C11_24  and  N7_25 
REMARK    9  A    between atoms: N7_25  and  C12_27 
ROOT
HETATM    1  C8  UNL     1      -2.288  26.848  29.053  1.00  0.00     0.707 A 
HETATM    2  N2  UNL     1      -3.455  27.495  28.933  1.00  0.00    -0.021 N 
ATOM      3  H2  UNL     1      -3.931  27.812  29.778  1.00  0.00     0.203 HD
HETATM    4  C9  UNL     1      -4.027  27.743  27.732  1.00  0.00     0.713 A 
HETATM    5  N6  UNL     1      -3.359  27.307  26.648  1.00  0.00    -0.021 N 
ATOM      6  H6  UNL     1      -3.766  27.480  25.729  1.00  0.00     0.203 HD
HETATM    7  C11 UNL     1      -2.190  26.656  26.709  1.00  0.00     0.713 A 
HETATM    8  N9  UNL     1      -1.662  26.432  27.938  1.00  0.00    -0.021 N 
ATOM      9  H9  UNL     1      -0.772  25.939  28.019  1.00  0.00     0.203 HD
ENDROOT
BRANCH   1  10
HETATM   10  N1  UNL     1      -1.743  26.611  30.186  1.00  0.00    -0.223 N 
ATOM     11  H1  UNL     1      -1.683  25.635  30.480  1.00  0.00     0.177 HD
BRANCH  10  12
HETATM   12  C7  UNL     1      -1.212  27.593  31.073  1.00  0.00     0.164 C 
BRANCH  12  13
HETATM   13  C6  UNL     1      -0.502  26.883  32.198  1.00  0.00     0.195 C 
BRANCH  13  14
HETATM   14  O1  UNL     1       0.310  25.833  31.787  1.00  0.00    -0.354 OA
BRANCH  14  15
HETATM   15  C3  UNL     1       0.599  24.708  32.544  1.00  0.00     0.042 C 
HETATM   16  C2  UNL     1       0.359  23.537  31.996  1.00  0.00     0.001 C 
HETATM   17  C1  UNL     1      -0.194  23.382  30.637  1.00  0.00     0.038 C 
BRANCH  15  18
HETATM   18  C4  UNL     1       1.153  24.770  33.907  1.00  0.00     0.060 C 
HETATM   19  C5  UNL     1       2.624  24.342  33.929  1.00  0.00     0.012 C 
ENDBRANCH  15  18
ENDBRANCH  14  15
ENDBRANCH  13  14
ENDBRANCH  12  13
ENDBRANCH  10  12
ENDBRANCH   1  10
BRANCH   4  20
HETATM   20  N3  UNL     1      -5.127  28.350  27.564  1.00  0.00    -0.163 N 
HETATM   21  C10 UNL     1      -6.302  27.838  27.025  1.00  0.00     0.200 C 
HETATM   22  N4  UNL     1      -7.217  27.369  27.790  1.00  0.00    -0.373 N 
HETATM   23  N5  UNL     1      -6.504  27.827  25.625  1.00  0.00    -0.063 NA
ATOM     24  H42 UNL     1      -7.071  27.377  28.800  1.00  0.00     0.158 HD
ATOM     25  H41 UNL     1      -8.078  26.993  27.395  1.00  0.00     0.158 HD
ATOM     26  H3  UNL     1      -5.154  29.326  27.859  1.00  0.00     0.187 HD
ENDBRANCH   4  20
BRANCH   7  27
HETATM   27  N7  UNL     1      -1.631  26.280  25.627  1.00  0.00    -0.167 N 
ATOM     28  H7  UNL     1      -1.168  25.371  25.635  1.00  0.00     0.186 HD
BRANCH  27  29
HETATM   29  C12 UNL     1      -1.597  27.004  24.425  1.00  0.00     0.199 C 
HETATM   30  N8  UNL     1      -2.571  26.741  23.414  1.00  0.00    -0.069 NA
HETATM   31  S1  UNL     1      -0.491  28.162  24.087  1.00  0.00    -0.044 SA
ENDBRANCH  27  29
ENDBRANCH   7  27
TORSDOF 9
ENDMDL
MODEL 3
REMARK VINA RESULT: -7.531661476      1.814      3.831
REMARK  9 active torsions:
REMARK  status: ('A' for Active; 'I' for Inactive)
REMARK    1  A    between atoms: C3_3  and  C4_4 
REMARK    2  A    between atoms: C3_3  and  O1_6 
REMARK    3  A    between atoms: O1_6  and  C6_7 
REMARK    4  A    between atoms: C6_7  and  C7_8 
REMARK    5  A    between atoms: C7_8  and  N1_9 
REMARK    6  A    between atoms: N1_9  and  C8_11 
REMARK    7  A    between atoms: C9_14  and  N3_15 
REMARK       I    between atoms: N3_15  and  C10_17 
REMARK    8  A    between atoms: C11_24  and  N7_25 
REMARK    9  A    between atoms: N7_25  and  C12_27 
ROOT
HETATM    1  C8  UNL     1      -2.267  26.764  29.037  1.00  0.00     0.707 A 
HETATM    2  N2  UNL     1      -3.419  27.438  28.923  1.00  0.00    -0.021 N 
ATOM      3  H2  UNL     1      -3.902  27.734  29.771  1.00  0.00     0.203 HD
HETATM    4  C9  UNL     1      -3.965  27.741  27.722  1.00  0.00     0.713 A 
HETATM    5  N6  UNL     1      -3.289  27.331  26.634  1.00  0.00    -0.021 N 
ATOM      6  H6  UNL     1      -3.677  27.546  25.715  1.00  0.00     0.203 HD
HETATM    7  C11 UNL     1      -2.133  26.654  26.689  1.00  0.00     0.713 A 
HETATM    8  N9  UNL     1      -1.630  26.376  27.918  1.00  0.00    -0.021 N 
ATOM      9  H9  UNL     1      -0.752  25.862  27.994  1.00  0.00     0.203 HD
ENDROOT
BRANCH   1  10
HETATM   10  N1  UNL     1      -1.745  26.475  30.169  1.00  0.00    -0.223 N 
ATOM     11  H1  UNL     1      -1.773  25.497  30.459  1.00  0.00     0.177 HD
BRANCH  10  12
HETATM   12  C7  UNL     1      -1.128  27.403  31.059  1.00  0.00     0.164 C 
BRANCH  12  13
HETATM   13  C6  UNL     1      -0.639  26.647  32.269  1.00  0.00     0.195 C 
BRANCH  13  14
HETATM   14  O1  UNL     1       0.433  25.800  32.017  1.00  0.00    -0.354 OA
BRANCH  14  15
HETATM   15  C3  UNL     1       0.492  24.462  32.375  1.00  0.00     0.042 C 
HETATM   16  C2  UNL     1       1.408  24.113  33.251  1.00  0.00     0.001 C 
HETATM   17  C1  UNL     1       2.355  25.073  33.852  1.00  0.00     0.038 C 
BRANCH  15  18
HETATM   18  C4  UNL     1      -0.413  23.437  31.826  1.00  0.00     0.060 C 
HETATM   19  C5  UNL     1       0.345  22.146  31.498  1.00  0.00     0.012 C 
ENDBRANCH  15  18
ENDBRANCH  14  15
ENDBRANCH  13  14
ENDBRANCH  12  13
ENDBRANCH  10  12
ENDBRANCH   1  10
BRANCH   4  20
HETATM   20  N3  UNL     1      -5.051  28.376  27.560  1.00  0.00    -0.163 N 
HETATM   21  C10 UNL     1      -6.249  27.886  27.054  1.00  0.00     0.200 C 
HETATM   22  N4  UNL     1      -7.163  27.462  27.847  1.00  0.00    -0.373 N 
HETATM   23  N5  UNL     1      -6.478  27.846  25.659  1.00  0.00    -0.063 NA
ATOM     24  H42 UNL     1      -6.998  27.490  28.854  1.00  0.00     0.158 HD
ATOM     25  H41 UNL     1      -8.042  27.102  27.476  1.00  0.00     0.158 HD
ATOM     26  H3  UNL     1      -5.044  29.359  27.831  1.00  0.00     0.187 HD
ENDBRANCH   4  20
BRANCH   7  27
HETATM   27  N7  UNL     1      -1.565  26.307  25.603  1.00  0.00    -0.167 N 
ATOM     28  H7  UNL     1      -1.062  25.419  25.606  1.00  0.00     0.186 HD
BRANCH  27  29
HETATM   29  C12 UNL     1      -1.569  27.036  24.404  1.00  0.00     0.199 C 
HETATM   30  N8  UNL     1      -2.605  26.813  23.446  1.00  0.00    -0.069 NA
HETATM   31  S1  UNL     1      -0.441  28.154  24.010  1.00  0.00    -0.044 SA
ENDBRANCH  27  29
ENDBRANCH   7  27
TORSDOF 9
ENDMDL
MODEL 4
REMARK VINA RESULT: -7.526094243      0.667      1.345
REMARK  9 active torsions:
REMARK  status: ('A' for Active; 'I' for Inactive)
REMARK    1  A    between atoms: C3_3  and  C4_4 
REMARK    2  A    between atoms: C3_3  and  O1_6 
REMARK    3  A    between atoms: O1_6  and  C6_7 
REMARK    4  A    between atoms: C6_7  and  C7_8 
REMARK    5  A    between atoms: C7_8  and  N1_9 
REMARK    6  A    between atoms: N1_9  and  C8_11 
REMARK    7  A    between atoms: C9_14  and  N3_15 
REMARK       I    between atoms: N3_15  and  C10_17 
REMARK    8  A    between atoms: C11_24  and  N7_25 
REMARK    9  A    between atoms: N7_25  and  C12_27 
ROOT
HETATM    1  C8  UNL     1      -2.028  26.327  28.499  1.00  0.00     0.707 A 
HETATM    2  N2  UNL     1      -1.325  26.258  27.361  1.00  0.00    -0.021 N 
ATOM      3  H2  UNL     1      -0.392  25.846  27.383  1.00  0.00     0.203 HD
HETATM    4  C9  UNL     1      -1.808  26.716  26.182  1.00  0.00     0.713 A 
HETATM    5  N6  UNL     1      -3.043  27.249  26.205  1.00  0.00    -0.021 N 
ATOM      6  H6  UNL     1      -3.433  27.601  25.331  1.00  0.00     0.203 HD
HETATM    7  C11 UNL     1      -3.790  27.343  27.314  1.00  0.00     0.713 A 
HETATM    8  N9  UNL     1      -3.258  26.870  28.468  1.00  0.00    -0.021 N 
ATOM      9  H9  UNL     1      -3.802  26.927  29.330  1.00  0.00     0.203 HD
ENDROOT
BRANCH   1  10
HETATM   10  N1  UNL     1      -1.577  25.897  29.616  1.00  0.00    -0.223 N 
ATOM     11  H1  UNL     1      -0.908  26.489  30.109  1.00  0.00     0.177 HD
BRANCH  10  12
HETATM   12  C7  UNL     1      -1.931  24.659  30.232  1.00  0.00     0.164 C 
BRANCH  12  13
HETATM   13  C6  UNL     1      -0.664  23.969  30.673  1.00  0.00     0.195 C 
BRANCH  13  14
HETATM   14  O1  UNL     1       0.266  24.811  31.269  1.00  0.00    -0.354 OA
BRANCH  14  15
HETATM   15  C3  UNL     1       0.609  24.794  32.611  1.00  0.00     0.042 C 
HETATM   16  C2  UNL     1       0.387  25.891  33.303  1.00  0.00     0.001 C 
HETATM   17  C1  UNL     1      -0.200  27.110  32.713  1.00  0.00     0.038 C 
BRANCH  15  18
HETATM   18  C4  UNL     1       1.199  23.623  33.282  1.00  0.00     0.060 C 
HETATM   19  C5  UNL     1       2.452  24.009  34.075  1.00  0.00     0.012 C 
ENDBRANCH  15  18
ENDBRANCH  14  15
ENDBRANCH  13  14
ENDBRANCH  12  13
ENDBRANCH  10  12
ENDBRANCH   1  10
BRANCH   4  20
HETATM   20  N3  UNL     1      -1.184  26.674  25.079  1.00  0.00    -0.163 N 
HETATM   21  C10 UNL     1      -1.541  27.284  23.882  1.00  0.00     0.200 C 
HETATM   22  N4  UNL     1      -1.063  28.431  23.570  1.00  0.00    -0.373 N 
HETATM   23  N5  UNL     1      -2.438  26.648  22.992  1.00  0.00    -0.063 NA
ATOM     24  H42 UNL     1      -0.415  28.890  24.212  1.00  0.00     0.158 HD
ATOM     25  H41 UNL     1      -1.324  28.878  22.692  1.00  0.00     0.158 HD
ATOM     26  H3  UNL     1      -0.322  26.130  25.068  1.00  0.00     0.187 HD
ENDBRANCH   4  20
BRANCH   7  27
HETATM   27  N7  UNL     1      -4.950  27.864  27.238  1.00  0.00    -0.167 N 
ATOM     28  H7  UNL     1      -5.047  28.830  27.552  1.00  0.00     0.186 HD
BRANCH  27  29
HETATM   29  C12 UNL     1      -6.107  27.229  26.760  1.00  0.00     0.199 C 
HETATM   30  N8  UNL     1      -6.789  27.764  25.625  1.00  0.00    -0.069 NA
HETATM   31  S1  UNL     1      -6.752  25.881  27.428  1.00  0.00    -0.044 SA
ENDBRANCH  27  29
ENDBRANCH   7  27
TORSDOF 9
ENDMDL
MODEL 5
REMARK VINA RESULT: -7.480889856      0.658      1.503
REMARK  9 active torsions:
REMARK  status: ('A' for Active; 'I' for Inactive)
REMARK    1  A    between atoms: C3_3  and  C4_4 
REMARK    2  A    between atoms: C3_3  and  O1_6 
REMARK    3  A    between atoms: O1_6  and  C6_7 
REMARK    4  A    between atoms: C6_7  and  C7_8 
REMARK    5  A    between atoms: C7_8  and  N1_9 
REMARK    6  A    between atoms: N1_9  and  C8_11 
REMARK    7  A    between atoms: C9_14  and  N3_15 
REMARK       I    between atoms: N3_15  and  C10_17 
REMARK    8  A    between atoms: C11_24  and  N7_25 
REMARK    9  A    between atoms: N7_25  and  C12_27 
ROOT
HETATM    1  C8  UNL     1      -2.039  26.168  28.458  1.00  0.00     0.707 A 
HETATM    2  N2  UNL     1      -1.334  26.144  27.319  1.00  0.00    -0.021 N 
ATOM      3  H2  UNL     1      -0.409  25.716  27.322  1.00  0.00     0.203 HD
HETATM    4  C9  UNL     1      -1.807  26.669  26.164  1.00  0.00     0.713 A 
HETATM    5  N6  UNL     1      -3.033  27.221  26.211  1.00  0.00    -0.021 N 
ATOM      6  H6  UNL     1      -3.414  27.623  25.355  1.00  0.00     0.203 HD
HETATM    7  C11 UNL     1      -3.781  27.271  27.322  1.00  0.00     0.713 A 
HETATM    8  N9  UNL     1      -3.260  26.732  28.452  1.00  0.00    -0.021 N 
ATOM      9  H9  UNL     1      -3.804  26.755  29.315  1.00  0.00     0.203 HD
ENDROOT
BRANCH   1  10
HETATM   10  N1  UNL     1      -1.598  25.675  29.553  1.00  0.00    -0.223 N 
ATOM     11  H1  UNL     1      -1.480  24.662  29.595  1.00  0.00     0.177 HD
BRANCH  10  12
HETATM   12  C7  UNL     1      -1.257  26.421  30.720  1.00  0.00     0.164 C 
BRANCH  12  13
HETATM   13  C6  UNL     1      -0.959  25.449  31.835  1.00  0.00     0.195 C 
BRANCH  13  14
HETATM   14  O1  UNL     1       0.320  24.909  31.793  1.00  0.00    -0.354 OA
BRANCH  14  15
HETATM   15  C3  UNL     1       0.667  23.649  32.254  1.00  0.00     0.042 C 
HETATM   16  C2  UNL     1       1.500  23.587  33.269  1.00  0.00     0.001 C 
HETATM   17  C1  UNL     1       2.065  24.784  33.921  1.00  0.00     0.038 C 
BRANCH  15  18
HETATM   18  C4  UNL     1       0.151  22.401  31.664  1.00  0.00     0.060 C 
HETATM   19  C5  UNL     1       0.619  21.176  32.458  1.00  0.00     0.012 C 
ENDBRANCH  15  18
ENDBRANCH  14  15
ENDBRANCH  13  14
ENDBRANCH  12  13
ENDBRANCH  10  12
ENDBRANCH   1  10
BRANCH   4  20
HETATM   20  N3  UNL     1      -1.181  26.672  25.061  1.00  0.00    -0.163 N 
HETATM   21  C10 UNL     1      -1.552  27.304  23.880  1.00  0.00     0.200 C 
HETATM   22  N4  UNL     1      -1.102  28.471  23.599  1.00  0.00    -0.373 N 
HETATM   23  N5  UNL     1      -2.431  26.670  22.972  1.00  0.00    -0.063 NA
ATOM     24  H42 UNL     1      -0.467  28.928  24.255  1.00  0.00     0.158 HD
ATOM     25  H41 UNL     1      -1.374  28.935  22.733  1.00  0.00     0.158 HD
ATOM     26  H3  UNL     1      -0.305  26.150  25.037  1.00  0.00     0.187 HD
ENDBRANCH   4  20
BRANCH   7  27
HETATM   27  N7  UNL     1      -4.932  27.815  27.271  1.00  0.00    -0.167 N 
ATOM     28  H7  UNL     1      -5.003  28.783  27.586  1.00  0.00     0.186 HD
BRANCH  27  29
HETATM   29  C12 UNL     1      -6.111  27.203  26.818  1.00  0.00     0.199 C 
HETATM   30  N8  UNL     1      -6.804  27.748  25.694  1.00  0.00    -0.069 NA
HETATM   31  S1  UNL     1      -6.770  25.870  27.503  1.00  0.00    -0.044 SA
ENDBRANCH  27  29
ENDBRANCH   7  27
TORSDOF 9
ENDMDL
