MODEL 1
REMARK VINA RESULT: -8.074665763      0.000      0.000
REMARK  4 active torsions:
REMARK  status: ('A' for Active; 'I' for Inactive)
REMARK       I    between atoms: C1_4  and  N3_6 
REMARK       I    between atoms: C2_8  and  N5_10 
REMARK    1  A    between atoms: N5_10  and  C3_12 
REMARK    2  A    between atoms: C5_17  and  N7_18 
REMARK       I    between atoms: N7_18  and  C6_19 
REMARK    3  A    between atoms: C6_19  and  C7_21 
REMARK    4  A    between atoms: C8_22  and  N8_23 
ROOT
HETATM    1  C3  UNL     1      -3.823  26.346  29.580  1.00  0.00     0.356 C 
HETATM    2  N6  UNL     1      -2.761  25.432  29.841  1.00  0.00    -0.044 N 
ATOM      3  H61 UNL     1      -2.132  25.343  29.044  1.00  0.00     0.280 HD
ATOM      4  H62 UNL     1      -3.091  24.468  29.881  1.00  0.00     0.280 HD
HETATM    5  C4  UNL     1      -2.058  25.809  31.041  1.00  0.00     0.275 C 
HETATM    6  C5  UNL     1      -1.357  27.173  30.778  1.00  0.00     0.200 C 
HETATM    7  C13 UNL     1      -2.528  28.175  30.886  1.00  0.00     0.123 C 
HETATM    8  C14 UNL     1      -3.795  27.416  30.641  1.00  0.00     0.179 C 
HETATM    9  O2  UNL     1      -4.770  27.688  31.307  1.00  0.00    -0.294 OA
ENDROOT
BRANCH   1  10
HETATM   10  N5  UNL     1      -3.722  27.033  28.310  1.00  0.00    -0.331 N 
HETATM   11  C2  UNL     1      -2.804  26.722  27.290  1.00  0.00     0.192 C 
HETATM   12  N3  UNL     1      -2.905  27.281  26.147  1.00  0.00    -0.305 N 
HETATM   13  N4  UNL     1      -1.777  25.791  27.543  1.00  0.00    -0.063 NA
HETATM   14  C1  UNL     1      -2.079  27.085  25.030  1.00  0.00     0.188 C 
ATOM     15  H3  UNL     1      -3.671  27.945  26.033  1.00  0.00     0.171 HD
HETATM   16  N1  UNL     1      -0.821  27.336  25.151  1.00  0.00    -0.373 N 
HETATM   17  N2  UNL     1      -2.546  26.624  23.772  1.00  0.00    -0.064 NA
ATOM     18  H12 UNL     1      -0.220  27.193  24.339  1.00  0.00     0.158 HD
ATOM     19  H11 UNL     1      -0.485  27.667  26.055  1.00  0.00     0.158 HD
ATOM     20  H5  UNL     1      -4.368  27.804  28.141  1.00  0.00     0.164 HD
ENDBRANCH   1  10
BRANCH   6  21
HETATM   21  N7  UNL     1      -0.399  27.411  31.730  1.00  0.00    -0.404 NA
HETATM   22  C6  UNL     1       0.558  27.654  32.681  1.00  0.00     0.312 C 
HETATM   23  O1  UNL     1       0.991  28.769  33.060  1.00  0.00    -0.252 OA
BRANCH  22  24
HETATM   24  C7  UNL     1       1.203  26.514  33.397  1.00  0.00     0.106 C 
HETATM   25  C8  UNL     1       1.039  25.286  32.984  1.00  0.00     0.092 C 
BRANCH  25  26
HETATM   26  N8  UNL     1       1.599  24.157  33.580  1.00  0.00    -0.390 N 
HETATM   27  C9  UNL     1       2.562  24.043  34.629  1.00  0.00     0.122 C 
HETATM   28  C10 UNL     1       2.035  22.908  35.476  1.00  0.00     0.021 C 
HETATM   29  C11 UNL     1       1.051  22.177  34.582  1.00  0.00     0.021 C 
HETATM   30  C12 UNL     1       1.257  22.783  33.198  1.00  0.00     0.122 C 
ENDBRANCH  25  26
ENDBRANCH  22  24
ENDBRANCH   6  21
TORSDOF 4
ENDMDL
MODEL 2
REMARK VINA RESULT: -7.780813402      1.031      1.238
REMARK  4 active torsions:
REMARK  status: ('A' for Active; 'I' for Inactive)
REMARK       I    between atoms: C1_4  and  N3_6 
REMARK       I    between atoms: C2_8  and  N5_10 
REMARK    1  A    between atoms: N5_10  and  C3_12 
REMARK    2  A    between atoms: C5_17  and  N7_18 
REMARK       I    between atoms: N7_18  and  C6_19 
REMARK    3  A    between atoms: C6_19  and  C7_21 
REMARK    4  A    between atoms: C8_22  and  N8_23 
ROOT
HETATM    1  C3  UNL     1      -4.095  26.768  30.131  1.00  0.00     0.356 C 
HETATM    2  N6  UNL     1      -3.409  25.533  30.314  1.00  0.00    -0.044 N 
ATOM      3  H61 UNL     1      -2.926  25.237  29.465  1.00  0.00     0.280 HD
ATOM      4  H62 UNL     1      -4.055  24.748  30.401  1.00  0.00     0.280 HD
HETATM    5  C4  UNL     1      -2.513  25.618  31.440  1.00  0.00     0.275 C 
HETATM    6  C5  UNL     1      -1.400  26.646  31.090  1.00  0.00     0.200 C 
HETATM    7  C13 UNL     1      -2.124  27.998  31.283  1.00  0.00     0.123 C 
HETATM    8  C14 UNL     1      -3.594  27.743  31.165  1.00  0.00     0.179 C 
HETATM    9  O2  UNL     1      -4.345  28.334  31.910  1.00  0.00    -0.294 OA
ENDROOT
BRANCH   1  10
HETATM   10  N5  UNL     1      -3.870  27.392  28.844  1.00  0.00    -0.331 N 
HETATM   11  C2  UNL     1      -3.081  26.857  27.809  1.00  0.00     0.192 C 
HETATM   12  N3  UNL     1      -3.080  27.407  26.657  1.00  0.00    -0.305 N 
HETATM   13  N4  UNL     1      -2.297  25.712  28.058  1.00  0.00    -0.063 NA
HETATM   14  C1  UNL     1      -2.356  27.003  25.526  1.00  0.00     0.188 C 
ATOM     15  H3  UNL     1      -3.670  28.231  26.548  1.00  0.00     0.171 HD
HETATM   16  N1  UNL     1      -1.071  26.950  25.611  1.00  0.00    -0.373 N 
HETATM   17  N2  UNL     1      -2.954  26.647  24.289  1.00  0.00    -0.064 NA
ATOM     18  H12 UNL     1      -0.545  26.657  24.788  1.00  0.00     0.158 HD
ATOM     19  H11 UNL     1      -0.641  27.206  26.499  1.00  0.00     0.158 HD
ATOM     20  H5  UNL     1      -4.320  28.292  28.674  1.00  0.00     0.164 HD
ENDBRANCH   1  10
BRANCH   6  21
HETATM   21  N7  UNL     1      -0.339  26.515  31.949  1.00  0.00    -0.404 NA
HETATM   22  C6  UNL     1       0.723  26.388  32.807  1.00  0.00     0.312 C 
HETATM   23  O1  UNL     1       1.427  27.308  33.289  1.00  0.00    -0.252 OA
BRANCH  22  24
HETATM   24  C7  UNL     1       1.146  25.035  33.274  1.00  0.00     0.106 C 
HETATM   25  C8  UNL     1       0.701  23.957  32.688  1.00  0.00     0.092 C 
BRANCH  25  26
HETATM   26  N8  UNL     1       1.038  22.652  33.045  1.00  0.00    -0.390 N 
HETATM   27  C9  UNL     1       1.736  22.154  34.188  1.00  0.00     0.122 C 
HETATM   28  C10 UNL     1       0.959  20.914  34.568  1.00  0.00     0.021 C 
HETATM   29  C11 UNL     1       0.150  20.565  33.332  1.00  0.00     0.021 C 
HETATM   30  C12 UNL     1       0.697  21.475  32.238  1.00  0.00     0.122 C 
ENDBRANCH  25  26
ENDBRANCH  22  24
ENDBRANCH   6  21
TORSDOF 4
ENDMDL
MODEL 3
REMARK VINA RESULT: -7.719597887      5.323      6.446
REMARK  4 active torsions:
REMARK  status: ('A' for Active; 'I' for Inactive)
REMARK       I    between atoms: C1_4  and  N3_6 
REMARK       I    between atoms: C2_8  and  N5_10 
REMARK    1  A    between atoms: N5_10  and  C3_12 
REMARK    2  A    between atoms: C5_17  and  N7_18 
REMARK       I    between atoms: N7_18  and  C6_19 
REMARK    3  A    between atoms: C6_19  and  C7_21 
REMARK    4  A    between atoms: C8_22  and  N8_23 
ROOT
HETATM    1  C3  UNL     1      -4.360  26.933  26.247  1.00  0.00     0.356 C 
HETATM    2  N6  UNL     1      -4.783  25.613  26.581  1.00  0.00    -0.044 N 
ATOM      3  H61 UNL     1      -3.995  24.970  26.657  1.00  0.00     0.280 HD
ATOM      4  H62 UNL     1      -5.271  25.163  25.807  1.00  0.00     0.280 HD
HETATM    5  C4  UNL     1      -5.580  25.631  27.781  1.00  0.00     0.275 C 
HETATM    6  C5  UNL     1      -4.664  26.067  28.960  1.00  0.00     0.200 C 
HETATM    7  C13 UNL     1      -4.554  27.594  28.747  1.00  0.00     0.123 C 
HETATM    8  C14 UNL     1      -4.866  27.873  27.310  1.00  0.00     0.179 C 
HETATM    9  O2  UNL     1      -5.522  28.856  27.041  1.00  0.00    -0.294 OA
ENDROOT
BRANCH   1  10
HETATM   10  N5  UNL     1      -2.923  27.107  26.204  1.00  0.00    -0.331 N 
HETATM   11  C2  UNL     1      -2.145  27.145  25.032  1.00  0.00     0.192 C 
HETATM   12  N3  UNL     1      -0.911  27.465  25.095  1.00  0.00    -0.305 N 
HETATM   13  N4  UNL     1      -2.741  26.827  23.795  1.00  0.00    -0.063 NA
HETATM   14  C1  UNL     1      -0.002  27.550  24.031  1.00  0.00     0.188 C 
ATOM     15  H3  UNL     1      -0.546  27.682  26.022  1.00  0.00     0.171 HD
HETATM   16  N1  UNL     1       0.207  26.495  23.321  1.00  0.00    -0.373 N 
HETATM   17  N2  UNL     1       0.704  28.732  23.686  1.00  0.00    -0.064 NA
ATOM     18  H12 UNL     1       0.868  26.557  22.547  1.00  0.00     0.158 HD
ATOM     19  H11 UNL     1      -0.300  25.646  23.568  1.00  0.00     0.158 HD
ATOM     20  H5  UNL     1      -2.437  27.211  27.095  1.00  0.00     0.164 HD
ENDBRANCH   1  10
BRANCH   6  21
HETATM   21  N7  UNL     1      -5.252  25.766  30.162  1.00  0.00    -0.404 NA
HETATM   22  C6  UNL     1      -5.840  25.460  31.361  1.00  0.00     0.312 C 
HETATM   23  O1  UNL     1      -6.281  24.345  31.732  1.00  0.00    -0.252 OA
BRANCH  22  24
HETATM   24  C7  UNL     1      -6.007  26.518  32.401  1.00  0.00     0.106 C 
HETATM   25  C8  UNL     1      -6.167  27.768  32.062  1.00  0.00     0.092 C 
BRANCH  25  26
HETATM   26  N8  UNL     1      -6.333  28.827  32.954  1.00  0.00    -0.390 N 
HETATM   27  C9  UNL     1      -7.042  30.059  32.810  1.00  0.00     0.122 C 
HETATM   28  C10 UNL     1      -7.728  30.235  34.145  1.00  0.00     0.021 C 
HETATM   29  C11 UNL     1      -6.985  29.310  35.091  1.00  0.00     0.021 C 
HETATM   30  C12 UNL     1      -5.763  28.848  34.306  1.00  0.00     0.122 C 
ENDBRANCH  25  26
ENDBRANCH  22  24
ENDBRANCH   6  21
TORSDOF 4
ENDMDL
MODEL 4
REMARK VINA RESULT: -7.608405303      3.927      4.824
REMARK  4 active torsions:
REMARK  status: ('A' for Active; 'I' for Inactive)
REMARK       I    between atoms: C1_4  and  N3_6 
REMARK       I    between atoms: C2_8  and  N5_10 
REMARK    1  A    between atoms: N5_10  and  C3_12 
REMARK    2  A    between atoms: C5_17  and  N7_18 
REMARK       I    between atoms: N7_18  and  C6_19 
REMARK    3  A    between atoms: C6_19  and  C7_21 
REMARK    4  A    between atoms: C8_22  and  N8_23 
ROOT
HETATM    1  C3  UNL     1      -4.288  27.071  26.247  1.00  0.00     0.356 C 
HETATM    2  N6  UNL     1      -4.706  25.718  26.412  1.00  0.00    -0.044 N 
ATOM      3  H61 UNL     1      -3.919  25.070  26.376  1.00  0.00     0.280 HD
ATOM      4  H62 UNL     1      -5.220  25.377  25.599  1.00  0.00     0.280 HD
HETATM    5  C4  UNL     1      -5.466  25.573  27.628  1.00  0.00     0.275 C 
HETATM    6  C5  UNL     1      -4.511  25.846  28.825  1.00  0.00     0.200 C 
HETATM    7  C13 UNL     1      -4.402  27.388  28.818  1.00  0.00     0.123 C 
HETATM    8  C14 UNL     1      -4.758  27.858  27.442  1.00  0.00     0.179 C 
HETATM    9  O2  UNL     1      -5.418  28.869  27.329  1.00  0.00    -0.294 OA
ENDROOT
BRANCH   1  10
HETATM   10  N5  UNL     1      -2.853  27.250  26.182  1.00  0.00    -0.331 N 
HETATM   11  C2  UNL     1      -2.084  27.226  25.004  1.00  0.00     0.192 C 
HETATM   12  N3  UNL     1      -0.851  27.555  25.039  1.00  0.00    -0.305 N 
HETATM   13  N4  UNL     1      -2.687  26.836  23.792  1.00  0.00    -0.063 NA
HETATM   14  C1  UNL     1       0.050  27.586  23.965  1.00  0.00     0.188 C 
ATOM     15  H3  UNL     1      -0.480  27.826  25.950  1.00  0.00     0.171 HD
HETATM   16  N1  UNL     1       0.258  26.493  23.313  1.00  0.00    -0.373 N 
HETATM   17  N2  UNL     1       0.746  28.750  23.549  1.00  0.00    -0.064 NA
ATOM     18  H12 UNL     1       0.914  26.515  22.532  1.00  0.00     0.158 HD
ATOM     19  H11 UNL     1      -0.242  25.657  23.612  1.00  0.00     0.158 HD
ATOM     20  H5  UNL     1      -2.360  27.406  27.062  1.00  0.00     0.164 HD
ENDBRANCH   1  10
BRANCH   6  21
HETATM   21  N7  UNL     1      -5.063  25.384  29.993  1.00  0.00    -0.404 NA
HETATM   22  C6  UNL     1      -5.617  24.927  31.161  1.00  0.00     0.312 C 
HETATM   23  O1  UNL     1      -6.482  25.496  31.868  1.00  0.00    -0.252 OA
BRANCH  22  24
HETATM   24  C7  UNL     1      -5.199  23.606  31.716  1.00  0.00     0.106 C 
HETATM   25  C8  UNL     1      -3.950  23.229  31.675  1.00  0.00     0.092 C 
BRANCH  25  26
HETATM   26  N8  UNL     1      -3.459  22.021  32.169  1.00  0.00    -0.390 N 
HETATM   27  C9  UNL     1      -4.019  20.707  32.127  1.00  0.00     0.122 C 
HETATM   28  C10 UNL     1      -2.833  19.824  31.810  1.00  0.00     0.021 C 
HETATM   29  C11 UNL     1      -1.617  20.668  32.144  1.00  0.00     0.021 C 
HETATM   30  C12 UNL     1      -2.176  21.889  32.866  1.00  0.00     0.122 C 
ENDBRANCH  25  26
ENDBRANCH  22  24
ENDBRANCH   6  21
TORSDOF 4
ENDMDL
MODEL 5
REMARK VINA RESULT: -7.557602355      4.970      5.994
REMARK  4 active torsions:
REMARK  status: ('A' for Active; 'I' for Inactive)
REMARK       I    between atoms: C1_4  and  N3_6 
REMARK       I    between atoms: C2_8  and  N5_10 
REMARK    1  A    between atoms: N5_10  and  C3_12 
REMARK    2  A    between atoms: C5_17  and  N7_18 
REMARK       I    between atoms: N7_18  and  C6_19 
REMARK    3  A    between atoms: C6_19  and  C7_21 
REMARK    4  A    between atoms: C8_22  and  N8_23 
ROOT
HETATM    1  C3  UNL     1      -4.283  26.916  26.379  1.00  0.00     0.356 C 
HETATM    2  N6  UNL     1      -4.694  25.607  26.765  1.00  0.00    -0.044 N 
ATOM      3  H61 UNL     1      -3.905  24.964  26.827  1.00  0.00     0.280 HD
ATOM      4  H62 UNL     1      -5.213  25.137  26.022  1.00  0.00     0.280 HD
HETATM    5  C4  UNL     1      -5.444  25.658  27.994  1.00  0.00     0.275 C 
HETATM    6  C5  UNL     1      -4.482  26.124  29.124  1.00  0.00     0.200 C 
HETATM    7  C13 UNL     1      -4.380  27.645  28.866  1.00  0.00     0.123 C 
HETATM    8  C14 UNL     1      -4.747  27.885  27.435  1.00  0.00     0.179 C 
HETATM    9  O2  UNL     1      -5.412  28.862  27.165  1.00  0.00    -0.294 OA
ENDROOT
BRANCH   1  10
HETATM   10  N5  UNL     1      -2.849  27.086  26.276  1.00  0.00    -0.331 N 
HETATM   11  C2  UNL     1      -2.123  27.138  25.072  1.00  0.00     0.192 C 
HETATM   12  N3  UNL     1      -0.886  27.453  25.085  1.00  0.00    -0.305 N 
HETATM   13  N4  UNL     1      -2.773  26.840  23.857  1.00  0.00    -0.063 NA
HETATM   14  C1  UNL     1      -0.024  27.551  23.983  1.00  0.00     0.188 C 
ATOM     15  H3  UNL     1      -0.480  27.656  25.998  1.00  0.00     0.171 HD
HETATM   16  N1  UNL     1       0.149  26.505  23.250  1.00  0.00    -0.373 N 
HETATM   17  N2  UNL     1       0.671  28.735  23.624  1.00  0.00    -0.064 NA
ATOM     18  H12 UNL     1       0.777  26.576  22.449  1.00  0.00     0.158 HD
ATOM     19  H11 UNL     1      -0.350  25.654  23.507  1.00  0.00     0.158 HD
ATOM     20  H5  UNL     1      -2.324  27.176  27.145  1.00  0.00     0.164 HD
ENDBRANCH   1  10
BRANCH   6  21
HETATM   21  N7  UNL     1      -5.023  25.856  30.355  1.00  0.00    -0.404 NA
HETATM   22  C6  UNL     1      -5.562  25.592  31.588  1.00  0.00     0.312 C 
HETATM   23  O1  UNL     1      -5.334  26.195  32.664  1.00  0.00    -0.252 OA
BRANCH  22  24
HETATM   24  C7  UNL     1      -6.543  24.479  31.750  1.00  0.00     0.106 C 
HETATM   25  C8  UNL     1      -6.151  23.291  32.122  1.00  0.00     0.092 C 
BRANCH  25  26
HETATM   26  N8  UNL     1      -6.986  22.190  32.304  1.00  0.00    -0.390 N 
HETATM   27  C9  UNL     1      -6.705  20.791  32.239  1.00  0.00     0.122 C 
HETATM   28  C10 UNL     1      -7.479  20.217  33.403  1.00  0.00     0.021 C 
HETATM   29  C11 UNL     1      -8.497  21.284  33.761  1.00  0.00     0.021 C 
HETATM   30  C12 UNL     1      -8.414  22.298  32.625  1.00  0.00     0.122 C 
ENDBRANCH  25  26
ENDBRANCH  22  24
ENDBRANCH   6  21
TORSDOF 4
ENDMDL
