MODEL 1
REMARK VINA RESULT: -7.862261592      0.000      0.000
REMARK  9 active torsions:
REMARK  status: ('A' for Active; 'I' for Inactive)
REMARK    1  A    between atoms: N1_1  and  S1_4 
REMARK    2  A    between atoms: S1_4  and  N2_6 
REMARK    3  A    between atoms: S1_4  and  N7_21 
REMARK       I    between atoms: N2_6  and  C1_8 
REMARK       I    between atoms: C1_8  and  N3_10 
REMARK    4  A    between atoms: N3_10  and  N4_12 
REMARK    5  A    between atoms: N4_12  and  C2_13 
REMARK    6  A    between atoms: C2_13  and  O3_14 
REMARK    7  A    between atoms: C2_13  and  N5_16 
REMARK    8  A    between atoms: N5_16  and  C3_17 
REMARK    9  A    between atoms: C3_17  and  O4_19 
ROOT
HETATM    1  N2  UNL     1      -2.410  27.327  29.668  1.00  0.00    -0.234 N 
ATOM      2  H2  UNL     1      -2.835  28.246  29.545  1.00  0.00     0.183 HD
HETATM    3  C1  UNL     1      -1.412  27.199  30.588  1.00  0.00     0.358 C 
HETATM    4  O2  UNL     1      -0.753  26.188  30.775  1.00  0.00    -0.244 OA
HETATM    5  N3  UNL     1      -1.173  28.383  31.392  1.00  0.00    -0.179 N 
ATOM      6  H3  UNL     1      -1.695  29.253  31.284  1.00  0.00     0.207 HD
ENDROOT
BRANCH   1   7
HETATM    7  S1  UNL     1      -3.013  25.992  28.671  1.00  0.00     0.201 S 
HETATM    8  O1  UNL     1      -3.596  24.945  29.389  1.00  0.00    -0.205 OA
BRANCH   7   9
HETATM    9  N1  UNL     1      -1.656  25.484  28.017  1.00  0.00    -0.328 N 
ATOM     10  H12 UNL     1      -1.432  24.506  27.831  1.00  0.00     0.168 HD
ATOM     11  H11 UNL     1      -1.059  26.287  27.819  1.00  0.00     0.168 HD
ENDBRANCH   7   9
BRANCH   7  12
HETATM   12  N7  UNL     1      -4.043  26.737  27.513  1.00  0.00    -0.290 N 
HETATM   13  C4  UNL     1      -4.986  25.743  27.082  1.00  0.00     0.145 C 
HETATM   14  C5  UNL     1      -6.379  26.207  26.930  1.00  0.00     0.005 C 
HETATM   15  C6  UNL     1      -7.049  26.670  28.173  1.00  0.00     0.007 C 
HETATM   16  C9  UNL     1      -6.300  27.508  26.085  1.00  0.00     0.016 C 
HETATM   17  C7  UNL     1      -6.719  28.152  28.332  1.00  0.00     0.010 C 
HETATM   18  C8  UNL     1      -5.800  28.472  27.182  1.00  0.00     0.025 C 
HETATM   19  C10 UNL     1      -4.414  28.027  27.637  1.00  0.00     0.080 C 
ENDBRANCH   7  12
ENDBRANCH   1   7
BRANCH   5  20
HETATM   20  N4  UNL     1      -0.112  28.200  32.368  1.00  0.00    -0.262 NA
BRANCH  20  21
HETATM   21  C2  UNL     1       0.770  28.069  33.176  1.00  0.00     0.399 C 
BRANCH  21  22
HETATM   22  O3  UNL     1       1.234  29.240  33.884  1.00  0.00    -0.308 OA
ATOM     23  H3  UNL     1       1.372  29.176  34.822  1.00  0.00     0.223 HD
ENDBRANCH  21  22
BRANCH  21  24
HETATM   24  N5  UNL     1       1.609  27.049  33.650  1.00  0.00    -0.312 NA
BRANCH  24  25
HETATM   25  C3  UNL     1       2.397  26.045  33.948  1.00  0.00     0.310 C 
HETATM   26  N6  UNL     1       2.440  24.613  33.637  1.00  0.00    -0.042 NA
BRANCH  25  27
HETATM   27  O4  UNL     1       3.509  26.243  34.728  1.00  0.00    -0.324 OA
ATOM     28  H4  UNL     1       3.623  25.755  35.536  1.00  0.00     0.221 HD
ENDBRANCH  25  27
ENDBRANCH  24  25
ENDBRANCH  21  24
ENDBRANCH  20  21
ENDBRANCH   5  20
TORSDOF 9
ENDMDL
MODEL 2
REMARK VINA RESULT: -7.679423534      0.706      1.470
REMARK  9 active torsions:
REMARK  status: ('A' for Active; 'I' for Inactive)
REMARK    1  A    between atoms: N1_1  and  S1_4 
REMARK    2  A    between atoms: S1_4  and  N2_6 
REMARK    3  A    between atoms: S1_4  and  N7_21 
REMARK       I    between atoms: N2_6  and  C1_8 
REMARK       I    between atoms: C1_8  and  N3_10 
REMARK    4  A    between atoms: N3_10  and  N4_12 
REMARK    5  A    between atoms: N4_12  and  C2_13 
REMARK    6  A    between atoms: C2_13  and  O3_14 
REMARK    7  A    between atoms: C2_13  and  N5_16 
REMARK    8  A    between atoms: N5_16  and  C3_17 
REMARK    9  A    between atoms: C3_17  and  O4_19 
ROOT
HETATM    1  N2  UNL     1      -2.404  27.375  29.684  1.00  0.00    -0.234 N 
ATOM      2  H2  UNL     1      -2.987  28.211  29.718  1.00  0.00     0.183 HD
HETATM    3  C1  UNL     1      -1.373  27.275  30.570  1.00  0.00     0.358 C 
HETATM    4  O2  UNL     1      -0.543  26.379  30.585  1.00  0.00    -0.244 OA
HETATM    5  N3  UNL     1      -1.319  28.334  31.562  1.00  0.00    -0.179 N 
ATOM      6  H3  UNL     1      -1.988  29.103  31.601  1.00  0.00     0.207 HD
ENDROOT
BRANCH   1   7
HETATM    7  S1  UNL     1      -2.795  26.138  28.478  1.00  0.00     0.201 S 
HETATM    8  O1  UNL     1      -2.193  24.896  28.699  1.00  0.00    -0.205 OA
BRANCH   7   9
HETATM    9  N1  UNL     1      -2.168  26.797  27.174  1.00  0.00    -0.328 N 
ATOM     10  H12 UNL     1      -2.694  27.339  26.489  1.00  0.00     0.168 HD
ATOM     11  H11 UNL     1      -1.171  26.588  27.141  1.00  0.00     0.168 HD
ENDBRANCH   7   9
BRANCH   7  12
HETATM   12  N7  UNL     1      -4.514  26.108  28.418  1.00  0.00    -0.290 N 
HETATM   13  C4  UNL     1      -4.985  27.233  29.175  1.00  0.00     0.145 C 
HETATM   14  C5  UNL     1      -6.116  27.975  28.582  1.00  0.00     0.005 C 
HETATM   15  C6  UNL     1      -5.846  28.640  27.280  1.00  0.00     0.007 C 
HETATM   16  C9  UNL     1      -7.170  26.899  28.198  1.00  0.00     0.016 C 
HETATM   17  C7  UNL     1      -6.126  27.612  26.187  1.00  0.00     0.010 C 
HETATM   18  C8  UNL     1      -6.493  26.350  26.924  1.00  0.00     0.025 C 
HETATM   19  C10 UNL     1      -5.165  25.706  27.308  1.00  0.00     0.080 C 
ENDBRANCH   7  12
ENDBRANCH   1   7
BRANCH   5  20
HETATM   20  N4  UNL     1      -0.214  28.182  32.493  1.00  0.00    -0.262 NA
BRANCH  20  21
HETATM   21  C2  UNL     1       0.706  28.076  33.261  1.00  0.00     0.399 C 
BRANCH  21  22
HETATM   22  O3  UNL     1       1.174  29.262  33.941  1.00  0.00    -0.308 OA
ATOM     23  H3  UNL     1       2.104  29.454  33.927  1.00  0.00     0.223 HD
ENDBRANCH  21  22
BRANCH  21  24
HETATM   24  N5  UNL     1       1.589  27.079  33.701  1.00  0.00    -0.312 NA
BRANCH  24  25
HETATM   25  C3  UNL     1       2.408  26.091  33.971  1.00  0.00     0.310 C 
HETATM   26  N6  UNL     1       2.477  24.664  33.644  1.00  0.00    -0.042 NA
BRANCH  25  27
HETATM   27  O4  UNL     1       3.534  26.308  34.725  1.00  0.00    -0.324 OA
ATOM     28  H4  UNL     1       3.544  26.082  35.648  1.00  0.00     0.221 HD
ENDBRANCH  25  27
ENDBRANCH  24  25
ENDBRANCH  21  24
ENDBRANCH  20  21
ENDBRANCH   5  20
TORSDOF 9
ENDMDL
MODEL 3
REMARK VINA RESULT: -7.491051435      1.920      2.841
REMARK  9 active torsions:
REMARK  status: ('A' for Active; 'I' for Inactive)
REMARK    1  A    between atoms: N1_1  and  S1_4 
REMARK    2  A    between atoms: S1_4  and  N2_6 
REMARK    3  A    between atoms: S1_4  and  N7_21 
REMARK       I    between atoms: N2_6  and  C1_8 
REMARK       I    between atoms: C1_8  and  N3_10 
REMARK    4  A    between atoms: N3_10  and  N4_12 
REMARK    5  A    between atoms: N4_12  and  C2_13 
REMARK    6  A    between atoms: C2_13  and  O3_14 
REMARK    7  A    between atoms: C2_13  and  N5_16 
REMARK    8  A    between atoms: N5_16  and  C3_17 
REMARK    9  A    between atoms: C3_17  and  O4_19 
ROOT
HETATM    1  N2  UNL     1      -1.655  24.593  28.151  1.00  0.00    -0.234 N 
ATOM      2  H2  UNL     1      -1.562  23.617  27.869  1.00  0.00     0.183 HD
HETATM    3  C1  UNL     1      -1.164  24.957  29.370  1.00  0.00     0.358 C 
HETATM    4  O2  UNL     1      -1.285  26.063  29.874  1.00  0.00    -0.244 OA
HETATM    5  N3  UNL     1      -0.432  23.916  30.066  1.00  0.00    -0.179 N 
ATOM      6  H3  UNL     1      -0.295  22.977  29.691  1.00  0.00     0.207 HD
ENDROOT
BRANCH   1   7
HETATM    7  S1  UNL     1      -2.443  25.712  27.027  1.00  0.00     0.201 S 
HETATM    8  O1  UNL     1      -2.850  25.138  25.820  1.00  0.00    -0.205 OA
BRANCH   7   9
HETATM    9  N1  UNL     1      -1.252  26.727  26.746  1.00  0.00    -0.328 N 
ATOM     10  H12 UNL     1      -0.282  26.575  27.024  1.00  0.00     0.168 HD
ATOM     11  H11 UNL     1      -1.616  27.541  26.251  1.00  0.00     0.168 HD
ENDBRANCH   7   9
BRANCH   7  12
HETATM   12  N7  UNL     1      -3.704  26.442  27.942  1.00  0.00    -0.290 N 
HETATM   13  C4  UNL     1      -3.963  27.727  27.358  1.00  0.00     0.145 C 
HETATM   14  C5  UNL     1      -5.387  28.101  27.239  1.00  0.00     0.005 C 
HETATM   15  C6  UNL     1      -6.210  27.245  26.344  1.00  0.00     0.007 C 
HETATM   16  C9  UNL     1      -6.012  27.827  28.634  1.00  0.00     0.016 C 
HETATM   17  C7  UNL     1      -6.727  26.084  27.189  1.00  0.00     0.010 C 
HETATM   18  C8  UNL     1      -6.115  26.290  28.550  1.00  0.00     0.025 C 
HETATM   19  C10 UNL     1      -4.710  25.704  28.454  1.00  0.00     0.080 C 
ENDBRANCH   7  12
ENDBRANCH   1   7
BRANCH   5  20
HETATM   20  N4  UNL     1       0.085  24.349  31.353  1.00  0.00    -0.262 NA
BRANCH  20  21
HETATM   21  C2  UNL     1       0.528  24.696  32.417  1.00  0.00     0.399 C 
BRANCH  21  22
HETATM   22  O3  UNL     1       0.345  23.824  33.555  1.00  0.00    -0.308 OA
ATOM     23  H3  UNL     1      -0.293  24.070  34.214  1.00  0.00     0.223 HD
ENDBRANCH  21  22
BRANCH  21  24
HETATM   24  N5  UNL     1       1.176  25.813  32.964  1.00  0.00    -0.312 NA
BRANCH  24  25
HETATM   25  C3  UNL     1       1.648  26.895  33.536  1.00  0.00     0.310 C 
HETATM   26  N6  UNL     1       1.331  28.325  33.501  1.00  0.00    -0.042 NA
BRANCH  25  27
HETATM   27  O4  UNL     1       2.690  26.812  34.425  1.00  0.00    -0.324 OA
ATOM     28  H4  UNL     1       2.660  27.290  35.246  1.00  0.00     0.221 HD
ENDBRANCH  25  27
ENDBRANCH  24  25
ENDBRANCH  21  24
ENDBRANCH  20  21
ENDBRANCH   5  20
TORSDOF 9
ENDMDL
MODEL 4
REMARK VINA RESULT: -7.459719088      0.870      1.081
REMARK  9 active torsions:
REMARK  status: ('A' for Active; 'I' for Inactive)
REMARK    1  A    between atoms: N1_1  and  S1_4 
REMARK    2  A    between atoms: S1_4  and  N2_6 
REMARK    3  A    between atoms: S1_4  and  N7_21 
REMARK       I    between atoms: N2_6  and  C1_8 
REMARK       I    between atoms: C1_8  and  N3_10 
REMARK    4  A    between atoms: N3_10  and  N4_12 
REMARK    5  A    between atoms: N4_12  and  C2_13 
REMARK    6  A    between atoms: C2_13  and  O3_14 
REMARK    7  A    between atoms: C2_13  and  N5_16 
REMARK    8  A    between atoms: N5_16  and  C3_17 
REMARK    9  A    between atoms: C3_17  and  O4_19 
ROOT
HETATM    1  N2  UNL     1      -2.339  27.090  29.228  1.00  0.00    -0.234 N 
ATOM      2  H2  UNL     1      -3.009  27.858  29.188  1.00  0.00     0.183 HD
HETATM    3  C1  UNL     1      -1.401  27.109  30.217  1.00  0.00     0.358 C 
HETATM    4  O2  UNL     1      -0.484  26.310  30.332  1.00  0.00    -0.244 OA
HETATM    5  N3  UNL     1      -1.568  28.170  31.193  1.00  0.00    -0.179 N 
ATOM      6  H3  UNL     1      -2.317  28.861  31.151  1.00  0.00     0.207 HD
ENDROOT
BRANCH   1   7
HETATM    7  S1  UNL     1      -2.463  25.814  28.006  1.00  0.00     0.201 S 
HETATM    8  O1  UNL     1      -2.151  24.532  28.468  1.00  0.00    -0.205 OA
BRANCH   7   9
HETATM    9  N1  UNL     1      -1.344  26.285  26.980  1.00  0.00    -0.328 N 
ATOM     10  H12 UNL     1      -1.527  26.603  26.028  1.00  0.00     0.168 HD
ATOM     11  H11 UNL     1      -0.430  26.217  27.427  1.00  0.00     0.168 HD
ENDBRANCH   7   9
BRANCH   7  12
HETATM   12  N7  UNL     1      -4.044  25.982  27.351  1.00  0.00    -0.290 N 
HETATM   13  C4  UNL     1      -4.973  25.676  28.402  1.00  0.00     0.145 C 
HETATM   14  C5  UNL     1      -6.154  26.559  28.490  1.00  0.00     0.005 C 
HETATM   15  C6  UNL     1      -5.876  27.985  28.804  1.00  0.00     0.007 C 
HETATM   16  C9  UNL     1      -6.729  26.638  27.048  1.00  0.00     0.016 C 
HETATM   17  C7  UNL     1      -5.617  28.692  27.476  1.00  0.00     0.010 C 
HETATM   18  C8  UNL     1      -5.696  27.606  26.435  1.00  0.00     0.025 C 
HETATM   19  C10 UNL     1      -4.325  26.939  26.443  1.00  0.00     0.080 C 
ENDBRANCH   7  12
ENDBRANCH   1   7
BRANCH   5  20
HETATM   20  N4  UNL     1      -0.557  28.144  32.237  1.00  0.00    -0.262 NA
BRANCH  20  21
HETATM   21  C2  UNL     1       0.294  28.129  33.088  1.00  0.00     0.399 C 
BRANCH  21  22
HETATM   22  O3  UNL     1       0.620  29.368  33.755  1.00  0.00    -0.308 OA
ATOM     23  H3  UNL     1       0.556  29.402  34.702  1.00  0.00     0.223 HD
ENDBRANCH  21  22
BRANCH  21  24
HETATM   24  N5  UNL     1       1.194  27.210  33.647  1.00  0.00    -0.312 NA
BRANCH  24  25
HETATM   25  C3  UNL     1       2.130  26.388  34.056  1.00  0.00     0.310 C 
HETATM   26  N6  UNL     1       2.742  25.157  33.550  1.00  0.00    -0.042 NA
BRANCH  25  27
HETATM   27  O4  UNL     1       2.800  26.628  35.230  1.00  0.00    -0.324 OA
ATOM     28  H4  UNL     1       2.734  26.016  35.954  1.00  0.00     0.221 HD
ENDBRANCH  25  27
ENDBRANCH  24  25
ENDBRANCH  21  24
ENDBRANCH  20  21
ENDBRANCH   5  20
TORSDOF 9
ENDMDL
MODEL 5
REMARK VINA RESULT: -7.215512186      2.181      2.758
REMARK  9 active torsions:
REMARK  status: ('A' for Active; 'I' for Inactive)
REMARK    1  A    between atoms: N1_1  and  S1_4 
REMARK    2  A    between atoms: S1_4  and  N2_6 
REMARK    3  A    between atoms: S1_4  and  N7_21 
REMARK       I    between atoms: N2_6  and  C1_8 
REMARK       I    between atoms: C1_8  and  N3_10 
REMARK    4  A    between atoms: N3_10  and  N4_12 
REMARK    5  A    between atoms: N4_12  and  C2_13 
REMARK    6  A    between atoms: C2_13  and  O3_14 
REMARK    7  A    between atoms: C2_13  and  N5_16 
REMARK    8  A    between atoms: N5_16  and  C3_17 
REMARK    9  A    between atoms: C3_17  and  O4_19 
ROOT
HETATM    1  N2  UNL     1      -1.659  24.641  27.963  1.00  0.00    -0.234 N 
ATOM      2  H2  UNL     1      -1.469  23.694  27.635  1.00  0.00     0.183 HD
HETATM    3  C1  UNL     1      -1.257  24.975  29.222  1.00  0.00     0.358 C 
HETATM    4  O2  UNL     1      -1.497  26.036  29.779  1.00  0.00    -0.244 OA
HETATM    5  N3  UNL     1      -0.468  23.961  29.898  1.00  0.00    -0.179 N 
ATOM      6  H3  UNL     1      -0.232  23.061  29.481  1.00  0.00     0.207 HD
ENDROOT
BRANCH   1   7
HETATM    7  S1  UNL     1      -2.492  25.751  26.863  1.00  0.00     0.201 S 
HETATM    8  O1  UNL     1      -2.906  25.178  25.658  1.00  0.00    -0.205 OA
BRANCH   7   9
HETATM    9  N1  UNL     1      -1.329  26.796  26.571  1.00  0.00    -0.328 N 
ATOM     10  H12 UNL     1      -0.346  26.649  26.801  1.00  0.00     0.168 HD
ATOM     11  H11 UNL     1      -1.726  27.622  26.124  1.00  0.00     0.168 HD
ENDBRANCH   7   9
BRANCH   7  12
HETATM   12  N7  UNL     1      -3.752  26.443  27.806  1.00  0.00    -0.290 N 
HETATM   13  C4  UNL     1      -3.946  27.786  27.336  1.00  0.00     0.145 C 
HETATM   14  C5  UNL     1      -5.350  28.225  27.212  1.00  0.00     0.005 C 
HETATM   15  C6  UNL     1      -6.176  27.488  26.219  1.00  0.00     0.007 C 
HETATM   16  C9  UNL     1      -6.029  27.851  28.558  1.00  0.00     0.016 C 
HETATM   17  C7  UNL     1      -6.762  26.276  26.939  1.00  0.00     0.010 C 
HETATM   18  C8  UNL     1      -6.185  26.333  28.329  1.00  0.00     0.025 C 
HETATM   19  C10 UNL     1      -4.801  25.703  28.219  1.00  0.00     0.080 C 
ENDBRANCH   7  12
ENDBRANCH   1   7
BRANCH   5  20
HETATM   20  N4  UNL     1      -0.049  24.363  31.230  1.00  0.00    -0.262 NA
BRANCH  20  21
HETATM   21  C2  UNL     1       0.283  24.710  32.334  1.00  0.00     0.399 C 
BRANCH  21  22
HETATM   22  O3  UNL     1      -0.731  25.219  33.228  1.00  0.00    -0.308 OA
ATOM     23  H3  UNL     1      -0.530  25.271  34.155  1.00  0.00     0.223 HD
ENDBRANCH  21  22
BRANCH  21  24
HETATM   24  N5  UNL     1       1.467  24.842  33.074  1.00  0.00    -0.312 NA
BRANCH  24  25
HETATM   25  C3  UNL     1       2.485  25.013  33.882  1.00  0.00     0.310 C 
HETATM   26  N6  UNL     1       3.112  26.154  34.555  1.00  0.00    -0.042 NA
BRANCH  25  27
HETATM   27  O4  UNL     1       3.232  23.939  34.296  1.00  0.00    -0.324 OA
ATOM     28  H4  UNL     1       4.109  24.067  34.640  1.00  0.00     0.221 HD
ENDBRANCH  25  27
ENDBRANCH  24  25
ENDBRANCH  21  24
ENDBRANCH  20  21
ENDBRANCH   5  20
TORSDOF 9
ENDMDL
