MODEL 1
REMARK VINA RESULT: -7.602947942      0.000      0.000
REMARK  5 active torsions:
REMARK  status: ('A' for Active; 'I' for Inactive)
REMARK    1  A    between atoms: N1_1  and  C1_4 
REMARK    2  A    between atoms: N4_11  and  N5_12 
REMARK    3  A    between atoms: C3_14  and  C4_16 
REMARK    4  A    between atoms: C7_19  and  N7_20 
REMARK    5  A    between atoms: C7_19  and  C8_24 
REMARK       I    between atoms: C8_24  and  N8_26 
ROOT
HETATM    1  C4  UNL     1      -0.950  27.019  31.979  1.00  0.00     0.055 C 
HETATM    2  C5  UNL     1      -2.168  27.650  32.620  1.00  0.00     0.015 C 
HETATM    3  C6  UNL     1      -3.142  27.779  31.468  1.00  0.00     0.049 C 
HETATM    4  C7  UNL     1      -2.937  26.485  30.681  1.00  0.00     0.204 C 
HETATM    5  C13 UNL     1      -1.453  26.168  30.860  1.00  0.00     0.060 C 
ENDROOT
BRANCH   1   6
HETATM    6  C3  UNL     1      -0.181  26.174  32.920  1.00  0.00     0.112 C 
HETATM    7  N5  UNL     1       0.697  25.351  32.466  1.00  0.00    -0.265 N 
ATOM      8  H5  UNL     1       0.850  25.294  31.459  1.00  0.00     0.189 HD
HETATM    9  N6  UNL     1      -0.393  26.256  34.305  1.00  0.00    -0.086 NA
BRANCH   7  10
HETATM   10  N4  UNL     1       1.439  24.543  33.304  1.00  0.00    -0.028 N 
HETATM   11  C1  UNL     1       2.496  24.925  34.031  1.00  0.00     0.716 A 
HETATM   12  N2  UNL     1       2.977  23.885  34.730  1.00  0.00    -0.127 N 
HETATM   13  N3  UNL     1       2.207  22.849  34.429  1.00  0.00    -0.235 N 
ATOM     14  H2  UNL     1       3.776  23.891  35.365  1.00  0.00     0.206 HD
HETATM   15  C2  UNL     1       1.268  23.237  33.563  1.00  0.00     0.375 A 
ATOM     16  H3  UNL     1       2.315  21.906  34.801  1.00  0.00     0.192 HD
HETATM   17  O1  UNL     1       0.363  22.536  33.053  1.00  0.00    -0.243 OA
BRANCH  11  18
HETATM   18  N1  UNL     1       3.025  26.112  34.094  1.00  0.00    -0.231 N 
ATOM     19  H12 UNL     1       3.397  26.583  34.919  1.00  0.00     0.174 HD
ATOM     20  H11 UNL     1       3.121  26.711  33.274  1.00  0.00     0.174 HD
ENDBRANCH  11  18
ENDBRANCH   7  10
ENDBRANCH   1   6
BRANCH   4  21
HETATM   21  N7  UNL     1      -3.697  25.417  31.252  1.00  0.00    -0.061 N 
ATOM     22  H73 UNL     1      -3.619  25.400  32.268  1.00  0.00     0.275 HD
ATOM     23  H72 UNL     1      -4.700  25.587  31.178  1.00  0.00     0.275 HD
ATOM     24  H71 UNL     1      -3.435  24.523  30.837  1.00  0.00     0.275 HD
ENDBRANCH   4  21
BRANCH   4  25
HETATM   25  C8  UNL     1      -3.155  26.678  29.253  1.00  0.00     0.256 C 
HETATM   26  O2  UNL     1      -2.161  26.493  28.470  1.00  0.00    -0.271 OA
HETATM   27  N8  UNL     1      -4.371  27.052  28.682  1.00  0.00    -0.350 N 
HETATM   28  C9  UNL     1      -5.610  27.334  29.371  1.00  0.00     0.126 C 
HETATM   29  C12 UNL     1      -4.650  27.224  27.249  1.00  0.00     0.126 C 
HETATM   30  C10 UNL     1      -6.605  27.827  28.325  1.00  0.00     0.021 C 
HETATM   31  C11 UNL     1      -5.635  28.369  27.258  1.00  0.00     0.021 C 
ENDBRANCH   4  25
TORSDOF 5
ENDMDL
MODEL 2
REMARK VINA RESULT: -7.377692162      1.064      1.544
REMARK  5 active torsions:
REMARK  status: ('A' for Active; 'I' for Inactive)
REMARK    1  A    between atoms: N1_1  and  C1_4 
REMARK    2  A    between atoms: N4_11  and  N5_12 
REMARK    3  A    between atoms: C3_14  and  C4_16 
REMARK    4  A    between atoms: C7_19  and  N7_20 
REMARK    5  A    between atoms: C7_19  and  C8_24 
REMARK       I    between atoms: C8_24  and  N8_26 
ROOT
HETATM    1  C4  UNL     1      -1.072  27.024  31.972  1.00  0.00     0.055 C 
HETATM    2  C5  UNL     1      -2.323  27.579  32.621  1.00  0.00     0.015 C 
HETATM    3  C6  UNL     1      -3.290  27.707  31.463  1.00  0.00     0.049 C 
HETATM    4  C7  UNL     1      -3.021  26.452  30.633  1.00  0.00     0.204 C 
HETATM    5  C13 UNL     1      -1.526  26.193  30.817  1.00  0.00     0.060 C 
ENDROOT
BRANCH   1   6
HETATM    6  C3  UNL     1      -0.276  26.179  32.891  1.00  0.00     0.112 C 
HETATM    7  N5  UNL     1       0.631  25.401  32.417  1.00  0.00    -0.265 N 
ATOM      8  H5  UNL     1       0.789  25.378  31.409  1.00  0.00     0.189 HD
HETATM    9  N6  UNL     1      -0.495  26.213  34.276  1.00  0.00    -0.086 NA
BRANCH   7  10
HETATM   10  N4  UNL     1       1.398  24.595  33.233  1.00  0.00    -0.028 N 
HETATM   11  C1  UNL     1       1.172  23.302  33.496  1.00  0.00     0.716 A 
HETATM   12  N2  UNL     1       2.112  22.828  34.329  1.00  0.00    -0.127 N 
HETATM   13  N3  UNL     1       2.927  23.842  34.583  1.00  0.00    -0.235 N 
ATOM     14  H2  UNL     1       2.185  21.878  34.694  1.00  0.00     0.206 HD
HETATM   15  C2  UNL     1       2.502  24.921  33.922  1.00  0.00     0.375 A 
ATOM     16  H3  UNL     1       3.747  23.803  35.187  1.00  0.00     0.192 HD
HETATM   17  O1  UNL     1       3.017  26.065  33.916  1.00  0.00    -0.243 OA
BRANCH  11  18
HETATM   18  N1  UNL     1       0.204  22.559  33.043  1.00  0.00    -0.231 N 
ATOM     19  H12 UNL     1      -0.005  22.339  32.069  1.00  0.00     0.174 HD
ATOM     20  H11 UNL     1      -0.470  22.106  33.659  1.00  0.00     0.174 HD
ENDBRANCH  11  18
ENDBRANCH   7  10
ENDBRANCH   1   6
BRANCH   4  21
HETATM   21  N7  UNL     1      -3.740  25.333  31.156  1.00  0.00    -0.061 N 
ATOM     22  H73 UNL     1      -3.258  24.912  31.950  1.00  0.00     0.275 HD
ATOM     23  H72 UNL     1      -4.594  25.623  31.632  1.00  0.00     0.275 HD
ATOM     24  H71 UNL     1      -3.929  24.649  30.424  1.00  0.00     0.275 HD
ENDBRANCH   4  21
BRANCH   4  25
HETATM   25  C8  UNL     1      -3.233  26.688  29.210  1.00  0.00     0.256 C 
HETATM   26  O2  UNL     1      -2.231  26.542  28.428  1.00  0.00    -0.271 OA
HETATM   27  N8  UNL     1      -4.451  27.062  28.643  1.00  0.00    -0.350 N 
HETATM   28  C9  UNL     1      -5.698  27.303  29.332  1.00  0.00     0.126 C 
HETATM   29  C12 UNL     1      -4.723  27.274  27.214  1.00  0.00     0.126 C 
HETATM   30  C10 UNL     1      -6.694  27.815  28.296  1.00  0.00     0.021 C 
HETATM   31  C11 UNL     1      -5.725  28.405  27.253  1.00  0.00     0.021 C 
ENDBRANCH   4  25
TORSDOF 5
ENDMDL
MODEL 3
REMARK VINA RESULT: -7.344181020      1.864      2.518
REMARK  5 active torsions:
REMARK  status: ('A' for Active; 'I' for Inactive)
REMARK    1  A    between atoms: N1_1  and  C1_4 
REMARK    2  A    between atoms: N4_11  and  N5_12 
REMARK    3  A    between atoms: C3_14  and  C4_16 
REMARK    4  A    between atoms: C7_19  and  N7_20 
REMARK    5  A    between atoms: C7_19  and  C8_24 
REMARK       I    between atoms: C8_24  and  N8_26 
ROOT
HETATM    1  C4  UNL     1      -2.386  25.755  32.413  1.00  0.00     0.055 C 
HETATM    2  C5  UNL     1      -2.346  24.624  31.407  1.00  0.00     0.015 C 
HETATM    3  C6  UNL     1      -3.267  25.104  30.305  1.00  0.00     0.049 C 
HETATM    4  C7  UNL     1      -2.950  26.596  30.202  1.00  0.00     0.204 C 
HETATM    5  C13 UNL     1      -2.612  27.008  31.634  1.00  0.00     0.060 C 
ENDROOT
BRANCH   1   6
HETATM    6  C3  UNL     1      -1.126  25.884  33.180  1.00  0.00     0.112 C 
HETATM    7  N5  UNL     1       0.001  25.692  32.592  1.00  0.00    -0.265 N 
ATOM      8  H5  UNL     1       0.009  25.452  31.600  1.00  0.00     0.189 HD
HETATM    9  N6  UNL     1      -1.141  26.216  34.543  1.00  0.00    -0.086 NA
BRANCH   7  10
HETATM   10  N4  UNL     1       1.201  25.802  33.264  1.00  0.00    -0.028 N 
HETATM   11  C1  UNL     1       1.940  24.785  33.723  1.00  0.00     0.716 A 
HETATM   12  N2  UNL     1       3.044  25.250  34.328  1.00  0.00    -0.127 N 
HETATM   13  N3  UNL     1       2.984  26.571  34.241  1.00  0.00    -0.235 N 
ATOM     14  H2  UNL     1       3.781  24.698  34.767  1.00  0.00     0.206 HD
HETATM   15  C2  UNL     1       1.868  26.918  33.596  1.00  0.00     0.375 A 
ATOM     16  H3  UNL     1       3.680  27.220  34.609  1.00  0.00     0.192 HD
HETATM   17  O1  UNL     1       1.471  28.076  33.325  1.00  0.00    -0.243 OA
BRANCH  11  18
HETATM   18  N1  UNL     1       1.682  23.513  33.629  1.00  0.00    -0.231 N 
ATOM     19  H12 UNL     1       1.663  22.825  34.382  1.00  0.00     0.174 HD
ATOM     20  H11 UNL     1       1.462  23.065  32.739  1.00  0.00     0.174 HD
ENDBRANCH  11  18
ENDBRANCH   7  10
ENDBRANCH   1   6
BRANCH   4  21
HETATM   21  N7  UNL     1      -1.798  26.817  29.385  1.00  0.00    -0.061 N 
ATOM     22  H73 UNL     1      -1.552  27.805  29.338  1.00  0.00     0.275 HD
ATOM     23  H72 UNL     1      -0.949  26.468  29.830  1.00  0.00     0.275 HD
ATOM     24  H71 UNL     1      -1.929  26.416  28.457  1.00  0.00     0.275 HD
ENDBRANCH   4  21
BRANCH   4  25
HETATM   25  C8  UNL     1      -4.120  27.372  29.808  1.00  0.00     0.256 C 
HETATM   26  O2  UNL     1      -4.775  27.969  30.730  1.00  0.00    -0.271 OA
HETATM   27  N8  UNL     1      -4.575  27.507  28.496  1.00  0.00    -0.350 N 
HETATM   28  C9  UNL     1      -4.009  26.908  27.310  1.00  0.00     0.126 C 
HETATM   29  C12 UNL     1      -5.724  28.305  28.046  1.00  0.00     0.126 C 
HETATM   30  C10 UNL     1      -4.939  27.244  26.147  1.00  0.00     0.021 C 
HETATM   31  C11 UNL     1      -6.259  27.467  26.909  1.00  0.00     0.021 C 
ENDBRANCH   4  25
TORSDOF 5
ENDMDL
MODEL 4
REMARK VINA RESULT: -7.276521157      1.706      2.198
REMARK  5 active torsions:
REMARK  status: ('A' for Active; 'I' for Inactive)
REMARK    1  A    between atoms: N1_1  and  C1_4 
REMARK    2  A    between atoms: N4_11  and  N5_12 
REMARK    3  A    between atoms: C3_14  and  C4_16 
REMARK    4  A    between atoms: C7_19  and  N7_20 
REMARK    5  A    between atoms: C7_19  and  C8_24 
REMARK       I    between atoms: C8_24  and  N8_26 
ROOT
HETATM    1  C4  UNL     1      -1.882  26.004  31.888  1.00  0.00     0.055 C 
HETATM    2  C5  UNL     1      -2.633  24.692  31.803  1.00  0.00     0.015 C 
HETATM    3  C6  UNL     1      -3.136  24.669  30.374  1.00  0.00     0.049 C 
HETATM    4  C7  UNL     1      -1.968  25.250  29.577  1.00  0.00     0.204 C 
HETATM    5  C13 UNL     1      -1.337  26.270  30.523  1.00  0.00     0.060 C 
ENDROOT
BRANCH   1   6
HETATM    6  C3  UNL     1      -0.761  25.961  32.854  1.00  0.00     0.112 C 
HETATM    7  N5  UNL     1       0.375  25.479  32.493  1.00  0.00    -0.265 N 
ATOM      8  H5  UNL     1       0.486  25.131  31.540  1.00  0.00     0.189 HD
HETATM    9  N6  UNL     1      -0.917  26.442  34.163  1.00  0.00    -0.086 NA
BRANCH   7  10
HETATM   10  N4  UNL     1       1.448  25.418  33.358  1.00  0.00    -0.028 N 
HETATM   11  C1  UNL     1       1.852  24.336  34.033  1.00  0.00     0.716 A 
HETATM   12  N2  UNL     1       2.926  24.631  34.782  1.00  0.00    -0.127 N 
HETATM   13  N3  UNL     1       3.187  25.912  34.565  1.00  0.00    -0.235 N 
ATOM     14  H2  UNL     1       3.439  23.997  35.395  1.00  0.00     0.206 HD
HETATM   15  C2  UNL     1       2.295  26.401  33.701  1.00  0.00     0.375 A 
ATOM     16  H3  UNL     1       3.948  26.441  34.992  1.00  0.00     0.192 HD
HETATM   17  O1  UNL     1       2.223  27.572  33.258  1.00  0.00    -0.243 OA
BRANCH  11  18
HETATM   18  N1  UNL     1       1.325  23.146  34.010  1.00  0.00    -0.231 N 
ATOM     19  H12 UNL     1       1.435  22.432  33.289  1.00  0.00     0.174 HD
ATOM     20  H11 UNL     1       0.720  22.803  34.756  1.00  0.00     0.174 HD
ENDBRANCH  11  18
ENDBRANCH   7  10
ENDBRANCH   1   6
BRANCH   4  21
HETATM   21  N7  UNL     1      -0.997  24.241  29.290  1.00  0.00    -0.061 N 
ATOM     22  H73 UNL     1      -1.284  23.329  29.643  1.00  0.00     0.275 HD
ATOM     23  H72 UNL     1      -0.967  24.017  28.295  1.00  0.00     0.275 HD
ATOM     24  H71 UNL     1      -0.079  24.510  29.643  1.00  0.00     0.275 HD
ENDBRANCH   4  21
BRANCH   4  25
HETATM   25  C8  UNL     1      -2.426  25.990  28.407  1.00  0.00     0.256 C 
HETATM   26  O2  UNL     1      -1.650  26.035  27.392  1.00  0.00    -0.271 OA
HETATM   27  N8  UNL     1      -3.651  26.651  28.320  1.00  0.00    -0.350 N 
HETATM   28  C9  UNL     1      -4.666  26.750  29.344  1.00  0.00     0.126 C 
HETATM   29  C12 UNL     1      -4.172  27.378  27.153  1.00  0.00     0.126 C 
HETATM   30  C10 UNL     1      -5.750  27.684  28.816  1.00  0.00     0.021 C 
HETATM   31  C11 UNL     1      -4.931  28.510  27.805  1.00  0.00     0.021 C 
ENDBRANCH   4  25
TORSDOF 5
ENDMDL
MODEL 5
REMARK VINA RESULT: -7.266756670      1.546      2.078
REMARK  5 active torsions:
REMARK  status: ('A' for Active; 'I' for Inactive)
REMARK    1  A    between atoms: N1_1  and  C1_4 
REMARK    2  A    between atoms: N4_11  and  N5_12 
REMARK    3  A    between atoms: C3_14  and  C4_16 
REMARK    4  A    between atoms: C7_19  and  N7_20 
REMARK    5  A    between atoms: C7_19  and  C8_24 
REMARK       I    between atoms: C8_24  and  N8_26 
ROOT
HETATM    1  C4  UNL     1      -2.246  25.703  32.518  1.00  0.00     0.055 C 
HETATM    2  C5  UNL     1      -2.319  24.490  31.615  1.00  0.00     0.015 C 
HETATM    3  C6  UNL     1      -3.184  24.961  30.465  1.00  0.00     0.049 C 
HETATM    4  C7  UNL     1      -2.719  26.399  30.235  1.00  0.00     0.204 C 
HETATM    5  C13 UNL     1      -2.343  26.900  31.630  1.00  0.00     0.060 C 
ENDROOT
BRANCH   1   6
HETATM    6  C3  UNL     1      -0.981  25.772  33.284  1.00  0.00     0.112 C 
HETATM    7  N5  UNL     1       0.133  25.503  32.701  1.00  0.00    -0.265 N 
ATOM      8  H5  UNL     1       0.127  25.244  31.714  1.00  0.00     0.189 HD
HETATM    9  N6  UNL     1      -0.977  26.130  34.641  1.00  0.00    -0.086 NA
BRANCH   7  10
HETATM   10  N4  UNL     1       1.337  25.554  33.373  1.00  0.00    -0.028 N 
HETATM   11  C1  UNL     1       2.007  26.666  33.700  1.00  0.00     0.716 A 
HETATM   12  N2  UNL     1       3.140  26.351  34.347  1.00  0.00    -0.127 N 
HETATM   13  N3  UNL     1       3.168  25.028  34.420  1.00  0.00    -0.235 N 
ATOM     14  H2  UNL     1       3.839  26.999  34.710  1.00  0.00     0.206 HD
HETATM   15  C2  UNL     1       2.077  24.533  33.831  1.00  0.00     0.375 A 
ATOM     16  H3  UNL     1       3.906  24.475  34.856  1.00  0.00     0.192 HD
HETATM   17  O1  UNL     1       1.757  23.327  33.705  1.00  0.00    -0.243 OA
BRANCH  11  18
HETATM   18  N1  UNL     1       1.665  27.897  33.455  1.00  0.00    -0.231 N 
ATOM     19  H12 UNL     1       0.723  28.289  33.441  1.00  0.00     0.174 HD
ATOM     20  H11 UNL     1       2.350  28.622  33.242  1.00  0.00     0.174 HD
ENDBRANCH  11  18
ENDBRANCH   7  10
ENDBRANCH   1   6
BRANCH   4  21
HETATM   21  N7  UNL     1      -1.548  26.430  29.415  1.00  0.00    -0.061 N 
ATOM     22  H73 UNL     1      -1.004  25.572  29.502  1.00  0.00     0.275 HD
ATOM     23  H72 UNL     1      -1.780  26.365  28.424  1.00  0.00     0.275 HD
ATOM     24  H71 UNL     1      -0.985  27.256  29.617  1.00  0.00     0.275 HD
ENDBRANCH   4  21
BRANCH   4  25
HETATM   25  C8  UNL     1      -3.804  27.251  29.763  1.00  0.00     0.256 C 
HETATM   26  O2  UNL     1      -4.463  27.912  30.637  1.00  0.00    -0.271 OA
HETATM   27  N8  UNL     1      -4.172  27.393  28.425  1.00  0.00    -0.350 N 
HETATM   28  C9  UNL     1      -3.585  26.731  27.282  1.00  0.00     0.126 C 
HETATM   29  C12 UNL     1      -5.231  28.265  27.897  1.00  0.00     0.126 C 
HETATM   30  C10 UNL     1      -4.420  27.113  26.063  1.00  0.00     0.021 C 
HETATM   31  C11 UNL     1      -5.762  27.446  26.744  1.00  0.00     0.021 C 
ENDBRANCH   4  25
TORSDOF 5
ENDMDL
