MODEL 1
REMARK VINA RESULT: -7.352891298      0.000      0.000
REMARK  4 active torsions:
REMARK  status: ('A' for Active; 'I' for Inactive)
REMARK    1  A    between atoms: C2_2  and  S1_3 
REMARK    2  A    between atoms: S1_3  and  C3_6 
REMARK    3  A    between atoms: C6_11  and  C7_12 
REMARK    4  A    between atoms: C9_14  and  O3_15 
ROOT
HETATM    1  C3  UNL     1       0.466  26.060  32.801  1.00  0.00     0.140 A 
HETATM    2  N1  UNL     1      -0.095  27.250  32.667  1.00  0.00    -0.346 N 
ATOM      3  H1  UNL     1       0.148  28.073  33.219  1.00  0.00     0.167 HD
HETATM    4  C4  UNL     1      -1.055  27.224  31.679  1.00  0.00     0.034 A 
HETATM    5  C5  UNL     1      -1.757  28.292  31.357  1.00  0.00     0.044 C 
HETATM    6  C6  UNL     1      -1.106  25.959  31.161  1.00  0.00    -0.000 A 
HETATM    7  C12 UNL     1      -0.134  25.251  31.891  1.00  0.00    -0.011 A 
HETATM    8  C13 UNL     1       0.188  23.829  31.695  1.00  0.00     0.052 C 
ENDROOT
BRANCH   6   9
HETATM    9  C7  UNL     1      -1.838  25.439  30.221  1.00  0.00     0.035 C 
HETATM   10  C8  UNL     1      -2.655  26.015  29.202  1.00  0.00     0.084 A 
HETATM   11  C9  UNL     1      -2.136  26.312  27.939  1.00  0.00     0.160 A 
HETATM   12  C11 UNL     1      -3.995  26.245  29.472  1.00  0.00     0.263 A 
HETATM   13  N2  UNL     1      -2.939  26.818  26.996  1.00  0.00    -0.288 N 
HETATM   14  C10 UNL     1      -4.234  27.032  27.281  1.00  0.00     0.329 A 
ATOM     15  H2  UNL     1      -2.572  27.039  26.070  1.00  0.00     0.172 HD
HETATM   16  O4  UNL     1      -4.963  27.510  26.369  1.00  0.00    -0.247 OA
HETATM   17  N3  UNL     1      -4.755  26.752  28.492  1.00  0.00    -0.275 N 
ATOM     18  H3  UNL     1      -5.745  26.930  28.666  1.00  0.00     0.173 HD
HETATM   19  O5  UNL     1      -4.478  25.975  30.625  1.00  0.00    -0.267 OA
BRANCH  11  20
HETATM   20  O3  UNL     1      -0.795  26.081  27.672  1.00  0.00    -0.345 OA
ATOM     21  H3  UNL     1      -0.173  26.025  28.388  1.00  0.00     0.219 HD
ENDBRANCH  11  20
ENDBRANCH   6   9
BRANCH   1  22
HETATM   22  S1  UNL     1       1.735  25.666  33.950  1.00  0.00     0.212 S 
HETATM   23  O1  UNL     1       2.898  25.007  33.308  1.00  0.00    -0.217 OA
HETATM   24  O2  UNL     1       2.130  26.973  34.621  1.00  0.00    -0.217 OA
BRANCH  22  25
HETATM   25  C2  UNL     1       1.071  24.626  35.171  1.00  0.00     0.105 C 
HETATM   26  C1  UNL     1      -0.204  24.686  35.548  1.00  0.00     0.024 C 
ENDBRANCH  22  25
ENDBRANCH   1  22
TORSDOF 4
ENDMDL
MODEL 2
REMARK VINA RESULT: -7.128113572      1.242      1.326
REMARK  4 active torsions:
REMARK  status: ('A' for Active; 'I' for Inactive)
REMARK    1  A    between atoms: C2_2  and  S1_3 
REMARK    2  A    between atoms: S1_3  and  C3_6 
REMARK    3  A    between atoms: C6_11  and  C7_12 
REMARK    4  A    between atoms: C9_14  and  O3_15 
ROOT
HETATM    1  C3  UNL     1       0.509  26.155  33.061  1.00  0.00     0.140 A 
HETATM    2  N1  UNL     1       0.026  27.384  32.993  1.00  0.00    -0.346 N 
ATOM      3  H1  UNL     1       0.372  28.176  33.534  1.00  0.00     0.167 HD
HETATM    4  C4  UNL     1      -1.011  27.447  32.088  1.00  0.00     0.034 A 
HETATM    5  C5  UNL     1      -1.659  28.568  31.842  1.00  0.00     0.044 C 
HETATM    6  C6  UNL     1      -1.196  26.199  31.557  1.00  0.00    -0.000 A 
HETATM    7  C12 UNL     1      -0.220  25.410  32.193  1.00  0.00    -0.011 A 
HETATM    8  C13 UNL     1      -0.018  23.973  31.949  1.00  0.00     0.052 C 
ENDROOT
BRANCH   6   9
HETATM    9  C7  UNL     1      -2.039  25.752  30.675  1.00  0.00     0.035 C 
HETATM   10  C8  UNL     1      -2.143  25.926  29.261  1.00  0.00     0.084 A 
HETATM   11  C9  UNL     1      -1.519  25.044  28.375  1.00  0.00     0.160 A 
HETATM   12  C11 UNL     1      -2.908  26.973  28.773  1.00  0.00     0.263 A 
HETATM   13  N2  UNL     1      -1.667  25.216  27.056  1.00  0.00    -0.288 N 
HETATM   14  C10 UNL     1      -2.415  26.238  26.607  1.00  0.00     0.329 A 
ATOM     15  H2  UNL     1      -1.218  24.579  26.399  1.00  0.00     0.172 HD
HETATM   16  O4  UNL     1      -2.533  26.373  25.358  1.00  0.00    -0.247 OA
HETATM   17  N3  UNL     1      -3.024  27.101  27.445  1.00  0.00    -0.275 N 
ATOM     18  H3  UNL     1      -3.583  27.863  27.061  1.00  0.00     0.173 HD
HETATM   19  O5  UNL     1      -3.482  27.785  29.578  1.00  0.00    -0.267 OA
BRANCH  11  20
HETATM   20  O3  UNL     1      -0.754  23.998  28.867  1.00  0.00    -0.345 OA
ATOM     21  H3  UNL     1      -0.933  23.108  28.586  1.00  0.00     0.219 HD
ENDBRANCH  11  20
ENDBRANCH   6   9
BRANCH   1  22
HETATM   22  S1  UNL     1       1.837  25.649  34.093  1.00  0.00     0.212 S 
HETATM   23  O1  UNL     1       2.940  25.015  33.331  1.00  0.00    -0.217 OA
HETATM   24  O2  UNL     1       2.309  26.894  34.831  1.00  0.00    -0.217 OA
BRANCH  22  25
HETATM   25  C2  UNL     1       1.224  24.535  35.276  1.00  0.00     0.105 C 
HETATM   26  C1  UNL     1       0.033  24.685  35.852  1.00  0.00     0.024 C 
ENDBRANCH  22  25
ENDBRANCH   1  22
TORSDOF 4
ENDMDL
MODEL 3
REMARK VINA RESULT: -6.786445014      1.690      2.821
REMARK  4 active torsions:
REMARK  status: ('A' for Active; 'I' for Inactive)
REMARK    1  A    between atoms: C2_2  and  S1_3 
REMARK    2  A    between atoms: S1_3  and  C3_6 
REMARK    3  A    between atoms: C6_11  and  C7_12 
REMARK    4  A    between atoms: C9_14  and  O3_15 
ROOT
HETATM    1  C3  UNL     1       0.105  25.721  32.295  1.00  0.00     0.140 A 
HETATM    2  N1  UNL     1      -0.323  24.736  31.523  1.00  0.00    -0.346 N 
ATOM      3  H1  UNL     1       0.007  23.772  31.573  1.00  0.00     0.167 HD
HETATM    4  C4  UNL     1      -1.277  25.192  30.640  1.00  0.00     0.034 A 
HETATM    5  C5  UNL     1      -1.857  24.397  29.763  1.00  0.00     0.044 C 
HETATM    6  C6  UNL     1      -1.464  26.530  30.861  1.00  0.00    -0.000 A 
HETATM    7  C12 UNL     1      -0.577  26.829  31.912  1.00  0.00    -0.011 A 
HETATM    8  C13 UNL     1      -0.413  28.162  32.512  1.00  0.00     0.052 C 
ENDROOT
BRANCH   6   9
HETATM    9  C7  UNL     1      -2.247  27.398  30.294  1.00  0.00     0.035 C 
HETATM   10  C8  UNL     1      -3.579  27.313  29.786  1.00  0.00     0.084 A 
HETATM   11  C9  UNL     1      -4.683  27.596  30.595  1.00  0.00     0.160 A 
HETATM   12  C11 UNL     1      -3.764  26.976  28.455  1.00  0.00     0.263 A 
HETATM   13  N2  UNL     1      -5.914  27.541  30.076  1.00  0.00    -0.288 N 
HETATM   14  C10 UNL     1      -6.069  27.212  28.782  1.00  0.00     0.329 A 
ATOM     15  H2  UNL     1      -6.728  27.746  30.656  1.00  0.00     0.172 HD
HETATM   16  O4  UNL     1      -7.244  27.169  28.325  1.00  0.00    -0.247 OA
HETATM   17  N3  UNL     1      -5.018  26.935  27.985  1.00  0.00    -0.275 N 
ATOM     18  H3  UNL     1      -5.180  26.689  27.008  1.00  0.00     0.173 HD
HETATM   19  O5  UNL     1      -2.759  26.714  27.707  1.00  0.00    -0.267 OA
BRANCH  11  20
HETATM   20  O3  UNL     1      -4.494  27.933  31.926  1.00  0.00    -0.345 OA
ATOM     21  H3  UNL     1      -5.198  28.341  32.416  1.00  0.00     0.219 HD
ENDBRANCH  11  20
ENDBRANCH   6   9
BRANCH   1  22
HETATM   22  S1  UNL     1       1.319  25.561  33.554  1.00  0.00     0.212 S 
HETATM   23  O1  UNL     1       2.515  26.401  33.300  1.00  0.00    -0.217 OA
HETATM   24  O2  UNL     1       0.637  25.938  34.862  1.00  0.00    -0.217 OA
BRANCH  22  25
HETATM   25  C2  UNL     1       1.785  23.893  33.664  1.00  0.00     0.105 C 
HETATM   26  C1  UNL     1       1.832  23.236  34.821  1.00  0.00     0.024 C 
ENDBRANCH  22  25
ENDBRANCH   1  22
TORSDOF 4
ENDMDL
MODEL 4
REMARK VINA RESULT: -6.546038470      4.423      6.987
REMARK  4 active torsions:
REMARK  status: ('A' for Active; 'I' for Inactive)
REMARK    1  A    between atoms: C2_2  and  S1_3 
REMARK    2  A    between atoms: S1_3  and  C3_6 
REMARK    3  A    between atoms: C6_11  and  C7_12 
REMARK    4  A    between atoms: C9_14  and  O3_15 
ROOT
HETATM    1  C3  UNL     1      -3.065  26.849  27.196  1.00  0.00     0.140 A 
HETATM    2  N1  UNL     1      -2.342  26.938  28.300  1.00  0.00    -0.346 N 
ATOM      3  H1  UNL     1      -1.335  26.787  28.349  1.00  0.00     0.167 HD
HETATM    4  C4  UNL     1      -3.139  27.263  29.375  1.00  0.00     0.034 A 
HETATM    5  C5  UNL     1      -2.649  27.410  30.590  1.00  0.00     0.044 C 
HETATM    6  C6  UNL     1      -4.429  27.386  28.935  1.00  0.00    -0.000 A 
HETATM    7  C12 UNL     1      -4.345  27.119  27.556  1.00  0.00    -0.011 A 
HETATM    8  C13 UNL     1      -5.490  27.130  26.632  1.00  0.00     0.052 C 
ENDROOT
BRANCH   6   9
HETATM    9  C7  UNL     1      -5.531  27.677  29.559  1.00  0.00     0.035 C 
HETATM   10  C8  UNL     1      -6.182  27.101  30.691  1.00  0.00     0.084 A 
HETATM   11  C9  UNL     1      -5.920  27.554  31.987  1.00  0.00     0.160 A 
HETATM   12  C11 UNL     1      -7.116  26.099  30.483  1.00  0.00     0.263 A 
HETATM   13  N2  UNL     1      -6.575  27.016  33.021  1.00  0.00    -0.288 N 
HETATM   14  C10 UNL     1      -7.477  26.045  32.795  1.00  0.00     0.329 A 
ATOM     15  H2  UNL     1      -6.393  27.338  33.971  1.00  0.00     0.172 HD
HETATM   16  O4  UNL     1      -8.076  25.558  33.793  1.00  0.00    -0.247 OA
HETATM   17  N3  UNL     1      -7.744  25.593  31.553  1.00  0.00    -0.275 N 
ATOM     18  H3  UNL     1      -8.436  24.854  31.426  1.00  0.00     0.173 HD
HETATM   19  O5  UNL     1      -7.362  25.678  29.301  1.00  0.00    -0.267 OA
BRANCH  11  20
HETATM   20  O3  UNL     1      -4.985  28.558  32.191  1.00  0.00    -0.345 OA
ATOM     21  H3  UNL     1      -4.951  29.009  33.026  1.00  0.00     0.219 HD
ENDBRANCH  11  20
ENDBRANCH   6   9
BRANCH   1  22
HETATM   22  S1  UNL     1      -2.434  26.455  25.605  1.00  0.00     0.212 S 
HETATM   23  O1  UNL     1      -2.137  25.010  25.452  1.00  0.00    -0.217 OA
HETATM   24  O2  UNL     1      -3.476  26.923  24.599  1.00  0.00    -0.217 OA
BRANCH  22  25
HETATM   25  C2  UNL     1      -0.990  27.382  25.338  1.00  0.00     0.105 C 
HETATM   26  C1  UNL     1      -0.822  28.154  24.266  1.00  0.00     0.024 C 
ENDBRANCH  22  25
ENDBRANCH   1  22
TORSDOF 4
ENDMDL
MODEL 5
REMARK VINA RESULT: -6.542658963      4.454      7.188
REMARK  4 active torsions:
REMARK  status: ('A' for Active; 'I' for Inactive)
REMARK    1  A    between atoms: C2_2  and  S1_3 
REMARK    2  A    between atoms: S1_3  and  C3_6 
REMARK    3  A    between atoms: C6_11  and  C7_12 
REMARK    4  A    between atoms: C9_14  and  O3_15 
ROOT
HETATM    1  C3  UNL     1      -3.042  26.944  25.581  1.00  0.00     0.140 A 
HETATM    2  N1  UNL     1      -4.315  27.300  25.522  1.00  0.00    -0.346 N 
ATOM      3  H1  UNL     1      -4.779  27.663  24.690  1.00  0.00     0.167 HD
HETATM    4  C4  UNL     1      -4.927  27.111  26.742  1.00  0.00     0.034 A 
HETATM    5  C5  UNL     1      -6.199  27.394  26.937  1.00  0.00     0.044 C 
HETATM    6  C6  UNL     1      -4.000  26.613  27.617  1.00  0.00    -0.000 A 
HETATM    7  C12 UNL     1      -2.823  26.520  26.852  1.00  0.00    -0.011 A 
HETATM    8  C13 UNL     1      -1.533  26.029  27.359  1.00  0.00     0.052 C 
ENDROOT
BRANCH   6   9
HETATM    9  C7  UNL     1      -4.089  26.275  28.869  1.00  0.00     0.035 C 
HETATM   10  C8  UNL     1      -4.434  27.006  30.045  1.00  0.00     0.084 A 
HETATM   11  C9  UNL     1      -5.756  27.078  30.492  1.00  0.00     0.160 A 
HETATM   12  C11 UNL     1      -3.424  27.622  30.768  1.00  0.00     0.263 A 
HETATM   13  N2  UNL     1      -6.038  27.742  31.619  1.00  0.00    -0.288 N 
HETATM   14  C10 UNL     1      -5.042  28.331  32.303  1.00  0.00     0.329 A 
ATOM     15  H2  UNL     1      -6.999  27.802  31.955  1.00  0.00     0.172 HD
HETATM   16  O4  UNL     1      -5.343  28.949  33.360  1.00  0.00    -0.247 OA
HETATM   17  N3  UNL     1      -3.761  28.274  31.889  1.00  0.00    -0.275 N 
ATOM     18  H3  UNL     1      -3.035  28.735  32.438  1.00  0.00     0.173 HD
HETATM   19  O5  UNL     1      -2.211  27.561  30.366  1.00  0.00    -0.267 OA
BRANCH  11  20
HETATM   20  O3  UNL     1      -6.764  26.462  29.767  1.00  0.00    -0.345 OA
ATOM     21  H3  UNL     1      -6.968  26.764  28.890  1.00  0.00     0.219 HD
ENDBRANCH  11  20
ENDBRANCH   6   9
BRANCH   1  22
HETATM   22  S1  UNL     1      -1.908  27.026  24.243  1.00  0.00     0.212 S 
HETATM   23  O1  UNL     1      -1.148  25.766  24.062  1.00  0.00    -0.217 OA
HETATM   24  O2  UNL     1      -2.725  27.371  23.005  1.00  0.00    -0.217 OA
BRANCH  22  25
HETATM   25  C2  UNL     1      -0.808  28.339  24.531  1.00  0.00     0.105 C 
HETATM   26  C1  UNL     1       0.500  28.155  24.695  1.00  0.00     0.024 C 
ENDBRANCH  22  25
ENDBRANCH   1  22
TORSDOF 4
ENDMDL
