MODEL 1
REMARK VINA RESULT: -9.154090417      0.000      0.000
REMARK  11 active torsions:
REMARK  status: ('A' for Active; 'I' for Inactive)
REMARK    1  A    between atoms: C2_2  and  C3_3 
REMARK    2  A    between atoms: C6_6  and  C7_7 
REMARK    3  A    between atoms: C7_7  and  C8_8 
REMARK    4  A    between atoms: C8_8  and  C9_9 
REMARK    5  A    between atoms: C9_9  and  C10_10 
REMARK    6  A    between atoms: C10_10  and  N1_11 
REMARK    7  A    between atoms: C12_13  and  C13_14 
REMARK    8  A    between atoms: C13_14  and  N2_15 
REMARK    9  A    between atoms: C16_21  and  C17_22 
REMARK   10  A    between atoms: C17_22  and  N6_26 
REMARK   11  A    between atoms: N6_26  and  C18_28 
ROOT
HETATM    1  N1  UNL     1      73.935  50.059   6.400  1.00  0.00     0.100 N 
HETATM    2  C11 UNL     1      74.990  50.149   5.406  1.00  0.00     0.279 C 
HETATM    3  C12 UNL     1      74.538  49.303   4.238  1.00  0.00     0.034 C 
HETATM    4  C15 UNL     1      73.055  49.470   4.256  1.00  0.00     0.052 C 
HETATM    5  C16 UNL     1      72.740  49.676   5.724  1.00  0.00     0.289 C 
ENDROOT
BRANCH   1   6
HETATM    6  C10 UNL     1      73.870  51.371   7.021  1.00  0.00     0.273 C 
BRANCH   6   7
HETATM    7  C9  UNL     1      74.400  51.409   8.418  1.00  0.00     0.030 C 
BRANCH   7   8
HETATM    8  C8  UNL     1      73.286  51.019   9.361  1.00  0.00     0.002 C 
BRANCH   8   9
HETATM    9  C7  UNL     1      71.965  51.676   9.030  1.00  0.00     0.005 C 
BRANCH   9  10
HETATM   10  C6  UNL     1      71.717  52.674  10.169  1.00  0.00    -0.014 C 
HETATM   11  C5  UNL     1      70.695  52.171  11.136  1.00  0.00     0.005 C 
HETATM   12  C4  UNL     1      70.727  53.101  12.345  1.00  0.00     0.005 C 
HETATM   13  C3  UNL     1      70.929  54.508  11.882  1.00  0.00    -0.015 C 
HETATM   14  C22 UNL     1      70.298  54.668  10.537  1.00  0.00     0.005 C 
HETATM   15  C21 UNL     1      71.192  53.932   9.532  1.00  0.00     0.005 C 
BRANCH  13  16
HETATM   16  C2  UNL     1      70.484  55.533  12.893  1.00  0.00     0.000 C 
HETATM   17  C1  UNL     1      71.628  56.490  13.147  1.00  0.00     0.005 C 
ENDBRANCH  13  16
ENDBRANCH   9  10
ENDBRANCH   8   9
ENDBRANCH   7   8
ENDBRANCH   6   7
ENDBRANCH   1   6
BRANCH   5  18
HETATM   18  C17 UNL     1      72.175  48.394   6.242  1.00  0.00     0.105 C 
HETATM   19  N5  UNL     1      71.604  47.562   5.441  1.00  0.00    -0.387 N 
ATOM     20  H52 UNL     1      71.548  47.801   4.451  1.00  0.00     0.157 HD
ATOM     21  H51 UNL     1      71.218  46.687   5.795  1.00  0.00     0.157 HD
BRANCH  18  22
HETATM   22  N6  UNL     1      72.251  48.065   7.610  1.00  0.00    -0.363 N 
ATOM     23  H6  UNL     1      72.886  48.570   8.228  1.00  0.00     0.161 HD
BRANCH  22  24
HETATM   24  C18 UNL     1      71.425  47.014   8.123  1.00  0.00     0.193 C 
HETATM   25  C19 UNL     1      71.524  46.755   9.613  1.00  0.00     0.157 C 
HETATM   26  N7  UNL     1      71.599  45.318   9.315  1.00  0.00    -0.357 N 
HETATM   27  C20 UNL     1      71.932  45.634   7.948  1.00  0.00     0.242 C 
ATOM     28  H7  UNL     1      71.470  44.459   9.850  1.00  0.00     0.162 HD
HETATM   29  O1  UNL     1      72.451  44.917   7.056  1.00  0.00    -0.271 OA
ENDBRANCH  22  24
ENDBRANCH  18  22
ENDBRANCH   5  18
BRANCH   3  30
HETATM   30  C13 UNL     1      75.181  49.804   2.967  1.00  0.00     0.128 C 
BRANCH  30  31
HETATM   31  N2  UNL     1      75.305  48.726   2.023  1.00  0.00    -0.366 N 
HETATM   32  C14 UNL     1      76.106  47.743   2.085  1.00  0.00     0.196 C 
HETATM   33  N3  UNL     1      77.048  47.533   3.133  1.00  0.00    -0.067 NA
HETATM   34  N4  UNL     1      76.035  46.789   1.012  1.00  0.00    -0.067 NA
ATOM     35  H2  UNL     1      74.683  48.755   1.217  1.00  0.00     0.161 HD
ENDBRANCH  30  31
ENDBRANCH   3  30
TORSDOF 11
ENDMDL
MODEL 2
REMARK VINA RESULT: -9.138718955      2.632      8.304
REMARK  11 active torsions:
REMARK  status: ('A' for Active; 'I' for Inactive)
REMARK    1  A    between atoms: C2_2  and  C3_3 
REMARK    2  A    between atoms: C6_6  and  C7_7 
REMARK    3  A    between atoms: C7_7  and  C8_8 
REMARK    4  A    between atoms: C8_8  and  C9_9 
REMARK    5  A    between atoms: C9_9  and  C10_10 
REMARK    6  A    between atoms: C10_10  and  N1_11 
REMARK    7  A    between atoms: C12_13  and  C13_14 
REMARK    8  A    between atoms: C13_14  and  N2_15 
REMARK    9  A    between atoms: C16_21  and  C17_22 
REMARK   10  A    between atoms: C17_22  and  N6_26 
REMARK   11  A    between atoms: N6_26  and  C18_28 
ROOT
HETATM    1  N1  UNL     1      72.756  50.401   5.287  1.00  0.00     0.100 N 
HETATM    2  C11 UNL     1      72.733  51.813   5.626  1.00  0.00     0.279 C 
HETATM    3  C12 UNL     1      72.590  51.880   7.128  1.00  0.00     0.034 C 
HETATM    4  C15 UNL     1      73.334  50.671   7.591  1.00  0.00     0.052 C 
HETATM    5  C16 UNL     1      73.147  49.685   6.456  1.00  0.00     0.289 C 
ENDROOT
BRANCH   1   6
HETATM    6  C10 UNL     1      73.689  50.280   4.179  1.00  0.00     0.273 C 
BRANCH   6   7
HETATM    7  C9  UNL     1      73.225  49.368   3.090  1.00  0.00     0.030 C 
BRANCH   7   8
HETATM    8  C8  UNL     1      74.354  48.425   2.743  1.00  0.00     0.002 C 
BRANCH   8   9
HETATM    9  C7  UNL     1      75.063  47.870   3.958  1.00  0.00     0.005 C 
BRANCH   9  10
HETATM   10  C6  UNL     1      76.556  47.921   3.608  1.00  0.00    -0.014 C 
HETATM   11  C5  UNL     1      77.216  49.141   4.164  1.00  0.00     0.005 C 
HETATM   12  C4  UNL     1      78.720  48.954   3.992  1.00  0.00     0.005 C 
HETATM   13  C3  UNL     1      78.990  48.289   2.681  1.00  0.00    -0.015 C 
HETATM   14  C22 UNL     1      77.935  48.700   1.706  1.00  0.00     0.005 C 
HETATM   15  C21 UNL     1      76.646  47.972   2.107  1.00  0.00     0.005 C 
BRANCH  13  16
HETATM   16  C2  UNL     1      80.397  48.505   2.187  1.00  0.00     0.000 C 
HETATM   17  C1  UNL     1      80.349  48.801   0.704  1.00  0.00     0.005 C 
ENDBRANCH  13  16
ENDBRANCH   9  10
ENDBRANCH   8   9
ENDBRANCH   7   8
ENDBRANCH   6   7
ENDBRANCH   1   6
BRANCH   5  18
HETATM   18  C17 UNL     1      72.117  48.694   6.891  1.00  0.00     0.105 C 
HETATM   19  N5  UNL     1      71.239  48.257   6.055  1.00  0.00    -0.387 N 
ATOM     20  H52 UNL     1      71.266  48.603   5.096  1.00  0.00     0.157 HD
ATOM     21  H51 UNL     1      70.536  47.580   6.352  1.00  0.00     0.157 HD
BRANCH  18  22
HETATM   22  N6  UNL     1      72.079  48.217   8.216  1.00  0.00    -0.363 N 
ATOM     23  H6  UNL     1      72.548  48.730   8.963  1.00  0.00     0.161 HD
BRANCH  22  24
HETATM   24  C18 UNL     1      71.374  47.004   8.502  1.00  0.00     0.193 C 
HETATM   25  C19 UNL     1      71.530  46.458   9.907  1.00  0.00     0.157 C 
HETATM   26  N7  UNL     1      71.744  45.127   9.321  1.00  0.00    -0.357 N 
HETATM   27  C20 UNL     1      72.015  45.749   8.048  1.00  0.00     0.242 C 
ATOM     28  H7  UNL     1      71.714  44.169   9.668  1.00  0.00     0.162 HD
HETATM   29  O1  UNL     1      72.585  45.286   7.028  1.00  0.00    -0.271 OA
ENDBRANCH  22  24
ENDBRANCH  18  22
ENDBRANCH   5  18
BRANCH   3  30
HETATM   30  C13 UNL     1      73.178  53.174   7.639  1.00  0.00     0.128 C 
BRANCH  30  31
HETATM   31  N2  UNL     1      72.674  53.454   8.956  1.00  0.00    -0.366 N 
HETATM   32  C14 UNL     1      73.099  54.332   9.768  1.00  0.00     0.196 C 
HETATM   33  N3  UNL     1      74.184  55.218   9.505  1.00  0.00    -0.067 NA
HETATM   34  N4  UNL     1      72.422  54.419  11.033  1.00  0.00    -0.067 NA
ATOM     35  H2  UNL     1      71.889  52.886   9.272  1.00  0.00     0.161 HD
ENDBRANCH  30  31
ENDBRANCH   3  30
TORSDOF 11
ENDMDL
MODEL 3
REMARK VINA RESULT: -9.051327259      3.219      7.855
REMARK  11 active torsions:
REMARK  status: ('A' for Active; 'I' for Inactive)
REMARK    1  A    between atoms: C2_2  and  C3_3 
REMARK    2  A    between atoms: C6_6  and  C7_7 
REMARK    3  A    between atoms: C7_7  and  C8_8 
REMARK    4  A    between atoms: C8_8  and  C9_9 
REMARK    5  A    between atoms: C9_9  and  C10_10 
REMARK    6  A    between atoms: C10_10  and  N1_11 
REMARK    7  A    between atoms: C12_13  and  C13_14 
REMARK    8  A    between atoms: C13_14  and  N2_15 
REMARK    9  A    between atoms: C16_21  and  C17_22 
REMARK   10  A    between atoms: C17_22  and  N6_26 
REMARK   11  A    between atoms: N6_26  and  C18_28 
ROOT
HETATM    1  N1  UNL     1      72.743  50.510   5.459  1.00  0.00     0.100 N 
HETATM    2  C11 UNL     1      72.853  51.876   5.938  1.00  0.00     0.279 C 
HETATM    3  C12 UNL     1      72.829  51.793   7.446  1.00  0.00     0.034 C 
HETATM    4  C15 UNL     1      73.510  50.495   7.723  1.00  0.00     0.052 C 
HETATM    5  C16 UNL     1      73.164  49.649   6.514  1.00  0.00     0.289 C 
ENDROOT
BRANCH   1   6
HETATM    6  C10 UNL     1      73.578  50.443   4.271  1.00  0.00     0.273 C 
BRANCH   6   7
HETATM    7  C9  UNL     1      73.064  49.519   3.217  1.00  0.00     0.030 C 
BRANCH   7   8
HETATM    8  C8  UNL     1      74.203  48.639   2.756  1.00  0.00     0.002 C 
BRANCH   8   9
HETATM    9  C7  UNL     1      74.865  47.880   3.884  1.00  0.00     0.005 C 
BRANCH   9  10
HETATM   10  C6  UNL     1      76.365  47.917   3.565  1.00  0.00    -0.014 C 
HETATM   11  C5  UNL     1      77.012  49.163   4.074  1.00  0.00     0.005 C 
HETATM   12  C4  UNL     1      78.520  48.971   3.944  1.00  0.00     0.005 C 
HETATM   13  C3  UNL     1      78.818  48.243   2.673  1.00  0.00    -0.015 C 
HETATM   14  C22 UNL     1      77.784  48.604   1.657  1.00  0.00     0.005 C 
HETATM   15  C21 UNL     1      76.487  47.895   2.065  1.00  0.00     0.005 C 
BRANCH  13  16
HETATM   16  C2  UNL     1      80.236  48.437   2.199  1.00  0.00     0.000 C 
HETATM   17  C1  UNL     1      80.212  48.754   0.720  1.00  0.00     0.005 C 
ENDBRANCH  13  16
ENDBRANCH   9  10
ENDBRANCH   8   9
ENDBRANCH   7   8
ENDBRANCH   6   7
ENDBRANCH   1   6
BRANCH   5  18
HETATM   18  C17 UNL     1      72.096  48.691   6.931  1.00  0.00     0.105 C 
HETATM   19  N5  UNL     1      71.235  48.261   6.075  1.00  0.00    -0.387 N 
ATOM     20  H52 UNL     1      71.301  48.591   5.112  1.00  0.00     0.157 HD
ATOM     21  H51 UNL     1      70.506  47.607   6.360  1.00  0.00     0.157 HD
BRANCH  18  22
HETATM   22  N6  UNL     1      72.005  48.236   8.262  1.00  0.00    -0.363 N 
ATOM     23  H6  UNL     1      72.407  48.783   9.023  1.00  0.00     0.161 HD
BRANCH  22  24
HETATM   24  C18 UNL     1      71.341  46.997   8.533  1.00  0.00     0.193 C 
HETATM   25  C19 UNL     1      71.514  46.440   9.931  1.00  0.00     0.157 C 
HETATM   26  N7  UNL     1      71.773  45.124   9.330  1.00  0.00    -0.357 N 
HETATM   27  C20 UNL     1      72.024  45.769   8.065  1.00  0.00     0.242 C 
ATOM     28  H7  UNL     1      71.774  44.161   9.666  1.00  0.00     0.162 HD
HETATM   29  O1  UNL     1      72.612  45.337   7.041  1.00  0.00    -0.271 OA
ENDBRANCH  22  24
ENDBRANCH  18  22
ENDBRANCH   5  18
BRANCH   3  30
HETATM   30  C13 UNL     1      73.550  52.983   8.034  1.00  0.00     0.128 C 
BRANCH  30  31
HETATM   31  N2  UNL     1      74.935  52.659   8.247  1.00  0.00    -0.366 N 
HETATM   32  C14 UNL     1      75.944  53.232   7.732  1.00  0.00     0.196 C 
HETATM   33  N3  UNL     1      75.874  54.329   6.824  1.00  0.00    -0.067 NA
HETATM   34  N4  UNL     1      77.234  52.721   8.107  1.00  0.00    -0.067 NA
ATOM     35  H2  UNL     1      75.127  51.885   8.881  1.00  0.00     0.161 HD
ENDBRANCH  30  31
ENDBRANCH   3  30
TORSDOF 11
ENDMDL
MODEL 4
REMARK VINA RESULT: -9.012736134      2.523      5.876
REMARK  11 active torsions:
REMARK  status: ('A' for Active; 'I' for Inactive)
REMARK    1  A    between atoms: C2_2  and  C3_3 
REMARK    2  A    between atoms: C6_6  and  C7_7 
REMARK    3  A    between atoms: C7_7  and  C8_8 
REMARK    4  A    between atoms: C8_8  and  C9_9 
REMARK    5  A    between atoms: C9_9  and  C10_10 
REMARK    6  A    between atoms: C10_10  and  N1_11 
REMARK    7  A    between atoms: C12_13  and  C13_14 
REMARK    8  A    between atoms: C13_14  and  N2_15 
REMARK    9  A    between atoms: C16_21  and  C17_22 
REMARK   10  A    between atoms: C17_22  and  N6_26 
REMARK   11  A    between atoms: N6_26  and  C18_28 
ROOT
HETATM    1  N1  UNL     1      74.772  49.833   3.535  1.00  0.00     0.100 N 
HETATM    2  C11 UNL     1      73.382  49.627   3.900  1.00  0.00     0.279 C 
HETATM    3  C12 UNL     1      73.233  48.146   4.163  1.00  0.00     0.034 C 
HETATM    4  C15 UNL     1      74.563  47.770   4.726  1.00  0.00     0.052 C 
HETATM    5  C16 UNL     1      75.518  48.733   4.050  1.00  0.00     0.289 C 
ENDROOT
BRANCH   1   6
HETATM    6  C10 UNL     1      75.140  51.117   4.106  1.00  0.00     0.273 C 
BRANCH   6   7
HETATM    7  C9  UNL     1      75.806  51.022   5.440  1.00  0.00     0.030 C 
BRANCH   7   8
HETATM    8  C8  UNL     1      74.901  51.657   6.471  1.00  0.00     0.002 C 
BRANCH   8   9
HETATM    9  C7  UNL     1      75.362  51.428   7.892  1.00  0.00     0.005 C 
BRANCH   9  10
HETATM   10  C6  UNL     1      74.107  51.613   8.755  1.00  0.00    -0.014 C 
HETATM   11  C5  UNL     1      73.033  50.639   8.391  1.00  0.00     0.005 C 
HETATM   12  C4  UNL     1      71.960  50.733   9.471  1.00  0.00     0.005 C 
HETATM   13  C3  UNL     1      71.794  52.160   9.883  1.00  0.00    -0.015 C 
HETATM   14  C22 UNL     1      72.083  53.037   8.708  1.00  0.00     0.005 C 
HETATM   15  C21 UNL     1      73.600  53.003   8.486  1.00  0.00     0.005 C 
BRANCH  13  16
HETATM   16  C2  UNL     1      70.467  52.436  10.541  1.00  0.00     0.000 C 
HETATM   17  C1  UNL     1      70.458  51.781  11.905  1.00  0.00     0.005 C 
ENDBRANCH  13  16
ENDBRANCH   9  10
ENDBRANCH   8   9
ENDBRANCH   7   8
ENDBRANCH   6   7
ENDBRANCH   1   6
BRANCH   5  18
HETATM   18  C17 UNL     1      76.232  47.975   2.979  1.00  0.00     0.105 C 
HETATM   19  N5  UNL     1      75.574  47.445   2.006  1.00  0.00    -0.387 N 
ATOM     20  H52 UNL     1      74.561  47.556   1.988  1.00  0.00     0.157 HD
ATOM     21  H51 UNL     1      76.062  46.927   1.275  1.00  0.00     0.157 HD
BRANCH  18  22
HETATM   22  N6  UNL     1      77.633  47.821   3.005  1.00  0.00    -0.363 N 
ATOM     23  H6  UNL     1      78.077  47.262   3.733  1.00  0.00     0.161 HD
BRANCH  22  24
HETATM   24  C18 UNL     1      78.424  48.458   1.996  1.00  0.00     0.193 C 
HETATM   25  C19 UNL     1      79.925  48.285   2.119  1.00  0.00     0.157 C 
HETATM   26  N7  UNL     1      80.070  49.724   1.856  1.00  0.00    -0.357 N 
HETATM   27  C20 UNL     1      78.675  49.906   2.174  1.00  0.00     0.242 C 
ATOM     28  H7  UNL     1      80.834  50.336   1.570  1.00  0.00     0.162 HD
HETATM   29  O1  UNL     1      78.044  50.952   2.471  1.00  0.00    -0.271 OA
ENDBRANCH  22  24
ENDBRANCH  18  22
ENDBRANCH   5  18
BRANCH   3  30
HETATM   30  C13 UNL     1      72.091  47.911   5.123  1.00  0.00     0.128 C 
BRANCH  30  31
HETATM   31  N2  UNL     1      72.228  46.620   5.740  1.00  0.00    -0.366 N 
HETATM   32  C14 UNL     1      72.164  46.351   6.979  1.00  0.00     0.196 C 
HETATM   33  N3  UNL     1      71.939  47.316   8.004  1.00  0.00    -0.067 NA
HETATM   34  N4  UNL     1      72.332  44.972   7.347  1.00  0.00    -0.067 NA
ATOM     35  H2  UNL     1      72.395  45.833   5.113  1.00  0.00     0.161 HD
ENDBRANCH  30  31
ENDBRANCH   3  30
TORSDOF 11
ENDMDL
MODEL 5
REMARK VINA RESULT: -8.984878676      2.734      6.450
REMARK  11 active torsions:
REMARK  status: ('A' for Active; 'I' for Inactive)
REMARK    1  A    between atoms: C2_2  and  C3_3 
REMARK    2  A    between atoms: C6_6  and  C7_7 
REMARK    3  A    between atoms: C7_7  and  C8_8 
REMARK    4  A    between atoms: C8_8  and  C9_9 
REMARK    5  A    between atoms: C9_9  and  C10_10 
REMARK    6  A    between atoms: C10_10  and  N1_11 
REMARK    7  A    between atoms: C12_13  and  C13_14 
REMARK    8  A    between atoms: C13_14  and  N2_15 
REMARK    9  A    between atoms: C16_21  and  C17_22 
REMARK   10  A    between atoms: C17_22  and  N6_26 
REMARK   11  A    between atoms: N6_26  and  C18_28 
ROOT
HETATM    1  N1  UNL     1      74.338  49.430   2.329  1.00  0.00     0.100 N 
HETATM    2  C11 UNL     1      73.047  49.112   2.913  1.00  0.00     0.279 C 
HETATM    3  C12 UNL     1      73.276  47.917   3.807  1.00  0.00     0.034 C 
HETATM    4  C15 UNL     1      74.664  48.134   4.311  1.00  0.00     0.052 C 
HETATM    5  C16 UNL     1      75.341  48.873   3.174  1.00  0.00     0.289 C 
ENDROOT
BRANCH   1   6
HETATM    6  C10 UNL     1      74.379  50.880   2.237  1.00  0.00     0.273 C 
BRANCH   6   7
HETATM    7  C9  UNL     1      73.365  51.573   3.087  1.00  0.00     0.030 C 
BRANCH   7   8
HETATM    8  C8  UNL     1      74.065  52.648   3.885  1.00  0.00     0.002 C 
BRANCH   8   9
HETATM    9  C7  UNL     1      74.961  52.097   4.971  1.00  0.00     0.005 C 
BRANCH   9  10
HETATM   10  C6  UNL     1      74.009  51.655   6.091  1.00  0.00    -0.014 C 
HETATM   11  C5  UNL     1      73.244  52.807   6.657  1.00  0.00     0.005 C 
HETATM   12  C4  UNL     1      72.155  52.224   7.553  1.00  0.00     0.005 C 
HETATM   13  C3  UNL     1      72.700  51.042   8.288  1.00  0.00    -0.015 C 
HETATM   14  C22 UNL     1      74.159  51.254   8.529  1.00  0.00     0.005 C 
HETATM   15  C21 UNL     1      74.866  51.071   7.180  1.00  0.00     0.005 C 
BRANCH  13  16
HETATM   16  C2  UNL     1      71.917  50.708   9.532  1.00  0.00     0.000 C 
HETATM   17  C1  UNL     1      71.322  51.984  10.087  1.00  0.00     0.005 C 
ENDBRANCH  13  16
ENDBRANCH   9  10
ENDBRANCH   8   9
ENDBRANCH   7   8
ENDBRANCH   6   7
ENDBRANCH   1   6
BRANCH   5  18
HETATM   18  C17 UNL     1      76.210  47.890   2.459  1.00  0.00     0.105 C 
HETATM   19  N5  UNL     1      75.701  47.064   1.613  1.00  0.00    -0.387 N 
ATOM     20  H52 UNL     1      74.695  47.098   1.445  1.00  0.00     0.157 HD
ATOM     21  H51 UNL     1      76.294  46.393   1.125  1.00  0.00     0.157 HD
BRANCH  18  22
HETATM   22  N6  UNL     1      77.600  47.843   2.691  1.00  0.00    -0.363 N 
ATOM     23  H6  UNL     1      77.971  47.339   3.496  1.00  0.00     0.161 HD
BRANCH  22  24
HETATM   24  C18 UNL     1      78.483  48.509   1.783  1.00  0.00     0.193 C 
HETATM   25  C19 UNL     1      79.963  48.387   2.083  1.00  0.00     0.157 C 
HETATM   26  N7  UNL     1      80.089  49.832   1.838  1.00  0.00    -0.357 N 
HETATM   27  C20 UNL     1      78.661  49.965   1.988  1.00  0.00     0.242 C 
ATOM     28  H7  UNL     1      80.860  50.469   1.644  1.00  0.00     0.162 HD
HETATM   29  O1  UNL     1      77.964  50.988   2.207  1.00  0.00    -0.271 OA
ENDBRANCH  22  24
ENDBRANCH  18  22
ENDBRANCH   5  18
BRANCH   3  30
HETATM   30  C13 UNL     1      72.239  47.896   4.906  1.00  0.00     0.128 C 
BRANCH  30  31
HETATM   31  N2  UNL     1      72.288  46.638   5.601  1.00  0.00    -0.366 N 
HETATM   32  C14 UNL     1      72.323  46.457   6.857  1.00  0.00     0.196 C 
HETATM   33  N3  UNL     1      72.322  47.504   7.824  1.00  0.00    -0.067 NA
HETATM   34  N4  UNL     1      72.367  45.093   7.308  1.00  0.00    -0.067 NA
ATOM     35  H2  UNL     1      72.294  45.799   5.021  1.00  0.00     0.161 HD
ENDBRANCH  30  31
ENDBRANCH   3  30
TORSDOF 11
ENDMDL
