MODEL 1
REMARK VINA RESULT: -6.373343602      0.000      0.000
REMARK  6 active torsions:
REMARK  status: ('A' for Active; 'I' for Inactive)
REMARK    1  A    between atoms: N1_1  and  C1_4 
REMARK    2  A    between atoms: C2_7  and  N3_8 
REMARK    3  A    between atoms: C4_13  and  N5_14 
REMARK    4  A    between atoms: C6_20  and  C7_21 
REMARK    5  A    between atoms: C7_21  and  C8_22 
REMARK    6  A    between atoms: C8_22  and  C9_23 
ROOT
HETATM    1  N3  UNL     1      25.422 -17.607  13.020  1.00  0.00    -0.079 N 
HETATM    2  C3  UNL     1      24.719 -16.559  13.510  1.00  0.00     0.348 C 
HETATM    3  O1  UNL     1      24.846 -16.344  14.755  1.00  0.00    -0.245 OA
HETATM    4  N4  UNL     1      23.896 -15.697  12.877  1.00  0.00    -0.289 N 
ATOM      5  H4  UNL     1      23.661 -14.833  13.365  1.00  0.00     0.172 HD
HETATM    6  C4  UNL     1      23.361 -15.882  11.661  1.00  0.00     0.173 C 
HETATM    7  C5  UNL     1      23.709 -16.818  10.681  1.00  0.00     0.310 C 
HETATM    8  O2  UNL     1      22.928 -17.013   9.742  1.00  0.00    -0.263 OA
HETATM    9  N6  UNL     1      24.825 -17.544  10.650  1.00  0.00    -0.109 N 
HETATM   10  C6  UNL     1      25.351 -18.037   9.493  1.00  0.00     0.054 A 
HETATM   11  C10 UNL     1      26.498 -18.713   9.940  1.00  0.00     0.132 A 
HETATM   12  N8  UNL     1      26.640 -18.627  11.251  1.00  0.00    -0.199 N 
ATOM     13  H8  UNL     1      27.392 -19.034  11.808  1.00  0.00     0.183 HD
HETATM   14  C11 UNL     1      25.611 -17.906  11.709  1.00  0.00     0.704 A 
ENDROOT
BRANCH   1  15
HETATM   15  C2  UNL     1      26.025 -18.484  13.948  1.00  0.00     0.152 A 
HETATM   16  N2  UNL     1      26.834 -17.998  14.906  1.00  0.00    -0.176 N 
HETATM   17  C1  UNL     1      27.444 -18.738  15.820  1.00  0.00     0.678 A 
ATOM     18  H2  UNL     1      26.989 -16.990  14.931  1.00  0.00     0.186 HD
HETATM   19  N10 UNL     1      27.252 -20.069  15.802  1.00  0.00    -0.179 N 
HETATM   20  C13 UNL     1      26.445 -20.615  14.858  1.00  0.00     0.135 A 
ATOM     21  H10 UNL     1      27.710 -20.663  16.493  1.00  0.00     0.185 HD
HETATM   22  C12 UNL     1      25.805 -19.843  13.901  1.00  0.00     0.096 A 
HETATM   23  N9  UNL     1      26.258 -22.023  14.860  1.00  0.00    -0.082 NA
BRANCH  17  24
HETATM   24  N1  UNL     1      28.224 -18.244  16.739  1.00  0.00    -0.234 N 
ATOM     25  H12 UNL     1      27.814 -17.612  17.427  1.00  0.00     0.174 HD
ATOM     26  H11 UNL     1      29.218 -18.458  16.806  1.00  0.00     0.174 HD
ENDBRANCH  17  24
ENDBRANCH   1  15
BRANCH   6  27
HETATM   27  N5  UNL     1      22.389 -15.122  11.286  1.00  0.00    -0.381 N 
ATOM     28  H52 UNL     1      21.852 -15.531  10.522  1.00  0.00     0.157 HD
ATOM     29  H51 UNL     1      22.250 -14.230  11.760  1.00  0.00     0.157 HD
ENDBRANCH   6  27
BRANCH  10  30
HETATM   30  C7  UNL     1      24.825 -17.920   8.124  1.00  0.00     0.069 C 
BRANCH  30  31
HETATM   31  C8  UNL     1      25.505 -16.939   7.237  1.00  0.00     0.105 C 
BRANCH  31  32
HETATM   32  C9  UNL     1      24.707 -15.811   6.749  1.00  0.00     0.231 C 
HETATM   33  N7  UNL     1      24.413 -15.791   5.337  1.00  0.00    -0.062 NA
HETATM   34  O3  UNL     1      24.266 -14.883   7.424  1.00  0.00    -0.277 OA
ENDBRANCH  31  32
ENDBRANCH  30  31
ENDBRANCH  10  30
TORSDOF 6
ENDMDL
MODEL 2
REMARK VINA RESULT: -5.827082708      0.527      1.580
REMARK  6 active torsions:
REMARK  status: ('A' for Active; 'I' for Inactive)
REMARK    1  A    between atoms: N1_1  and  C1_4 
REMARK    2  A    between atoms: C2_7  and  N3_8 
REMARK    3  A    between atoms: C4_13  and  N5_14 
REMARK    4  A    between atoms: C6_20  and  C7_21 
REMARK    5  A    between atoms: C7_21  and  C8_22 
REMARK    6  A    between atoms: C8_22  and  C9_23 
ROOT
HETATM    1  N3  UNL     1      25.507 -17.571  13.055  1.00  0.00    -0.079 N 
HETATM    2  C3  UNL     1      24.779 -16.539  13.543  1.00  0.00     0.348 C 
HETATM    3  O1  UNL     1      24.917 -16.307  14.784  1.00  0.00    -0.245 OA
HETATM    4  N4  UNL     1      23.923 -15.709  12.913  1.00  0.00    -0.289 N 
ATOM      5  H4  UNL     1      23.669 -14.847  13.395  1.00  0.00     0.172 HD
HETATM    6  C4  UNL     1      23.377 -15.923  11.706  1.00  0.00     0.173 C 
HETATM    7  C5  UNL     1      23.739 -16.858  10.731  1.00  0.00     0.310 C 
HETATM    8  O2  UNL     1      22.953 -17.086   9.805  1.00  0.00    -0.263 OA
HETATM    9  N6  UNL     1      24.876 -17.552  10.693  1.00  0.00    -0.109 N 
HETATM   10  C6  UNL     1      25.401 -18.041   9.533  1.00  0.00     0.054 A 
HETATM   11  C10 UNL     1      26.574 -18.677   9.971  1.00  0.00     0.132 A 
HETATM   12  N8  UNL     1      26.731 -18.574  11.280  1.00  0.00    -0.199 N 
ATOM     13  H8  UNL     1      27.501 -18.953  11.830  1.00  0.00     0.183 HD
HETATM   14  C11 UNL     1      25.687 -17.879  11.744  1.00  0.00     0.704 A 
ENDROOT
BRANCH   1  15
HETATM   15  C2  UNL     1      26.148 -18.420  13.983  1.00  0.00     0.152 A 
HETATM   16  N2  UNL     1      25.807 -19.719  14.056  1.00  0.00    -0.176 N 
HETATM   17  C1  UNL     1      26.349 -20.592  14.891  1.00  0.00     0.678 A 
ATOM     18  H2  UNL     1      25.079 -20.055  13.424  1.00  0.00     0.186 HD
HETATM   19  N10 UNL     1      27.309 -20.167  15.731  1.00  0.00    -0.179 N 
HETATM   20  C13 UNL     1      27.695 -18.866  15.702  1.00  0.00     0.135 A 
ATOM     21  H10 UNL     1      27.744 -20.817  16.386  1.00  0.00     0.185 HD
HETATM   22  C12 UNL     1      27.130 -17.950  14.829  1.00  0.00     0.096 A 
HETATM   23  N9  UNL     1      28.711 -18.441  16.599  1.00  0.00    -0.082 NA
BRANCH  17  24
HETATM   24  N1  UNL     1      26.002 -21.846  14.944  1.00  0.00    -0.234 N 
ATOM     25  H12 UNL     1      25.028 -22.083  14.749  1.00  0.00     0.174 HD
ATOM     26  H11 UNL     1      26.651 -22.600  15.167  1.00  0.00     0.174 HD
ENDBRANCH  17  24
ENDBRANCH   1  15
BRANCH   6  27
HETATM   27  N5  UNL     1      22.378 -15.196  11.337  1.00  0.00    -0.381 N 
ATOM     28  H52 UNL     1      22.424 -14.252  11.722  1.00  0.00     0.157 HD
ATOM     29  H51 UNL     1      21.670 -15.605  10.729  1.00  0.00     0.157 HD
ENDBRANCH   6  27
BRANCH  10  30
HETATM   30  C7  UNL     1      24.854 -17.954   8.170  1.00  0.00     0.069 C 
BRANCH  30  31
HETATM   31  C8  UNL     1      25.510 -16.983   7.256  1.00  0.00     0.105 C 
BRANCH  31  32
HETATM   32  C9  UNL     1      24.701 -15.855   6.784  1.00  0.00     0.231 C 
HETATM   33  N7  UNL     1      24.388 -15.832   5.375  1.00  0.00    -0.062 NA
HETATM   34  O3  UNL     1      24.267 -14.932   7.468  1.00  0.00    -0.277 OA
ENDBRANCH  31  32
ENDBRANCH  30  31
ENDBRANCH  10  30
TORSDOF 6
ENDMDL
MODEL 3
REMARK VINA RESULT: -5.391086663      2.548      4.021
REMARK  6 active torsions:
REMARK  status: ('A' for Active; 'I' for Inactive)
REMARK    1  A    between atoms: N1_1  and  C1_4 
REMARK    2  A    between atoms: C2_7  and  N3_8 
REMARK    3  A    between atoms: C4_13  and  N5_14 
REMARK    4  A    between atoms: C6_20  and  C7_21 
REMARK    5  A    between atoms: C7_21  and  C8_22 
REMARK    6  A    between atoms: C8_22  and  C9_23 
ROOT
HETATM    1  N3  UNL     1      26.022 -18.756  13.643  1.00  0.00    -0.079 N 
HETATM    2  C3  UNL     1      25.775 -19.903  12.965  1.00  0.00     0.348 C 
HETATM    3  O1  UNL     1      26.158 -20.971  13.534  1.00  0.00    -0.245 OA
HETATM    4  N4  UNL     1      25.178 -20.090  11.771  1.00  0.00    -0.289 N 
ATOM      5  H4  UNL     1      24.863 -21.035  11.550  1.00  0.00     0.172 HD
HETATM    6  C4  UNL     1      24.965 -19.140  10.849  1.00  0.00     0.173 C 
HETATM    7  C5  UNL     1      25.046 -17.750  10.985  1.00  0.00     0.310 C 
HETATM    8  O2  UNL     1      25.082 -17.054   9.964  1.00  0.00    -0.263 OA
HETATM    9  N6  UNL     1      25.091 -17.075  12.132  1.00  0.00    -0.109 N 
HETATM   10  C6  UNL     1      24.672 -15.781  12.242  1.00  0.00     0.054 A 
HETATM   11  C10 UNL     1      24.896 -15.501  13.600  1.00  0.00     0.132 A 
HETATM   12  N8  UNL     1      25.403 -16.540  14.241  1.00  0.00    -0.199 N 
ATOM     13  H8  UNL     1      25.650 -16.581  15.229  1.00  0.00     0.183 HD
HETATM   14  C11 UNL     1      25.531 -17.525  13.345  1.00  0.00     0.704 A 
ENDROOT
BRANCH   1  15
HETATM   15  C2  UNL     1      26.870 -18.829  14.770  1.00  0.00     0.152 A 
HETATM   16  N2  UNL     1      26.375 -19.209  15.961  1.00  0.00    -0.176 N 
HETATM   17  C1  UNL     1      27.088 -19.308  17.073  1.00  0.00     0.678 A 
ATOM     18  H2  UNL     1      25.382 -19.436  16.012  1.00  0.00     0.186 HD
HETATM   19  N10 UNL     1      28.399 -19.012  17.024  1.00  0.00    -0.179 N 
HETATM   20  C13 UNL     1      28.953 -18.623  15.848  1.00  0.00     0.135 A 
ATOM     21  H10 UNL     1      28.972 -19.078  17.865  1.00  0.00     0.185 HD
HETATM   22  C12 UNL     1      28.210 -18.519  14.683  1.00  0.00     0.096 A 
HETATM   23  N9  UNL     1      30.340 -18.316  15.822  1.00  0.00    -0.082 NA
BRANCH  17  24
HETATM   24  N1  UNL     1      26.587 -19.679  18.216  1.00  0.00    -0.234 N 
ATOM     25  H12 UNL     1      25.656 -19.341  18.463  1.00  0.00     0.174 HD
ATOM     26  H11 UNL     1      27.075 -20.286  18.873  1.00  0.00     0.174 HD
ENDBRANCH  17  24
ENDBRANCH   1  15
BRANCH   6  27
HETATM   27  N5  UNL     1      24.635 -19.494   9.654  1.00  0.00    -0.381 N 
ATOM     28  H52 UNL     1      25.427 -19.465   9.011  1.00  0.00     0.157 HD
ATOM     29  H51 UNL     1      23.668 -19.757   9.466  1.00  0.00     0.157 HD
ENDBRANCH   6  27
BRANCH  10  30
HETATM   30  C7  UNL     1      24.152 -14.893  11.191  1.00  0.00     0.069 C 
BRANCH  30  31
HETATM   31  C8  UNL     1      22.681 -14.680  11.176  1.00  0.00     0.105 C 
BRANCH  31  32
HETATM   32  C9  UNL     1      22.179 -13.434  11.762  1.00  0.00     0.231 C 
HETATM   33  N7  UNL     1      21.707 -13.506  13.123  1.00  0.00    -0.062 NA
HETATM   34  O3  UNL     1      22.120 -12.339  11.208  1.00  0.00    -0.277 OA
ENDBRANCH  31  32
ENDBRANCH  30  31
ENDBRANCH  10  30
TORSDOF 6
ENDMDL
MODEL 4
REMARK VINA RESULT: -4.627945146      1.060      1.512
REMARK  6 active torsions:
REMARK  status: ('A' for Active; 'I' for Inactive)
REMARK    1  A    between atoms: N1_1  and  C1_4 
REMARK    2  A    between atoms: C2_7  and  N3_8 
REMARK    3  A    between atoms: C4_13  and  N5_14 
REMARK    4  A    between atoms: C6_20  and  C7_21 
REMARK    5  A    between atoms: C7_21  and  C8_22 
REMARK    6  A    between atoms: C8_22  and  C9_23 
ROOT
HETATM    1  N3  UNL     1      25.891 -17.259  13.228  1.00  0.00    -0.079 N 
HETATM    2  C3  UNL     1      25.027 -16.337  13.715  1.00  0.00     0.348 C 
HETATM    3  O1  UNL     1      25.213 -15.994  14.923  1.00  0.00    -0.245 OA
HETATM    4  N4  UNL     1      23.991 -15.719  13.114  1.00  0.00    -0.289 N 
ATOM      5  H4  UNL     1      23.622 -14.881  13.564  1.00  0.00     0.172 HD
HETATM    6  C4  UNL     1      23.404 -16.112  11.974  1.00  0.00     0.173 C 
HETATM    7  C5  UNL     1      23.855 -17.039  11.028  1.00  0.00     0.310 C 
HETATM    8  O2  UNL     1      23.055 -17.469  10.189  1.00  0.00    -0.263 OA
HETATM    9  N6  UNL     1      25.092 -17.524  10.932  1.00  0.00    -0.109 N 
HETATM   10  C6  UNL     1      25.609 -17.998   9.763  1.00  0.00     0.054 A 
HETATM   11  C10 UNL     1      26.906 -18.386  10.134  1.00  0.00     0.132 A 
HETATM   12  N8  UNL     1      27.139 -18.160  11.416  1.00  0.00    -0.199 N 
ATOM     13  H8  UNL     1      28.004 -18.356  11.919  1.00  0.00     0.183 HD
HETATM   14  C11 UNL     1      26.024 -17.626  11.927  1.00  0.00     0.704 A 
ENDROOT
BRANCH   1  15
HETATM   15  C2  UNL     1      26.742 -17.912  14.146  1.00  0.00     0.152 A 
HETATM   16  N2  UNL     1      26.227 -18.507  15.235  1.00  0.00    -0.176 N 
HETATM   17  C1  UNL     1      26.941 -19.144  16.152  1.00  0.00     0.678 A 
ATOM     18  H2  UNL     1      25.216 -18.466  15.366  1.00  0.00     0.186 HD
HETATM   19  N10 UNL     1      28.275 -19.207  15.997  1.00  0.00    -0.179 N 
HETATM   20  C13 UNL     1      28.851 -18.624  14.915  1.00  0.00     0.135 A 
ATOM     21  H10 UNL     1      28.850 -19.689  16.687  1.00  0.00     0.185 HD
HETATM   22  C12 UNL     1      28.106 -17.959  13.954  1.00  0.00     0.096 A 
HETATM   23  N9  UNL     1      30.262 -18.705  14.773  1.00  0.00    -0.082 NA
BRANCH  17  24
HETATM   24  N1  UNL     1      26.419 -19.713  17.201  1.00  0.00    -0.234 N 
ATOM     25  H12 UNL     1      25.544 -19.337  17.565  1.00  0.00     0.174 HD
ATOM     26  H11 UNL     1      26.840 -20.513  17.673  1.00  0.00     0.174 HD
ENDBRANCH  17  24
ENDBRANCH   1  15
BRANCH   6  27
HETATM   27  N5  UNL     1      22.265 -15.601  11.650  1.00  0.00    -0.381 N 
ATOM     28  H52 UNL     1      22.071 -15.692  10.653  1.00  0.00     0.157 HD
ATOM     29  H51 UNL     1      21.692 -15.175  12.378  1.00  0.00     0.157 HD
ENDBRANCH   6  27
BRANCH  10  30
HETATM   30  C7  UNL     1      24.954 -18.109   8.449  1.00  0.00     0.069 C 
BRANCH  30  31
HETATM   31  C8  UNL     1      25.512 -17.264   7.361  1.00  0.00     0.105 C 
BRANCH  31  32
HETATM   32  C9  UNL     1      24.708 -16.120   6.922  1.00  0.00     0.231 C 
HETATM   33  N7  UNL     1      24.240 -16.146   5.557  1.00  0.00    -0.062 NA
HETATM   34  O3  UNL     1      24.396 -15.145   7.600  1.00  0.00    -0.277 OA
ENDBRANCH  31  32
ENDBRANCH  30  31
ENDBRANCH  10  30
TORSDOF 6
ENDMDL
MODEL 5
REMARK VINA RESULT: -4.364274132      2.199      6.781
REMARK  6 active torsions:
REMARK  status: ('A' for Active; 'I' for Inactive)
REMARK    1  A    between atoms: N1_1  and  C1_4 
REMARK    2  A    between atoms: C2_7  and  N3_8 
REMARK    3  A    between atoms: C4_13  and  N5_14 
REMARK    4  A    between atoms: C6_20  and  C7_21 
REMARK    5  A    between atoms: C7_21  and  C8_22 
REMARK    6  A    between atoms: C8_22  and  C9_23 
ROOT
HETATM    1  N3  UNL     1      24.799 -17.555  11.254  1.00  0.00    -0.079 N 
HETATM    2  C3  UNL     1      23.500 -17.616  11.632  1.00  0.00     0.348 C 
HETATM    3  O1  UNL     1      22.655 -17.680  10.687  1.00  0.00    -0.245 OA
HETATM    4  N4  UNL     1      22.957 -17.620  12.867  1.00  0.00    -0.289 N 
ATOM      5  H4  UNL     1      21.986 -17.922  12.949  1.00  0.00     0.172 HD
HETATM    6  C4  UNL     1      23.586 -17.261  13.996  1.00  0.00     0.173 C 
HETATM    7  C5  UNL     1      24.954 -17.067  14.216  1.00  0.00     0.310 C 
HETATM    8  O2  UNL     1      25.314 -16.477  15.241  1.00  0.00    -0.263 OA
HETATM    9  N6  UNL     1      25.942 -17.462  13.414  1.00  0.00    -0.109 N 
HETATM   10  C6  UNL     1      27.204 -17.709  13.867  1.00  0.00     0.054 A 
HETATM   11  C10 UNL     1      27.880 -18.095  12.698  1.00  0.00     0.132 A 
HETATM   12  N8  UNL     1      27.086 -18.078  11.642  1.00  0.00    -0.199 N 
ATOM     13  H8  UNL     1      27.345 -18.318  10.685  1.00  0.00     0.183 HD
HETATM   14  C11 UNL     1      25.880 -17.688  12.067  1.00  0.00     0.704 A 
ENDROOT
BRANCH   1  15
HETATM   15  C2  UNL     1      25.076 -17.334   9.888  1.00  0.00     0.152 A 
HETATM   16  N2  UNL     1      25.509 -18.345   9.116  1.00  0.00    -0.176 N 
HETATM   17  C1  UNL     1      25.795 -18.238   7.827  1.00  0.00     0.678 A 
ATOM     18  H2  UNL     1      25.627 -19.260   9.553  1.00  0.00     0.186 HD
HETATM   19  N10 UNL     1      25.646 -17.040   7.234  1.00  0.00    -0.179 N 
HETATM   20  C13 UNL     1      25.211 -15.982   7.964  1.00  0.00     0.135 A 
ATOM     21  H10 UNL     1      25.859 -16.927   6.243  1.00  0.00     0.185 HD
HETATM   22  C12 UNL     1      24.911 -16.093   9.313  1.00  0.00     0.096 A 
HETATM   23  N9  UNL     1      25.061 -14.727   7.315  1.00  0.00    -0.082 NA
BRANCH  17  24
HETATM   24  N1  UNL     1      26.214 -19.233   7.099  1.00  0.00    -0.234 N 
ATOM     25  H12 UNL     1      26.361 -20.133   7.556  1.00  0.00     0.174 HD
ATOM     26  H11 UNL     1      26.401 -19.158   6.099  1.00  0.00     0.174 HD
ENDBRANCH  17  24
ENDBRANCH   1  15
BRANCH   6  27
HETATM   27  N5  UNL     1      22.887 -17.052  15.059  1.00  0.00    -0.381 N 
ATOM     28  H52 UNL     1      23.057 -17.756  15.777  1.00  0.00     0.157 HD
ATOM     29  H51 UNL     1      22.261 -16.248  15.087  1.00  0.00     0.157 HD
ENDBRANCH   6  27
BRANCH  10  30
HETATM   30  C7  UNL     1      27.732 -17.568  15.233  1.00  0.00     0.069 C 
BRANCH  30  31
HETATM   31  C8  UNL     1      28.561 -18.694  15.740  1.00  0.00     0.105 C 
BRANCH  31  32
HETATM   32  C9  UNL     1      29.976 -18.708  15.359  1.00  0.00     0.231 C 
HETATM   33  N7  UNL     1      30.623 -19.997  15.328  1.00  0.00    -0.062 NA
HETATM   34  O3  UNL     1      30.662 -17.731  15.067  1.00  0.00    -0.277 OA
ENDBRANCH  31  32
ENDBRANCH  30  31
ENDBRANCH  10  30
TORSDOF 6
ENDMDL
