MODEL 1
REMARK VINA RESULT: -6.506816922      0.000      0.000
REMARK  3 active torsions:
REMARK  status: ('A' for Active; 'I' for Inactive)
REMARK    1  A    between atoms: C3_9  and  N4_10 
REMARK    2  A    between atoms: N4_10  and  O2_12 
REMARK    3  A    between atoms: O2_12  and  C4_13 
ROOT
HETATM    1  C1  UNL     1     -16.139  58.442   9.987  1.00  0.00     0.180 C 
HETATM    2  N1  UNL     1     -15.044  58.808  10.863  1.00  0.00    -0.133 N 
HETATM    3  C2  UNL     1     -14.936  58.710  12.199  1.00  0.00     0.355 A 
HETATM    4  O1  UNL     1     -15.829  58.252  12.941  1.00  0.00    -0.244 OA
HETATM    5  N2  UNL     1     -13.728  59.176  12.593  1.00  0.00    -0.236 N 
ATOM      6  H2  UNL     1     -13.369  59.224  13.546  1.00  0.00     0.192 HD
HETATM    7  N3  UNL     1     -13.111  59.556  11.495  1.00  0.00    -0.126 N 
ATOM      8  H3  UNL     1     -12.173  59.955  11.461  1.00  0.00     0.206 HD
HETATM    9  C3  UNL     1     -13.890  59.343  10.426  1.00  0.00     0.723 A 
ENDROOT
BRANCH   9  10
HETATM   10  N4  UNL     1     -13.573  59.608   9.221  1.00  0.00    -0.086 N 
ATOM     11  H4  UNL     1     -14.327  59.667   8.538  1.00  0.00     0.214 HD
BRANCH  10  12
HETATM   12  O2  UNL     1     -12.305  59.820   8.775  1.00  0.00    -0.190 OA
BRANCH  12  13
HETATM   13  C4  UNL     1     -11.697  58.921   7.897  1.00  0.00     0.250 C 
HETATM   14  N5  UNL     1     -10.488  58.573   8.188  1.00  0.00    -0.366 N 
ATOM     15  H52 UNL     1      -9.998  58.929   9.009  1.00  0.00     0.159 HD
ATOM     16  H51 UNL     1     -10.043  57.916   7.547  1.00  0.00     0.159 HD
HETATM   17  N6  UNL     1     -12.376  58.427   6.757  1.00  0.00    -0.055 NA
ENDBRANCH  12  13
ENDBRANCH  10  12
ENDBRANCH   9  10
TORSDOF 3
ENDMDL
MODEL 2
REMARK VINA RESULT: -6.491605338      2.064      4.233
REMARK  3 active torsions:
REMARK  status: ('A' for Active; 'I' for Inactive)
REMARK    1  A    between atoms: C3_9  and  N4_10 
REMARK    2  A    between atoms: N4_10  and  O2_12 
REMARK    3  A    between atoms: O2_12  and  C4_13 
ROOT
HETATM    1  C1  UNL     1     -16.265  59.454  10.730  1.00  0.00     0.180 C 
HETATM    2  N1  UNL     1     -15.005  59.338  10.024  1.00  0.00    -0.133 N 
HETATM    3  C2  UNL     1     -14.762  59.156   8.714  1.00  0.00     0.355 A 
HETATM    4  O1  UNL     1     -15.652  59.053   7.845  1.00  0.00    -0.244 OA
HETATM    5  N2  UNL     1     -13.426  59.106   8.503  1.00  0.00    -0.236 N 
ATOM      6  H2  UNL     1     -12.950  58.978   7.610  1.00  0.00     0.192 HD
HETATM    7  N3  UNL     1     -12.866  59.257   9.684  1.00  0.00    -0.126 N 
ATOM      8  H3  UNL     1     -11.861  59.263   9.856  1.00  0.00     0.206 HD
HETATM    9  C3  UNL     1     -13.806  59.400  10.628  1.00  0.00     0.723 A 
ENDROOT
BRANCH   9  10
HETATM   10  N4  UNL     1     -13.578  59.564  11.871  1.00  0.00    -0.086 N 
ATOM     11  H4  UNL     1     -13.774  60.483  12.268  1.00  0.00     0.214 HD
BRANCH  10  12
HETATM   12  O2  UNL     1     -13.095  58.608  12.710  1.00  0.00    -0.190 OA
BRANCH  12  13
HETATM   13  C4  UNL     1     -13.917  57.578  13.170  1.00  0.00     0.250 C 
HETATM   14  N5  UNL     1     -13.438  56.383  13.072  1.00  0.00    -0.366 N 
ATOM     15  H52 UNL     1     -12.515  56.193  12.682  1.00  0.00     0.159 HD
ATOM     16  H51 UNL     1     -14.039  55.630  13.408  1.00  0.00     0.159 HD
HETATM   17  N6  UNL     1     -15.199  57.841  13.711  1.00  0.00    -0.055 NA
ENDBRANCH  12  13
ENDBRANCH  10  12
ENDBRANCH   9  10
TORSDOF 3
ENDMDL
MODEL 3
REMARK VINA RESULT: -6.457477755      2.715      3.976
REMARK  3 active torsions:
REMARK  status: ('A' for Active; 'I' for Inactive)
REMARK    1  A    between atoms: C3_9  and  N4_10 
REMARK    2  A    between atoms: N4_10  and  O2_12 
REMARK    3  A    between atoms: O2_12  and  C4_13 
ROOT
HETATM    1  C1  UNL     1     -16.479  58.716  12.593  1.00  0.00     0.180 C 
HETATM    2  N1  UNL     1     -15.333  58.885  11.722  1.00  0.00    -0.133 N 
HETATM    3  C2  UNL     1     -14.021  58.911  12.014  1.00  0.00     0.355 A 
HETATM    4  O1  UNL     1     -13.558  58.783  13.166  1.00  0.00    -0.244 OA
HETATM    5  N2  UNL     1     -13.306  59.094  10.879  1.00  0.00    -0.236 N 
ATOM      6  H2  UNL     1     -12.291  59.154  10.795  1.00  0.00     0.192 HD
HETATM    7  N3  UNL     1     -14.187  59.178   9.906  1.00  0.00    -0.126 N 
ATOM      8  H3  UNL     1     -13.958  59.318   8.922  1.00  0.00     0.206 HD
HETATM    9  C3  UNL     1     -15.429  59.054  10.392  1.00  0.00     0.723 A 
ENDROOT
BRANCH   9  10
HETATM   10  N4  UNL     1     -16.497  59.093   9.697  1.00  0.00    -0.086 N 
ATOM     11  H4  UNL     1     -17.346  59.422  10.156  1.00  0.00     0.214 HD
BRANCH  10  12
HETATM   12  O2  UNL     1     -16.592  58.731   8.389  1.00  0.00    -0.190 OA
BRANCH  12  13
HETATM   13  C4  UNL     1     -17.721  58.062   7.912  1.00  0.00     0.250 C 
HETATM   14  N5  UNL     1     -18.853  58.651   8.106  1.00  0.00    -0.366 N 
ATOM     15  H52 UNL     1     -18.929  59.551   8.580  1.00  0.00     0.159 HD
ATOM     16  H51 UNL     1     -19.679  58.162   7.758  1.00  0.00     0.159 HD
HETATM   17  N6  UNL     1     -17.617  56.812   7.255  1.00  0.00    -0.055 NA
ENDBRANCH  12  13
ENDBRANCH  10  12
ENDBRANCH   9  10
TORSDOF 3
ENDMDL
MODEL 4
REMARK VINA RESULT: -6.434531403      2.089      4.904
REMARK  3 active torsions:
REMARK  status: ('A' for Active; 'I' for Inactive)
REMARK    1  A    between atoms: C3_9  and  N4_10 
REMARK    2  A    between atoms: N4_10  and  O2_12 
REMARK    3  A    between atoms: O2_12  and  C4_13 
ROOT
HETATM    1  C1  UNL     1     -14.765  58.424   6.282  1.00  0.00     0.180 C 
HETATM    2  N1  UNL     1     -13.804  58.706   7.330  1.00  0.00    -0.133 N 
HETATM    3  C2  UNL     1     -12.462  58.633   7.315  1.00  0.00     0.355 A 
HETATM    4  O1  UNL     1     -11.792  58.285   6.322  1.00  0.00    -0.244 OA
HETATM    5  N2  UNL     1     -11.974  58.990   8.526  1.00  0.00    -0.236 N 
ATOM      6  H2  UNL     1     -10.994  59.029   8.806  1.00  0.00     0.192 HD
HETATM    7  N3  UNL     1     -13.021  59.278   9.268  1.00  0.00    -0.126 N 
ATOM      8  H3  UNL     1     -12.980  59.583  10.240  1.00  0.00     0.206 HD
HETATM    9  C3  UNL     1     -14.149  59.113   8.564  1.00  0.00     0.723 A 
ENDROOT
BRANCH   9  10
HETATM   10  N4  UNL     1     -15.327  59.313   9.008  1.00  0.00    -0.086 N 
ATOM     11  H4  UNL     1     -15.810  60.156   8.699  1.00  0.00     0.214 HD
BRANCH  10  12
HETATM   12  O2  UNL     1     -15.991  58.487   9.862  1.00  0.00    -0.190 OA
BRANCH  12  13
HETATM   13  C4  UNL     1     -16.069  58.781  11.224  1.00  0.00     0.250 C 
HETATM   14  N5  UNL     1     -16.589  59.923  11.529  1.00  0.00    -0.366 N 
ATOM     15  H52 UNL     1     -16.925  60.578  10.823  1.00  0.00     0.159 HD
ATOM     16  H51 UNL     1     -16.647  60.138  12.525  1.00  0.00     0.159 HD
HETATM   17  N6  UNL     1     -15.604  57.871  12.205  1.00  0.00    -0.055 NA
ENDBRANCH  12  13
ENDBRANCH  10  12
ENDBRANCH   9  10
TORSDOF 3
ENDMDL
MODEL 5
REMARK VINA RESULT: -6.407570543      1.848      4.958
REMARK  3 active torsions:
REMARK  status: ('A' for Active; 'I' for Inactive)
REMARK    1  A    between atoms: C3_9  and  N4_10 
REMARK    2  A    between atoms: N4_10  and  O2_12 
REMARK    3  A    between atoms: O2_12  and  C4_13 
ROOT
HETATM    1  C1  UNL     1     -15.727  59.399   7.625  1.00  0.00     0.180 C 
HETATM    2  N1  UNL     1     -14.451  59.304   8.307  1.00  0.00    -0.133 N 
HETATM    3  C2  UNL     1     -13.219  59.093   7.812  1.00  0.00     0.355 A 
HETATM    4  O1  UNL     1     -12.971  58.936   6.599  1.00  0.00    -0.244 OA
HETATM    5  N2  UNL     1     -12.319  59.080   8.823  1.00  0.00    -0.236 N 
ATOM      6  H2  UNL     1     -11.311  58.942   8.746  1.00  0.00     0.192 HD
HETATM    7  N3  UNL     1     -13.009  59.283   9.924  1.00  0.00    -0.126 N 
ATOM      8  H3  UNL     1     -12.609  59.327  10.862  1.00  0.00     0.206 HD
HETATM    9  C3  UNL     1     -14.310  59.422   9.639  1.00  0.00     0.723 A 
ENDROOT
BRANCH   9  10
HETATM   10  N4  UNL     1     -15.231  59.629  10.495  1.00  0.00    -0.086 N 
ATOM     11  H4  UNL     1     -15.434  60.597  10.744  1.00  0.00     0.214 HD
BRANCH  10  12
HETATM   12  O2  UNL     1     -15.966  58.658  11.103  1.00  0.00    -0.190 OA
BRANCH  12  13
HETATM   13  C4  UNL     1     -16.311  58.761  12.451  1.00  0.00     0.250 C 
HETATM   14  N5  UNL     1     -17.403  59.398  12.711  1.00  0.00    -0.366 N 
ATOM     15  H52 UNL     1     -17.986  59.806  11.980  1.00  0.00     0.159 HD
ATOM     16  H51 UNL     1     -17.656  59.473  13.697  1.00  0.00     0.159 HD
HETATM   17  N6  UNL     1     -15.502  58.195  13.467  1.00  0.00    -0.055 NA
ENDBRANCH  12  13
ENDBRANCH  10  12
ENDBRANCH   9  10
TORSDOF 3
ENDMDL
