MODEL 1
REMARK VINA RESULT: -6.745902494      0.000      0.000
REMARK  15 active torsions:
REMARK  status: ('A' for Active; 'I' for Inactive)
REMARK    1  A    between atoms: C2_2  and  C3_3 
REMARK    2  A    between atoms: C4_4  and  O1_5 
REMARK    3  A    between atoms: C5_9  and  C6_10 
REMARK    4  A    between atoms: C6_10  and  C7_11 
REMARK    5  A    between atoms: C11_18  and  C12_19 
REMARK    6  A    between atoms: C12_19  and  C13_20 
REMARK    7  A    between atoms: C13_20  and  C14_21 
REMARK    8  A    between atoms: C14_21  and  C15_22 
REMARK    9  A    between atoms: C15_22  and  C16_23 
REMARK   10  A    between atoms: C16_23  and  C17_24 
REMARK   11  A    between atoms: C17_24  and  O3_25 
REMARK   12  A    between atoms: N3_27  and  O4_29 
REMARK   13  A    between atoms: C22_37  and  C23_38 
REMARK   14  A    between atoms: C23_38  and  N4_41 
REMARK   15  A    between atoms: C28_44  and  O7_45 
ROOT
HETATM    1  C3  UNL     1       9.093  14.596  13.208  1.00  0.00     0.063 C 
HETATM    2  C4  UNL     1       9.671  14.521  11.840  1.00  0.00     0.163 C 
HETATM    3  N1  UNL     1      10.746  15.149  11.234  1.00  0.00    -0.334 N 
ATOM      4  H1  UNL     1      11.325  14.501  10.701  1.00  0.00     0.168 HD
HETATM    5  C5  UNL     1      11.236  16.487  11.176  1.00  0.00     0.080 C 
HETATM    6  C10 UNL     1      12.171  16.870  12.273  1.00  0.00     0.264 C 
HETATM    7  O2  UNL     1      12.803  15.819  12.687  1.00  0.00    -0.266 OA
HETATM    8  N2  UNL     1      12.471  18.047  12.884  1.00  0.00    -0.342 N 
ATOM      9  H2  UNL     1      13.466  18.254  12.797  1.00  0.00     0.163 HD
HETATM   10  C11 UNL     1      11.806  19.082  13.613  1.00  0.00     0.184 C 
HETATM   11  C18 UNL     1      10.443  18.836  14.100  1.00  0.00     0.281 C 
HETATM   12  O5  UNL     1       9.542  19.539  13.485  1.00  0.00    -0.263 OA
HETATM   13  O6  UNL     1      10.173  17.957  15.097  1.00  0.00    -0.319 OA
HETATM   14  C19 UNL     1      10.148  18.038  16.472  1.00  0.00     0.183 C 
HETATM   15  C20 UNL     1      10.363  16.683  17.169  1.00  0.00     0.020 C 
HETATM   16  C21 UNL     1      10.086  16.967  18.613  1.00  0.00     0.013 C 
HETATM   17  C22 UNL     1       9.526  15.619  16.523  1.00  0.00     0.104 C 
HETATM   18  C28 UNL     1      10.324  14.989  15.458  1.00  0.00     0.124 C 
HETATM   19  N5  UNL     1      10.012  14.355  14.272  1.00  0.00    -0.335 N 
HETATM   20  C29 UNL     1      10.806  13.109  14.011  1.00  0.00     0.158 C 
ENDROOT
BRANCH  10  21
HETATM   21  C12 UNL     1      12.623  19.529  14.828  1.00  0.00     0.035 C 
BRANCH  21  22
HETATM   22  C13 UNL     1      12.416  20.949  15.219  1.00  0.00     0.002 C 
BRANCH  22  23
HETATM   23  C14 UNL     1      13.391  21.933  14.675  1.00  0.00     0.001 C 
BRANCH  23  24
HETATM   24  C15 UNL     1      13.744  22.918  15.771  1.00  0.00     0.008 C 
BRANCH  24  25
HETATM   25  C16 UNL     1      14.963  22.502  16.564  1.00  0.00     0.086 C 
BRANCH  25  26
HETATM   26  C17 UNL     1      14.509  22.351  17.979  1.00  0.00     0.135 C 
HETATM   27  N3  UNL     1      14.693  23.255  18.875  1.00  0.00    -0.251 N 
ATOM     28  H3  UNL     1      14.365  23.105  19.830  1.00  0.00     0.196 HD
BRANCH  26  29
HETATM   29  O3  UNL     1      13.863  21.183  18.335  1.00  0.00    -0.348 OA
ATOM     30  H3  UNL     1      13.365  21.174  19.144  1.00  0.00     0.219 HD
ENDBRANCH  26  29
BRANCH  27  31
HETATM   31  O4  UNL     1      15.325  24.408  18.544  1.00  0.00    -0.288 OA
ATOM     32  H4  UNL     1      16.035  24.726  19.088  1.00  0.00     0.244 HD
ENDBRANCH  27  31
ENDBRANCH  25  26
ENDBRANCH  24  25
ENDBRANCH  23  24
ENDBRANCH  22  23
ENDBRANCH  21  22
ENDBRANCH  10  21
BRANCH   5  33
HETATM   33  C6  UNL     1      10.397  17.570  10.631  1.00  0.00     0.067 C 
BRANCH  33  34
HETATM   34  C7  UNL     1       9.160  17.206   9.904  1.00  0.00    -0.017 C 
HETATM   35  C8  UNL     1       7.900  17.894  10.253  1.00  0.00     0.010 C 
HETATM   36  C9  UNL     1       9.427  17.545   8.417  1.00  0.00     0.010 C 
ENDBRANCH  33  34
ENDBRANCH   5  33
BRANCH   2  37
HETATM   37  O1  UNL     1       9.020  13.689  11.079  1.00  0.00    -0.345 OA
ATOM     38  H1  UNL     1       8.848  14.053  10.219  1.00  0.00     0.219 HD
ENDBRANCH   2  37
BRANCH  17  39
HETATM   39  C23 UNL     1       9.095  14.541  17.527  1.00  0.00     0.163 C 
HETATM   40  C24 UNL     1       8.885  15.073  18.905  1.00  0.00     0.049 C 
HETATM   41  C25 UNL     1      10.238  13.523  17.658  1.00  0.00     0.049 C 
BRANCH  39  42
HETATM   42  N4  UNL     1       7.988  13.778  17.024  1.00  0.00     0.089 N 
HETATM   43  C26 UNL     1       7.739  12.549  17.706  1.00  0.00     0.310 C 
HETATM   44  C27 UNL     1       6.783  14.537  16.942  1.00  0.00     0.310 C 
ENDBRANCH  39  42
ENDBRANCH  17  39
BRANCH   1  45
HETATM   45  C2  UNL     1       8.062  15.655  13.344  1.00  0.00     0.057 C 
HETATM   46  C1  UNL     1       6.701  14.922  13.272  1.00  0.00     0.011 C 
ENDBRANCH   1  45
BRANCH  18  47
HETATM   47  O7  UNL     1      11.603  15.044  15.695  1.00  0.00    -0.349 OA
ATOM     48  H7  UNL     1      11.850  15.829  16.170  1.00  0.00     0.219 HD
ENDBRANCH  18  47
TORSDOF 15
ENDMDL
MODEL 2
REMARK VINA RESULT: -6.702789718      0.857      1.136
REMARK  15 active torsions:
REMARK  status: ('A' for Active; 'I' for Inactive)
REMARK    1  A    between atoms: C2_2  and  C3_3 
REMARK    2  A    between atoms: C4_4  and  O1_5 
REMARK    3  A    between atoms: C5_9  and  C6_10 
REMARK    4  A    between atoms: C6_10  and  C7_11 
REMARK    5  A    between atoms: C11_18  and  C12_19 
REMARK    6  A    between atoms: C12_19  and  C13_20 
REMARK    7  A    between atoms: C13_20  and  C14_21 
REMARK    8  A    between atoms: C14_21  and  C15_22 
REMARK    9  A    between atoms: C15_22  and  C16_23 
REMARK   10  A    between atoms: C16_23  and  C17_24 
REMARK   11  A    between atoms: C17_24  and  O3_25 
REMARK   12  A    between atoms: N3_27  and  O4_29 
REMARK   13  A    between atoms: C22_37  and  C23_38 
REMARK   14  A    between atoms: C23_38  and  N4_41 
REMARK   15  A    between atoms: C28_44  and  O7_45 
ROOT
HETATM    1  C3  UNL     1       9.096  14.492  12.811  1.00  0.00     0.063 C 
HETATM    2  C4  UNL     1       9.781  14.557  11.493  1.00  0.00     0.163 C 
HETATM    3  N1  UNL     1      10.908  15.227  11.047  1.00  0.00    -0.334 N 
ATOM      4  H1  UNL     1      11.521  14.630  10.493  1.00  0.00     0.168 HD
HETATM    5  C5  UNL     1      11.416  16.553  11.179  1.00  0.00     0.080 C 
HETATM    6  C10 UNL     1      12.264  16.794  12.382  1.00  0.00     0.264 C 
HETATM    7  O2  UNL     1      12.849  15.691  12.724  1.00  0.00    -0.266 OA
HETATM    8  N2  UNL     1      12.526  17.890  13.142  1.00  0.00    -0.342 N 
ATOM      9  H2  UNL     1      13.527  18.085  13.157  1.00  0.00     0.163 HD
HETATM   10  C11 UNL     1      11.816  18.851  13.927  1.00  0.00     0.184 C 
HETATM   11  C18 UNL     1      10.415  18.580  14.275  1.00  0.00     0.281 C 
HETATM   12  O5  UNL     1       9.575  19.364  13.673  1.00  0.00    -0.263 OA
HETATM   13  O6  UNL     1      10.057  17.601  15.143  1.00  0.00    -0.319 OA
HETATM   14  C19 UNL     1       9.922  17.530  16.512  1.00  0.00     0.183 C 
HETATM   15  C20 UNL     1      10.065  16.102  17.068  1.00  0.00     0.020 C 
HETATM   16  C21 UNL     1       9.676  16.231  18.509  1.00  0.00     0.013 C 
HETATM   17  C22 UNL     1       9.272  15.134  16.243  1.00  0.00     0.104 C 
HETATM   18  C28 UNL     1      10.146  14.609  15.180  1.00  0.00     0.124 C 
HETATM   19  N5  UNL     1       9.923  14.117  13.910  1.00  0.00    -0.335 N 
HETATM   20  C29 UNL     1      10.722  12.892  13.575  1.00  0.00     0.158 C 
ENDROOT
BRANCH  10  21
HETATM   21  C12 UNL     1      12.537  19.145  15.245  1.00  0.00     0.035 C 
BRANCH  21  22
HETATM   22  C13 UNL     1      13.480  20.293  15.187  1.00  0.00     0.002 C 
BRANCH  22  23
HETATM   23  C14 UNL     1      12.921  21.584  14.701  1.00  0.00     0.001 C 
BRANCH  23  24
HETATM   24  C15 UNL     1      13.555  22.712  15.490  1.00  0.00     0.008 C 
BRANCH  24  25
HETATM   25  C16 UNL     1      14.269  22.229  16.733  1.00  0.00     0.086 C 
BRANCH  25  26
HETATM   26  C17 UNL     1      15.557  22.984  16.794  1.00  0.00     0.135 C 
HETATM   27  N3  UNL     1      15.797  23.893  17.671  1.00  0.00    -0.251 N 
ATOM     28  H3  UNL     1      16.692  24.382  17.672  1.00  0.00     0.196 HD
BRANCH  26  29
HETATM   29  O3  UNL     1      16.531  22.687  15.860  1.00  0.00    -0.348 OA
ATOM     30  H3  UNL     1      16.401  22.985  14.967  1.00  0.00     0.219 HD
ENDBRANCH  26  29
BRANCH  27  31
HETATM   31  O4  UNL     1      14.853  24.198  18.596  1.00  0.00    -0.288 OA
ATOM     32  H4  UNL     1      14.654  25.108  18.781  1.00  0.00     0.244 HD
ENDBRANCH  27  31
ENDBRANCH  25  26
ENDBRANCH  24  25
ENDBRANCH  23  24
ENDBRANCH  22  23
ENDBRANCH  21  22
ENDBRANCH  10  21
BRANCH   5  33
HETATM   33  C6  UNL     1      10.634  17.706  10.693  1.00  0.00     0.067 C 
BRANCH  33  34
HETATM   34  C7  UNL     1       9.325  17.451  10.052  1.00  0.00    -0.017 C 
HETATM   35  C8  UNL     1       8.198  18.360  10.349  1.00  0.00     0.010 C 
HETATM   36  C9  UNL     1       9.570  17.568   8.528  1.00  0.00     0.010 C 
ENDBRANCH  33  34
ENDBRANCH   5  33
BRANCH   2  37
HETATM   37  O1  UNL     1       9.184  13.828  10.595  1.00  0.00    -0.345 OA
ATOM     38  H1  UNL     1       9.802  13.352  10.053  1.00  0.00     0.219 HD
ENDBRANCH   2  37
BRANCH  17  39
HETATM   39  C23 UNL     1       8.750  13.960  17.084  1.00  0.00     0.163 C 
HETATM   40  C24 UNL     1       9.762  13.427  18.042  1.00  0.00     0.049 C 
HETATM   41  C25 UNL     1       8.438  12.792  16.136  1.00  0.00     0.049 C 
BRANCH  39  42
HETATM   42  N4  UNL     1       7.488  14.278  17.691  1.00  0.00     0.089 N 
HETATM   43  C26 UNL     1       6.480  14.735  16.790  1.00  0.00     0.310 C 
HETATM   44  C27 UNL     1       6.974  13.215  18.492  1.00  0.00     0.310 C 
ENDBRANCH  39  42
ENDBRANCH  17  39
BRANCH   1  45
HETATM   45  C2  UNL     1       8.069  15.550  12.983  1.00  0.00     0.057 C 
HETATM   46  C1  UNL     1       6.709  14.809  13.008  1.00  0.00     0.011 C 
ENDBRANCH   1  45
BRANCH  18  47
HETATM   47  O7  UNL     1      11.402  14.612  15.523  1.00  0.00    -0.349 OA
ATOM     48  H7  UNL     1      11.959  14.220  14.861  1.00  0.00     0.219 HD
ENDBRANCH  18  47
TORSDOF 15
ENDMDL
MODEL 3
REMARK VINA RESULT: -6.602430667      1.967      2.343
REMARK  15 active torsions:
REMARK  status: ('A' for Active; 'I' for Inactive)
REMARK    1  A    between atoms: C2_2  and  C3_3 
REMARK    2  A    between atoms: C4_4  and  O1_5 
REMARK    3  A    between atoms: C5_9  and  C6_10 
REMARK    4  A    between atoms: C6_10  and  C7_11 
REMARK    5  A    between atoms: C11_18  and  C12_19 
REMARK    6  A    between atoms: C12_19  and  C13_20 
REMARK    7  A    between atoms: C13_20  and  C14_21 
REMARK    8  A    between atoms: C14_21  and  C15_22 
REMARK    9  A    between atoms: C15_22  and  C16_23 
REMARK   10  A    between atoms: C16_23  and  C17_24 
REMARK   11  A    between atoms: C17_24  and  O3_25 
REMARK   12  A    between atoms: N3_27  and  O4_29 
REMARK   13  A    between atoms: C22_37  and  C23_38 
REMARK   14  A    between atoms: C23_38  and  N4_41 
REMARK   15  A    between atoms: C28_44  and  O7_45 
ROOT
HETATM    1  C3  UNL     1       8.958  14.402  12.792  1.00  0.00     0.063 C 
HETATM    2  C4  UNL     1       9.641  14.469  11.472  1.00  0.00     0.163 C 
HETATM    3  N1  UNL     1      10.796  15.098  11.038  1.00  0.00    -0.334 N 
ATOM      4  H1  UNL     1      11.378  14.488  10.465  1.00  0.00     0.168 HD
HETATM    5  C5  UNL     1      11.365  16.396  11.200  1.00  0.00     0.080 C 
HETATM    6  C10 UNL     1      12.227  16.567  12.404  1.00  0.00     0.264 C 
HETATM    7  O2  UNL     1      12.763  15.430  12.715  1.00  0.00    -0.266 OA
HETATM    8  N2  UNL     1      12.543  17.630  13.191  1.00  0.00    -0.342 N 
ATOM      9  H2  UNL     1      13.552  17.779  13.205  1.00  0.00     0.163 HD
HETATM   10  C11 UNL     1      11.881  18.602  14.003  1.00  0.00     0.184 C 
HETATM   11  C18 UNL     1      10.470  18.387  14.352  1.00  0.00     0.281 C 
HETATM   12  O5  UNL     1       9.665  19.224  13.774  1.00  0.00    -0.263 OA
HETATM   13  O6  UNL     1      10.071  17.404  15.197  1.00  0.00    -0.319 OA
HETATM   14  C19 UNL     1       9.939  17.304  16.564  1.00  0.00     0.183 C 
HETATM   15  C20 UNL     1      10.019  15.858  17.084  1.00  0.00     0.020 C 
HETATM   16  C21 UNL     1       9.641  15.968  18.529  1.00  0.00     0.013 C 
HETATM   17  C22 UNL     1       9.178  14.948  16.238  1.00  0.00     0.104 C 
HETATM   18  C28 UNL     1      10.023  14.411  15.158  1.00  0.00     0.124 C 
HETATM   19  N5  UNL     1       9.772  13.962  13.877  1.00  0.00    -0.335 N 
HETATM   20  C29 UNL     1      10.513  12.710  13.507  1.00  0.00     0.158 C 
ENDROOT
BRANCH  10  21
HETATM   21  C12 UNL     1      12.620  18.829  15.325  1.00  0.00     0.035 C 
BRANCH  21  22
HETATM   22  C13 UNL     1      12.416  20.176  15.919  1.00  0.00     0.002 C 
BRANCH  22  23
HETATM   23  C14 UNL     1      13.417  20.612  16.930  1.00  0.00     0.001 C 
BRANCH  23  24
HETATM   24  C15 UNL     1      13.681  19.459  17.877  1.00  0.00     0.008 C 
BRANCH  24  25
HETATM   25  C16 UNL     1      12.590  19.287  18.910  1.00  0.00     0.086 C 
BRANCH  25  26
HETATM   26  C17 UNL     1      12.682  17.872  19.383  1.00  0.00     0.135 C 
HETATM   27  N3  UNL     1      12.222  17.481  20.518  1.00  0.00    -0.251 N 
ATOM     28  H3  UNL     1      12.310  16.504  20.798  1.00  0.00     0.196 HD
BRANCH  26  29
HETATM   29  O3  UNL     1      13.293  16.948  18.558  1.00  0.00    -0.348 OA
ATOM     30  H3  UNL     1      12.950  16.062  18.544  1.00  0.00     0.219 HD
ENDBRANCH  26  29
BRANCH  27  31
HETATM   31  O4  UNL     1      11.619  18.374  21.341  1.00  0.00    -0.288 OA
ATOM     32  H4  UNL     1      11.621  18.223  22.279  1.00  0.00     0.244 HD
ENDBRANCH  27  31
ENDBRANCH  25  26
ENDBRANCH  24  25
ENDBRANCH  23  24
ENDBRANCH  22  23
ENDBRANCH  21  22
ENDBRANCH  10  21
BRANCH   5  33
HETATM   33  C6  UNL     1      10.635  17.595  10.748  1.00  0.00     0.067 C 
BRANCH  33  34
HETATM   34  C7  UNL     1       9.329  17.415  10.075  1.00  0.00    -0.017 C 
HETATM   35  C8  UNL     1       8.289  18.450  10.251  1.00  0.00     0.010 C 
HETATM   36  C9  UNL     1       9.635  17.378   8.559  1.00  0.00     0.010 C 
ENDBRANCH  33  34
ENDBRANCH   5  33
BRANCH   2  37
HETATM   37  O1  UNL     1       9.008  13.791  10.560  1.00  0.00    -0.345 OA
ATOM     38  H1  UNL     1       9.181  14.121   9.686  1.00  0.00     0.219 HD
ENDBRANCH   2  37
BRANCH  17  39
HETATM   39  C23 UNL     1       8.606  13.778  17.052  1.00  0.00     0.163 C 
HETATM   40  C24 UNL     1       9.608  13.151  17.962  1.00  0.00     0.049 C 
HETATM   41  C25 UNL     1       8.198  12.667  16.073  1.00  0.00     0.049 C 
BRANCH  39  42
HETATM   42  N4  UNL     1       7.382  14.150  17.704  1.00  0.00     0.089 N 
HETATM   43  C26 UNL     1       6.400  14.745  16.857  1.00  0.00     0.310 C 
HETATM   44  C27 UNL     1       6.798  13.078  18.442  1.00  0.00     0.310 C 
ENDBRANCH  39  42
ENDBRANCH  17  39
BRANCH   1  45
HETATM   45  C2  UNL     1       7.982  15.501  12.996  1.00  0.00     0.057 C 
HETATM   46  C1  UNL     1       6.603  14.811  13.131  1.00  0.00     0.011 C 
ENDBRANCH   1  45
BRANCH  18  47
HETATM   47  O7  UNL     1      11.279  14.348  15.494  1.00  0.00    -0.349 OA
ATOM     48  H7  UNL     1      11.843  14.797  14.876  1.00  0.00     0.219 HD
ENDBRANCH  18  47
TORSDOF 15
ENDMDL
MODEL 4
REMARK VINA RESULT: -6.394602800      1.264      1.669
REMARK  15 active torsions:
REMARK  status: ('A' for Active; 'I' for Inactive)
REMARK    1  A    between atoms: C2_2  and  C3_3 
REMARK    2  A    between atoms: C4_4  and  O1_5 
REMARK    3  A    between atoms: C5_9  and  C6_10 
REMARK    4  A    between atoms: C6_10  and  C7_11 
REMARK    5  A    between atoms: C11_18  and  C12_19 
REMARK    6  A    between atoms: C12_19  and  C13_20 
REMARK    7  A    between atoms: C13_20  and  C14_21 
REMARK    8  A    between atoms: C14_21  and  C15_22 
REMARK    9  A    between atoms: C15_22  and  C16_23 
REMARK   10  A    between atoms: C16_23  and  C17_24 
REMARK   11  A    between atoms: C17_24  and  O3_25 
REMARK   12  A    between atoms: N3_27  and  O4_29 
REMARK   13  A    between atoms: C22_37  and  C23_38 
REMARK   14  A    between atoms: C23_38  and  N4_41 
REMARK   15  A    between atoms: C28_44  and  O7_45 
ROOT
HETATM    1  C3  UNL     1       8.795  14.006  13.815  1.00  0.00     0.063 C 
HETATM    2  C4  UNL     1       9.226  13.603  12.450  1.00  0.00     0.163 C 
HETATM    3  N1  UNL     1      10.234  14.045  11.610  1.00  0.00    -0.334 N 
ATOM      4  H1  UNL     1      10.750  13.275  11.185  1.00  0.00     0.168 HD
HETATM    5  C5  UNL     1      10.723  15.320  11.196  1.00  0.00     0.080 C 
HETATM    6  C10 UNL     1      11.770  15.916  12.075  1.00  0.00     0.264 C 
HETATM    7  O2  UNL     1      12.436  14.968  12.653  1.00  0.00    -0.266 OA
HETATM    8  N2  UNL     1      12.138  17.192  12.365  1.00  0.00    -0.342 N 
ATOM      9  H2  UNL     1      13.119  17.343  12.132  1.00  0.00     0.163 HD
HETATM   10  C11 UNL     1      11.559  18.384  12.899  1.00  0.00     0.184 C 
HETATM   11  C18 UNL     1      10.253  18.297  13.566  1.00  0.00     0.281 C 
HETATM   12  O5  UNL     1       9.296  18.866  12.899  1.00  0.00    -0.263 OA
HETATM   13  O6  UNL     1      10.086  17.676  14.760  1.00  0.00    -0.319 OA
HETATM   14  C19 UNL     1      10.206  18.070  16.075  1.00  0.00     0.183 C 
HETATM   15  C20 UNL     1      10.486  16.904  17.040  1.00  0.00     0.020 C 
HETATM   16  C21 UNL     1      10.364  17.519  18.400  1.00  0.00     0.013 C 
HETATM   17  C22 UNL     1       9.580  15.746  16.744  1.00  0.00     0.104 C 
HETATM   18  C28 UNL     1      10.258  14.866  15.777  1.00  0.00     0.124 C 
HETATM   19  N5  UNL     1       9.819  13.988  14.807  1.00  0.00    -0.335 N 
HETATM   20  C29 UNL     1      10.575  12.692  14.761  1.00  0.00     0.158 C 
ENDROOT
BRANCH  10  21
HETATM   21  C12 UNL     1      12.501  19.073  13.890  1.00  0.00     0.035 C 
BRANCH  21  22
HETATM   22  C13 UNL     1      13.898  19.228  13.403  1.00  0.00     0.002 C 
BRANCH  22  23
HETATM   23  C14 UNL     1      14.284  20.582  12.921  1.00  0.00     0.001 C 
BRANCH  23  24
HETATM   24  C15 UNL     1      13.900  21.598  13.978  1.00  0.00     0.008 C 
BRANCH  24  25
HETATM   25  C16 UNL     1      14.919  21.700  15.092  1.00  0.00     0.086 C 
BRANCH  25  26
HETATM   26  C17 UNL     1      14.148  22.005  16.335  1.00  0.00     0.135 C 
HETATM   27  N3  UNL     1      13.782  21.101  17.173  1.00  0.00    -0.251 N 
ATOM     28  H3  UNL     1      13.256  21.358  18.009  1.00  0.00     0.196 HD
BRANCH  26  29
HETATM   29  O3  UNL     1      13.816  23.322  16.589  1.00  0.00    -0.348 OA
ATOM     30  H3  UNL     1      13.085  23.496  17.171  1.00  0.00     0.219 HD
ENDBRANCH  26  29
BRANCH  27  31
HETATM   31  O4  UNL     1      14.099  19.803  16.940  1.00  0.00    -0.288 OA
ATOM     32  H4  UNL     1      13.441  19.130  17.062  1.00  0.00     0.244 HD
ENDBRANCH  27  31
ENDBRANCH  25  26
ENDBRANCH  24  25
ENDBRANCH  23  24
ENDBRANCH  22  23
ENDBRANCH  21  22
ENDBRANCH  10  21
BRANCH   5  33
HETATM   33  C6  UNL     1       9.835  16.273  10.504  1.00  0.00     0.067 C 
BRANCH  33  34
HETATM   34  C7  UNL     1      10.424  17.179   9.493  1.00  0.00    -0.017 C 
HETATM   35  C8  UNL     1      10.990  16.597   8.258  1.00  0.00     0.010 C 
HETATM   36  C9  UNL     1       9.273  18.106   9.033  1.00  0.00     0.010 C 
ENDBRANCH  33  34
ENDBRANCH   5  33
BRANCH   2  37
HETATM   37  O1  UNL     1       8.494  12.639  11.971  1.00  0.00    -0.345 OA
ATOM     38  H1  UNL     1       7.623  12.936  11.735  1.00  0.00     0.219 HD
ENDBRANCH   2  37
BRANCH  17  39
HETATM   39  C23 UNL     1       9.252  14.939  18.008  1.00  0.00     0.163 C 
HETATM   40  C24 UNL     1       9.725  15.594  19.262  1.00  0.00     0.049 C 
HETATM   41  C25 UNL     1      10.012  13.606  17.937  1.00  0.00     0.049 C 
BRANCH  39  42
HETATM   42  N4  UNL     1       7.866  14.563  18.037  1.00  0.00     0.089 N 
HETATM   43  C26 UNL     1       7.599  13.206  17.685  1.00  0.00     0.310 C 
HETATM   44  C27 UNL     1       7.233  14.874  19.276  1.00  0.00     0.310 C 
ENDBRANCH  39  42
ENDBRANCH  17  39
BRANCH   1  45
HETATM   45  C2  UNL     1       7.790  15.098  13.807  1.00  0.00     0.057 C 
HETATM   46  C1  UNL     1       6.494  14.474  14.381  1.00  0.00     0.011 C 
ENDBRANCH   1  45
BRANCH  18  47
HETATM   47  O7  UNL     1      11.555  14.937  15.865  1.00  0.00    -0.349 OA
ATOM     48  H7  UNL     1      11.944  14.118  16.150  1.00  0.00     0.219 HD
ENDBRANCH  18  47
TORSDOF 15
ENDMDL
MODEL 5
REMARK VINA RESULT: -6.339848791      2.574      6.516
REMARK  15 active torsions:
REMARK  status: ('A' for Active; 'I' for Inactive)
REMARK    1  A    between atoms: C2_2  and  C3_3 
REMARK    2  A    between atoms: C4_4  and  O1_5 
REMARK    3  A    between atoms: C5_9  and  C6_10 
REMARK    4  A    between atoms: C6_10  and  C7_11 
REMARK    5  A    between atoms: C11_18  and  C12_19 
REMARK    6  A    between atoms: C12_19  and  C13_20 
REMARK    7  A    between atoms: C13_20  and  C14_21 
REMARK    8  A    between atoms: C14_21  and  C15_22 
REMARK    9  A    between atoms: C15_22  and  C16_23 
REMARK   10  A    between atoms: C16_23  and  C17_24 
REMARK   11  A    between atoms: C17_24  and  O3_25 
REMARK   12  A    between atoms: N3_27  and  O4_29 
REMARK   13  A    between atoms: C22_37  and  C23_38 
REMARK   14  A    between atoms: C23_38  and  N4_41 
REMARK   15  A    between atoms: C28_44  and  O7_45 
ROOT
HETATM    1  C3  UNL     1       7.732  13.000  12.552  1.00  0.00     0.063 C 
HETATM    2  C4  UNL     1       6.715  12.415  13.465  1.00  0.00     0.163 C 
HETATM    3  N1  UNL     1       6.439  12.597  14.810  1.00  0.00    -0.334 N 
ATOM      4  H1  UNL     1       5.442  12.710  14.989  1.00  0.00     0.168 HD
HETATM    5  C5  UNL     1       7.217  12.663  16.004  1.00  0.00     0.080 C 
HETATM    6  C10 UNL     1       7.726  14.019  16.357  1.00  0.00     0.264 C 
HETATM    7  O2  UNL     1       6.915  14.918  15.897  1.00  0.00    -0.266 OA
HETATM    8  N2  UNL     1       8.817  14.466  17.035  1.00  0.00    -0.342 N 
ATOM      9  H2  UNL     1       8.534  15.039  17.831  1.00  0.00     0.163 HD
HETATM   10  C11 UNL     1      10.241  14.373  16.964  1.00  0.00     0.184 C 
HETATM   11  C18 UNL     1      10.853  13.848  15.736  1.00  0.00     0.281 C 
HETATM   12  O5  UNL     1      11.400  12.682  15.892  1.00  0.00    -0.263 OA
HETATM   13  O6  UNL     1      10.836  14.532  14.565  1.00  0.00    -0.319 OA
HETATM   14  C19 UNL     1      11.645  15.493  13.999  1.00  0.00     0.183 C 
HETATM   15  C20 UNL     1      10.922  16.365  12.957  1.00  0.00     0.020 C 
HETATM   16  C21 UNL     1      12.019  17.173  12.334  1.00  0.00     0.013 C 
HETATM   17  C22 UNL     1      10.108  15.512  12.031  1.00  0.00     0.104 C 
HETATM   18  C28 UNL     1       8.752  15.386  12.593  1.00  0.00     0.124 C 
HETATM   19  N5  UNL     1       7.764  14.426  12.508  1.00  0.00    -0.335 N 
HETATM   20  C29 UNL     1       6.382  14.978  12.319  1.00  0.00     0.158 C 
ENDROOT
BRANCH  10  21
HETATM   21  C12 UNL     1      10.908  15.725  17.233  1.00  0.00     0.035 C 
BRANCH  21  22
HETATM   22  C13 UNL     1      10.310  16.492  18.357  1.00  0.00     0.002 C 
BRANCH  22  23
HETATM   23  C14 UNL     1      11.145  16.634  19.580  1.00  0.00     0.001 C 
BRANCH  23  24
HETATM   24  C15 UNL     1      12.504  17.170  19.177  1.00  0.00     0.008 C 
BRANCH  24  25
HETATM   25  C16 UNL     1      12.637  18.660  19.402  1.00  0.00     0.086 C 
BRANCH  25  26
HETATM   26  C17 UNL     1      12.737  19.280  18.046  1.00  0.00     0.135 C 
HETATM   27  N3  UNL     1      11.734  19.810  17.442  1.00  0.00    -0.251 N 
ATOM     28  H3  UNL     1      11.851  20.221  16.515  1.00  0.00     0.196 HD
BRANCH  26  29
HETATM   29  O3  UNL     1      13.968  19.277  17.418  1.00  0.00    -0.348 OA
ATOM     30  H3  UNL     1      14.154  19.969  16.794  1.00  0.00     0.219 HD
ENDBRANCH  26  29
BRANCH  27  31
HETATM   31  O4  UNL     1      10.518  19.821  18.044  1.00  0.00    -0.288 OA
ATOM     32  H4  UNL     1      10.457  20.004  18.973  1.00  0.00     0.244 HD
ENDBRANCH  27  31
ENDBRANCH  25  26
ENDBRANCH  24  25
ENDBRANCH  23  24
ENDBRANCH  22  23
ENDBRANCH  21  22
ENDBRANCH  10  21
BRANCH   5  33
HETATM   33  C6  UNL     1       8.061  11.526  16.412  1.00  0.00     0.067 C 
BRANCH  33  34
HETATM   34  C7  UNL     1       7.761  10.846  17.691  1.00  0.00    -0.017 C 
HETATM   35  C8  UNL     1       6.410  10.989  18.274  1.00  0.00     0.010 C 
HETATM   36  C9  UNL     1       7.946   9.333  17.421  1.00  0.00     0.010 C 
ENDBRANCH  33  34
ENDBRANCH   5  33
BRANCH   2  37
HETATM   37  O1  UNL     1       5.940  11.566  12.855  1.00  0.00    -0.345 OA
ATOM     38  H1  UNL     1       6.414  11.046  12.217  1.00  0.00     0.219 HD
ENDBRANCH   2  37
BRANCH  17  39
HETATM   39  C23 UNL     1      10.010  16.126  10.627  1.00  0.00     0.163 C 
HETATM   40  C24 UNL     1       9.530  17.538  10.635  1.00  0.00     0.049 C 
HETATM   41  C25 UNL     1       8.951  15.344   9.834  1.00  0.00     0.049 C 
BRANCH  39  42
HETATM   42  N4  UNL     1      11.227  15.931   9.890  1.00  0.00     0.089 N 
HETATM   43  C26 UNL     1      11.546  14.572   9.594  1.00  0.00     0.310 C 
HETATM   44  C27 UNL     1      11.285  16.712   8.698  1.00  0.00     0.310 C 
ENDBRANCH  39  42
ENDBRANCH  17  39
BRANCH   1  45
HETATM   45  C2  UNL     1       9.000  12.229  12.526  1.00  0.00     0.057 C 
HETATM   46  C1  UNL     1       9.219  11.839  11.044  1.00  0.00     0.011 C 
ENDBRANCH   1  45
BRANCH  18  47
HETATM   47  O7  UNL     1       8.421  16.408  13.327  1.00  0.00    -0.349 OA
ATOM     48  H7  UNL     1       8.139  16.153  14.198  1.00  0.00     0.219 HD
ENDBRANCH  18  47
TORSDOF 15
ENDMDL
