MODEL 1
REMARK VINA RESULT: -10.039009519      0.000      0.000
REMARK  16 active torsions:
REMARK  status: ('A' for Active; 'I' for Inactive)
REMARK       I    between atoms: C2_2  and  N1_4 
REMARK       I    between atoms: N1_4  and  C3_5 
REMARK    1  A    between atoms: N1_4  and  C16_41 
REMARK    2  A    between atoms: C3_5  and  O3_7 
REMARK    3  A    between atoms: O3_7  and  C4_8 
REMARK    4  A    between atoms: C4_8  and  C5_9 
REMARK    5  A    between atoms: C6_10  and  C7_11 
REMARK    6  A    between atoms: C9_17  and  N3_18 
REMARK    7  A    between atoms: C10_22  and  N4_23 
REMARK    8  A    between atoms: C12_25  and  S1_26 
REMARK    9  A    between atoms: S1_26  and  N5_27 
REMARK   10  A    between atoms: C14_37  and  C15_38 
REMARK   11  A    between atoms: C16_41  and  C17_42 
REMARK   12  A    between atoms: C16_41  and  C20_54 
REMARK   13  A    between atoms: C17_42  and  S2_43 
REMARK   14  A    between atoms: S2_43  and  C18_44 
REMARK   15  A    between atoms: C20_54  and  O10_55 
REMARK   16  A    between atoms: C20_54  and  O11_57 
ROOT
HETATM    1  C5  UNL     1       7.637   4.784  25.092  1.00  0.00     0.011 A 
HETATM    2  C6  UNL     1       8.620   4.067  25.645  1.00  0.00     0.127 A 
HETATM    3  N2  UNL     1       8.628   2.610  25.621  1.00  0.00    -0.261 N 
HETATM    4  C8  UNL     1       9.463   1.597  26.154  1.00  0.00     0.263 C 
HETATM    5  O6  UNL     1      10.236   1.655  27.101  1.00  0.00    -0.270 OA
HETATM    6  C9  UNL     1       9.224   0.370  25.314  1.00  0.00     0.307 C 
HETATM    7  C10 UNL     1       7.763   0.473  25.039  1.00  0.00     0.213 C 
HETATM    8  C13 UNL     1       7.545   1.965  24.963  1.00  0.00     0.115 A 
HETATM    9  N8  UNL     1       6.655   2.664  24.435  1.00  0.00    -0.359 N 
ATOM     10  H8  UNL     1       5.900   2.146  23.985  1.00  0.00     0.162 HD
HETATM   11  C14 UNL     1       6.547   4.076  24.373  1.00  0.00     0.218 A 
ENDROOT
BRANCH   1  12
HETATM   12  C4  UNL     1       7.634   6.248  25.081  1.00  0.00     0.220 C 
BRANCH  12  13
HETATM   13  O3  UNL     1       7.475   6.858  26.382  1.00  0.00    -0.299 OA
BRANCH  13  14
HETATM   14  C3  UNL     1       7.425   8.234  26.468  1.00  0.00     0.374 C 
HETATM   15  N1  UNL     1       7.693   9.060  27.579  1.00  0.00    -0.226 N 
HETATM   16  C2  UNL     1       8.178   8.470  28.755  1.00  0.00     0.229 C 
HETATM   17  C1  UNL     1       8.434   7.032  28.876  1.00  0.00     0.118 C 
HETATM   18  O1  UNL     1       8.417   9.161  29.763  1.00  0.00    -0.273 OA
HETATM   19  O2  UNL     1       7.082   8.812  25.374  1.00  0.00    -0.237 OA
BRANCH  15  20
HETATM   20  C16 UNL     1       7.470  10.498  27.433  1.00  0.00     0.085 C 
BRANCH  20  21
HETATM   21  C17 UNL     1       6.343  11.073  28.187  1.00  0.00     0.083 C 
BRANCH  21  22
HETATM   22  S2  UNL     1       4.932  11.770  27.475  1.00  0.00    -0.073 SA
BRANCH  22  23
HETATM   23  C18 UNL     1       5.106  12.869  26.091  1.00  0.00     0.134 A 
HETATM   24  N9  UNL     1       6.159  13.357  25.473  1.00  0.00    -0.286 N 
HETATM   25  N10 UNL     1       6.041  14.148  24.481  1.00  0.00    -0.279 N 
ATOM     26  H9  UNL     1       7.091  13.096  25.794  1.00  0.00     0.188 HD
HETATM   27  C19 UNL     1       4.812  14.477  24.075  1.00  0.00     0.159 A 
ATOM     28  H10 UNL     1       6.866  14.521  24.009  1.00  0.00     0.189 HD
HETATM   29  N11 UNL     1       4.490  15.272  23.076  1.00  0.00    -0.379 N 
HETATM   30  S3  UNL     1       3.833  13.613  25.164  1.00  0.00    -0.026 SA
ATOM     31 2H11 UNL     1       5.078  15.790  22.423  1.00  0.00     0.158 HD
ATOM     32 1H11 UNL     1       3.551  15.523  22.766  1.00  0.00     0.158 HD
ENDBRANCH  22  23
ENDBRANCH  21  22
ENDBRANCH  20  21
BRANCH  20  33
HETATM   33  C20 UNL     1       8.691  11.313  27.246  1.00  0.00     0.306 C 
BRANCH  33  34
HETATM   34  O10 UNL     1       8.610  12.661  27.421  1.00  0.00    -0.366 OA
ATOM     35  H10 UNL     1       9.409  13.174  27.386  1.00  0.00     0.213 HD
ENDBRANCH  33  34
BRANCH  33  36
HETATM   36  O11 UNL     1       9.143  11.077  25.923  1.00  0.00    -0.366 OA
ATOM     37  H11 UNL     1      10.049  11.361  25.888  1.00  0.00     0.213 HD
ENDBRANCH  33  36
ENDBRANCH  20  33
ENDBRANCH  15  20
ENDBRANCH  13  14
ENDBRANCH  12  13
ENDBRANCH   1  12
BRANCH   2  38
HETATM   38  C7  UNL     1       9.752   4.687  26.281  1.00  0.00     0.227 C 
HETATM   39  O4  UNL     1       9.984   4.607  27.530  1.00  0.00    -0.643 OA
HETATM   40  O5  UNL     1      10.720   5.442  25.632  1.00  0.00    -0.643 OA
ENDBRANCH   2  38
BRANCH  11  41
HETATM   41  C15 UNL     1       5.181   4.514  24.631  1.00  0.00     0.201 C 
HETATM   42  O8  UNL     1       4.349   3.697  25.103  1.00  0.00    -0.646 OA
HETATM   43  O9  UNL     1       4.743   5.799  24.370  1.00  0.00    -0.646 OA
ENDBRANCH  11  41
BRANCH   6  44
HETATM   44  N3  UNL     1       9.945   0.481  24.063  1.00  0.00    -0.064 N 
ATOM     45  H33 UNL     1      10.181   1.448  23.841  1.00  0.00     0.275 HD
ATOM     46  H32 UNL     1      10.892   0.110  24.132  1.00  0.00     0.275 HD
ATOM     47  H31 UNL     1       9.413   0.036  23.316  1.00  0.00     0.275 HD
ENDBRANCH   6  44
BRANCH   7  48
HETATM   48  N4  UNL     1       6.980  -0.141  26.044  1.00  0.00    -0.269 N 
HETATM   49  C11 UNL     1       6.899  -1.470  26.349  1.00  0.00     0.151 A 
HETATM   50  C12 UNL     1       6.039  -1.560  27.372  1.00  0.00     0.151 A 
HETATM   51  N6  UNL     1       5.597  -0.424  27.707  1.00  0.00    -0.273 N 
HETATM   52  N7  UNL     1       6.168   0.498  26.893  1.00  0.00    -0.019 NA
ATOM     53  H6  UNL     1       4.930  -0.235  28.455  1.00  0.00     0.185 HD
BRANCH  50  54
HETATM   54  S1  UNL     1       5.755  -3.072  28.194  1.00  0.00     0.163 S 
HETATM   55  O7  UNL     1       4.249  -2.510  28.081  1.00  0.00    -0.229 OA
BRANCH  54  56
HETATM   56  N5  UNL     1       6.362  -4.028  28.619  1.00  0.00    -0.344 N 
ATOM     57  H52 UNL     1       7.104  -4.672  28.344  1.00  0.00     0.166 HD
ATOM     58  H51 UNL     1       6.408  -4.623  29.447  1.00  0.00     0.166 HD
ENDBRANCH  54  56
ENDBRANCH  50  54
ENDBRANCH   7  48
TORSDOF 16
ENDMDL
MODEL 2
REMARK VINA RESULT: -9.493869790      3.328      9.680
REMARK  16 active torsions:
REMARK  status: ('A' for Active; 'I' for Inactive)
REMARK       I    between atoms: C2_2  and  N1_4 
REMARK       I    between atoms: N1_4  and  C3_5 
REMARK    1  A    between atoms: N1_4  and  C16_41 
REMARK    2  A    between atoms: C3_5  and  O3_7 
REMARK    3  A    between atoms: O3_7  and  C4_8 
REMARK    4  A    between atoms: C4_8  and  C5_9 
REMARK    5  A    between atoms: C6_10  and  C7_11 
REMARK    6  A    between atoms: C9_17  and  N3_18 
REMARK    7  A    between atoms: C10_22  and  N4_23 
REMARK    8  A    between atoms: C12_25  and  S1_26 
REMARK    9  A    between atoms: S1_26  and  N5_27 
REMARK   10  A    between atoms: C14_37  and  C15_38 
REMARK   11  A    between atoms: C16_41  and  C17_42 
REMARK   12  A    between atoms: C16_41  and  C20_54 
REMARK   13  A    between atoms: C17_42  and  S2_43 
REMARK   14  A    between atoms: S2_43  and  C18_44 
REMARK   15  A    between atoms: C20_54  and  O10_55 
REMARK   16  A    between atoms: C20_54  and  O11_57 
ROOT
HETATM    1  C5  UNL     1       9.749   5.217  27.144  1.00  0.00     0.011 A 
HETATM    2  C6  UNL     1       9.688   5.713  28.384  1.00  0.00     0.127 A 
HETATM    3  N2  UNL     1       8.951   6.929  28.700  1.00  0.00    -0.261 N 
HETATM    4  C8  UNL     1       8.754   7.717  29.861  1.00  0.00     0.263 C 
HETATM    5  O6  UNL     1       9.448   7.794  30.865  1.00  0.00    -0.270 OA
HETATM    6  C9  UNL     1       7.480   8.488  29.635  1.00  0.00     0.307 C 
HETATM    7  C10 UNL     1       7.563   8.788  28.179  1.00  0.00     0.213 C 
HETATM    8  C13 UNL     1       8.271   7.573  27.629  1.00  0.00     0.115 A 
HETATM    9  N8  UNL     1       8.327   7.071  26.487  1.00  0.00    -0.359 N 
ATOM     10  H8  UNL     1       7.828   7.581  25.758  1.00  0.00     0.162 HD
HETATM   11  C14 UNL     1       8.988   5.891  26.061  1.00  0.00     0.218 A 
ENDROOT
BRANCH   1  12
HETATM   12  C4  UNL     1      10.460   3.978  26.820  1.00  0.00     0.220 C 
BRANCH  12  13
HETATM   13  O3  UNL     1       9.902   2.790  27.425  1.00  0.00    -0.299 OA
BRANCH  13  14
HETATM   14  C3  UNL     1       8.995   2.041  26.704  1.00  0.00     0.374 C 
HETATM   15  N1  UNL     1       8.747   0.655  26.765  1.00  0.00    -0.226 N 
HETATM   16  C2  UNL     1       9.409  -0.105  27.742  1.00  0.00     0.229 C 
HETATM   17  C1  UNL     1      10.336   0.482  28.713  1.00  0.00     0.118 C 
HETATM   18  O1  UNL     1       9.227  -1.334  27.823  1.00  0.00    -0.273 OA
HETATM   19  O2  UNL     1       8.299   2.727  25.872  1.00  0.00    -0.237 OA
BRANCH  15  20
HETATM   20  C16 UNL     1       7.791   0.087  25.816  1.00  0.00     0.085 C 
BRANCH  20  21
HETATM   21  C17 UNL     1       8.165   0.132  24.392  1.00  0.00     0.083 C 
BRANCH  21  22
HETATM   22  S2  UNL     1       7.223   0.867  23.146  1.00  0.00    -0.073 SA
BRANCH  22  23
HETATM   23  C18 UNL     1       6.636   2.529  23.362  1.00  0.00     0.134 A 
HETATM   24  N9  UNL     1       7.138   3.697  23.027  1.00  0.00    -0.286 N 
HETATM   25  N10 UNL     1       6.528   4.785  23.292  1.00  0.00    -0.279 N 
ATOM     26  H9  UNL     1       8.035   3.735  22.544  1.00  0.00     0.188 HD
HETATM   27  C19 UNL     1       5.354   4.715  23.925  1.00  0.00     0.159 A 
ATOM     28  H10 UNL     1       6.927   5.686  23.028  1.00  0.00     0.189 HD
HETATM   29  N11 UNL     1       4.581   5.719  24.280  1.00  0.00    -0.379 N 
HETATM   30  S3  UNL     1       5.156   3.038  24.126  1.00  0.00    -0.026 SA
ATOM     31 2H11 UNL     1       4.700   6.724  24.159  1.00  0.00     0.158 HD
ATOM     32 1H11 UNL     1       3.684   5.665  24.764  1.00  0.00     0.158 HD
ENDBRANCH  22  23
ENDBRANCH  21  22
ENDBRANCH  20  21
BRANCH  20  33
HETATM   33  C20 UNL     1       7.017  -1.073  26.312  1.00  0.00     0.306 C 
BRANCH  33  34
HETATM   34  O10 UNL     1       6.775  -2.109  25.463  1.00  0.00    -0.366 OA
ATOM     35  H10 UNL     1       6.332  -2.880  25.798  1.00  0.00     0.213 HD
ENDBRANCH  33  34
BRANCH  33  36
HETATM   36  O11 UNL     1       5.765  -0.573  26.750  1.00  0.00    -0.366 OA
ATOM     37  H11 UNL     1       5.693  -0.784  27.673  1.00  0.00     0.213 HD
ENDBRANCH  33  36
ENDBRANCH  20  33
ENDBRANCH  15  20
ENDBRANCH  13  14
ENDBRANCH  12  13
ENDBRANCH   1  12
BRANCH   2  38
HETATM   38  C7  UNL     1      10.328   5.064  29.498  1.00  0.00     0.227 C 
HETATM   39  O4  UNL     1      11.478   5.391  29.933  1.00  0.00    -0.643 OA
HETATM   40  O5  UNL     1       9.789   4.013  30.229  1.00  0.00    -0.643 OA
ENDBRANCH   2  38
BRANCH  11  41
HETATM   41  C15 UNL     1       9.672   6.097  24.791  1.00  0.00     0.201 C 
HETATM   42  O8  UNL     1       9.213   5.563  23.748  1.00  0.00    -0.646 OA
HETATM   43  O9  UNL     1      10.823   6.853  24.673  1.00  0.00    -0.646 OA
ENDBRANCH  11  41
BRANCH   6  44
HETATM   44  N3  UNL     1       6.337   7.629  29.871  1.00  0.00    -0.064 N 
ATOM     45  H33 UNL     1       5.481   8.012  29.471  1.00  0.00     0.275 HD
ATOM     46  H32 UNL     1       6.384   6.770  29.325  1.00  0.00     0.275 HD
ATOM     47  H31 UNL     1       6.244   7.444  30.870  1.00  0.00     0.275 HD
ENDBRANCH   6  44
BRANCH   7  48
HETATM   48  N4  UNL     1       8.261   9.990  27.914  1.00  0.00    -0.269 N 
HETATM   49  C11 UNL     1       8.651  10.946  28.808  1.00  0.00     0.151 A 
HETATM   50  C12 UNL     1       9.282  11.885  28.090  1.00  0.00     0.151 A 
HETATM   51  N6  UNL     1       9.305  11.589  26.861  1.00  0.00    -0.273 N 
HETATM   52  N7  UNL     1       8.672  10.399  26.710  1.00  0.00    -0.019 NA
ATOM     53  H6  UNL     1       9.725  12.146  26.117  1.00  0.00     0.185 HD
BRANCH  50  54
HETATM   54  S1  UNL     1      10.091  13.227  28.854  1.00  0.00     0.163 S 
HETATM   55  O7  UNL     1       8.579  13.780  28.814  1.00  0.00    -0.229 OA
BRANCH  54  56
HETATM   56  N5  UNL     1      11.196  13.562  29.218  1.00  0.00    -0.344 N 
ATOM     57  H52 UNL     1      12.109  13.158  29.427  1.00  0.00     0.166 HD
ATOM     58  H51 UNL     1      11.714  14.401  29.482  1.00  0.00     0.166 HD
ENDBRANCH  54  56
ENDBRANCH  50  54
ENDBRANCH   7  48
TORSDOF 16
ENDMDL
MODEL 3
REMARK VINA RESULT: -9.473941009      3.378     10.804
REMARK  16 active torsions:
REMARK  status: ('A' for Active; 'I' for Inactive)
REMARK       I    between atoms: C2_2  and  N1_4 
REMARK       I    between atoms: N1_4  and  C3_5 
REMARK    1  A    between atoms: N1_4  and  C16_41 
REMARK    2  A    between atoms: C3_5  and  O3_7 
REMARK    3  A    between atoms: O3_7  and  C4_8 
REMARK    4  A    between atoms: C4_8  and  C5_9 
REMARK    5  A    between atoms: C6_10  and  C7_11 
REMARK    6  A    between atoms: C9_17  and  N3_18 
REMARK    7  A    between atoms: C10_22  and  N4_23 
REMARK    8  A    between atoms: C12_25  and  S1_26 
REMARK    9  A    between atoms: S1_26  and  N5_27 
REMARK   10  A    between atoms: C14_37  and  C15_38 
REMARK   11  A    between atoms: C16_41  and  C17_42 
REMARK   12  A    between atoms: C16_41  and  C20_54 
REMARK   13  A    between atoms: C17_42  and  S2_43 
REMARK   14  A    between atoms: S2_43  and  C18_44 
REMARK   15  A    between atoms: C20_54  and  O10_55 
REMARK   16  A    between atoms: C20_54  and  O11_57 
ROOT
HETATM    1  C5  UNL     1       9.437   5.855  27.349  1.00  0.00     0.011 A 
HETATM    2  C6  UNL     1       9.397   6.163  28.649  1.00  0.00     0.127 A 
HETATM    3  N2  UNL     1       8.794   7.394  29.138  1.00  0.00    -0.261 N 
HETATM    4  C8  UNL     1       8.654   8.017  30.404  1.00  0.00     0.263 C 
HETATM    5  O6  UNL     1       9.323   7.860  31.416  1.00  0.00    -0.270 OA
HETATM    6  C9  UNL     1       7.483   8.956  30.284  1.00  0.00     0.307 C 
HETATM    7  C10 UNL     1       7.641   9.460  28.891  1.00  0.00     0.213 C 
HETATM    8  C13 UNL     1       8.223   8.267  28.171  1.00  0.00     0.115 A 
HETATM    9  N8  UNL     1       8.254   7.939  26.966  1.00  0.00    -0.359 N 
ATOM     10  H8  UNL     1       7.837   8.608  26.318  1.00  0.00     0.162 HD
HETATM   11  C14 UNL     1       8.789   6.768  26.373  1.00  0.00     0.218 A 
ENDROOT
BRANCH   1  12
HETATM   12  C4  UNL     1      10.012   4.604  26.848  1.00  0.00     0.220 C 
BRANCH  12  13
HETATM   13  O3  UNL     1       9.272   3.994  25.766  1.00  0.00    -0.299 OA
BRANCH  13  14
HETATM   14  C3  UNL     1       8.840   2.692  25.909  1.00  0.00     0.374 C 
HETATM   15  N1  UNL     1       7.611   2.122  25.521  1.00  0.00    -0.226 N 
HETATM   16  C2  UNL     1       6.703   2.908  24.795  1.00  0.00     0.229 C 
HETATM   17  C1  UNL     1       6.983   4.293  24.410  1.00  0.00     0.118 C 
HETATM   18  O1  UNL     1       5.602   2.447  24.442  1.00  0.00    -0.273 OA
HETATM   19  O2  UNL     1       9.693   1.920  26.478  1.00  0.00    -0.237 OA
BRANCH  15  20
HETATM   20  C16 UNL     1       7.360   0.726  25.878  1.00  0.00     0.085 C 
BRANCH  20  21
HETATM   21  C17 UNL     1       6.409   0.485  26.976  1.00  0.00     0.083 C 
BRANCH  21  22
HETATM   22  S2  UNL     1       6.845  -0.041  28.563  1.00  0.00    -0.073 SA
BRANCH  22  23
HETATM   23  C18 UNL     1       8.559  -0.279  28.961  1.00  0.00     0.134 A 
HETATM   24  N9  UNL     1       9.570  -0.766  28.276  1.00  0.00    -0.286 N 
HETATM   25  N10 UNL     1      10.738  -0.844  28.777  1.00  0.00    -0.279 N 
ATOM     26  H9  UNL     1       9.415  -1.088  27.320  1.00  0.00     0.188 HD
HETATM   27  C19 UNL     1      10.920  -0.416  30.030  1.00  0.00     0.159 A 
ATOM     28  H10 UNL     1      11.516  -1.224  28.236  1.00  0.00     0.189 HD
HETATM   29  N11 UNL     1      12.045  -0.414  30.714  1.00  0.00    -0.379 N 
HETATM   30  S3  UNL     1       9.359   0.101  30.461  1.00  0.00    -0.026 SA
ATOM     31 2H11 UNL     1      12.981  -0.724  30.455  1.00  0.00     0.158 HD
ATOM     32 1H11 UNL     1      12.184  -0.087  31.671  1.00  0.00     0.158 HD
ENDBRANCH  22  23
ENDBRANCH  21  22
ENDBRANCH  20  21
BRANCH  20  33
HETATM   33  C20 UNL     1       7.407  -0.235  24.753  1.00  0.00     0.306 C 
BRANCH  33  34
HETATM   34  O10 UNL     1       6.292  -0.404  23.990  1.00  0.00    -0.366 OA
ATOM     35  H10 UNL     1       5.825  -1.230  24.043  1.00  0.00     0.213 HD
ENDBRANCH  33  34
BRANCH  33  36
HETATM   36  O11 UNL     1       7.747  -1.496  25.306  1.00  0.00    -0.366 OA
ATOM     37  H11 UNL     1       7.017  -2.078  25.131  1.00  0.00     0.213 HD
ENDBRANCH  33  36
ENDBRANCH  20  33
ENDBRANCH  15  20
ENDBRANCH  13  14
ENDBRANCH  12  13
ENDBRANCH   1  12
BRANCH   2  38
HETATM   38  C7  UNL     1       9.927   5.284  29.658  1.00  0.00     0.227 C 
HETATM   39  O4  UNL     1      11.104   4.803  29.621  1.00  0.00    -0.643 OA
HETATM   40  O5  UNL     1       9.236   4.847  30.782  1.00  0.00    -0.643 OA
ENDBRANCH   2  38
BRANCH  11  41
HETATM   41  C15 UNL     1       9.529   7.081  25.157  1.00  0.00     0.201 C 
HETATM   42  O8  UNL     1       8.948   7.688  24.220  1.00  0.00    -0.646 OA
HETATM   43  O9  UNL     1      10.854   6.731  24.974  1.00  0.00    -0.646 OA
ENDBRANCH  11  41
BRANCH   6  44
HETATM   44  N3  UNL     1       6.243   8.211  30.374  1.00  0.00    -0.064 N 
ATOM     45  H33 UNL     1       6.151   7.528  29.621  1.00  0.00     0.275 HD
ATOM     46  H32 UNL     1       6.242   7.563  31.161  1.00  0.00     0.275 HD
ATOM     47  H31 UNL     1       5.454   8.855  30.406  1.00  0.00     0.275 HD
ENDBRANCH   6  44
BRANCH   7  48
HETATM   48  N4  UNL     1       8.478  10.598  28.821  1.00  0.00    -0.269 N 
HETATM   49  C11 UNL     1       8.885  11.403  29.847  1.00  0.00     0.151 A 
HETATM   50  C12 UNL     1       9.668  12.338  29.293  1.00  0.00     0.151 A 
HETATM   51  N6  UNL     1       9.767  12.176  28.042  1.00  0.00    -0.273 N 
HETATM   52  N7  UNL     1       9.032  11.087  27.707  1.00  0.00    -0.019 NA
ATOM     53  H6  UNL     1      10.305  12.759  27.401  1.00  0.00     0.185 HD
BRANCH  50  54
HETATM   54  S1  UNL     1      10.541  13.492  30.266  1.00  0.00     0.163 S 
HETATM   55  O7  UNL     1      11.724  12.953  29.315  1.00  0.00    -0.229 OA
BRANCH  54  56
HETATM   56  N5  UNL     1      10.356  14.275  31.169  1.00  0.00    -0.344 N 
ATOM     57  H52 UNL     1      10.653  14.449  32.130  1.00  0.00     0.166 HD
ATOM     58  H51 UNL     1       9.819  15.117  31.380  1.00  0.00     0.166 HD
ENDBRANCH  54  56
ENDBRANCH  50  54
ENDBRANCH   7  48
TORSDOF 16
ENDMDL
MODEL 4
REMARK VINA RESULT: -9.422323169      3.756     10.490
REMARK  16 active torsions:
REMARK  status: ('A' for Active; 'I' for Inactive)
REMARK       I    between atoms: C2_2  and  N1_4 
REMARK       I    between atoms: N1_4  and  C3_5 
REMARK    1  A    between atoms: N1_4  and  C16_41 
REMARK    2  A    between atoms: C3_5  and  O3_7 
REMARK    3  A    between atoms: O3_7  and  C4_8 
REMARK    4  A    between atoms: C4_8  and  C5_9 
REMARK    5  A    between atoms: C6_10  and  C7_11 
REMARK    6  A    between atoms: C9_17  and  N3_18 
REMARK    7  A    between atoms: C10_22  and  N4_23 
REMARK    8  A    between atoms: C12_25  and  S1_26 
REMARK    9  A    between atoms: S1_26  and  N5_27 
REMARK   10  A    between atoms: C14_37  and  C15_38 
REMARK   11  A    between atoms: C16_41  and  C17_42 
REMARK   12  A    between atoms: C16_41  and  C20_54 
REMARK   13  A    between atoms: C17_42  and  S2_43 
REMARK   14  A    between atoms: S2_43  and  C18_44 
REMARK   15  A    between atoms: C20_54  and  O10_55 
REMARK   16  A    between atoms: C20_54  and  O11_57 
ROOT
HETATM    1  C5  UNL     1       8.569   7.411  26.203  1.00  0.00     0.011 A 
HETATM    2  C6  UNL     1       9.325   6.677  27.025  1.00  0.00     0.127 A 
HETATM    3  N2  UNL     1       9.546   7.046  28.416  1.00  0.00    -0.261 N 
HETATM    4  C8  UNL     1      10.317   6.530  29.487  1.00  0.00     0.263 C 
HETATM    5  O6  UNL     1      11.309   5.815  29.447  1.00  0.00    -0.270 OA
HETATM    6  C9  UNL     1       9.676   7.041  30.751  1.00  0.00     0.307 C 
HETATM    7  C10 UNL     1       9.251   8.408  30.343  1.00  0.00     0.213 C 
HETATM    8  C13 UNL     1       8.906   8.228  28.884  1.00  0.00     0.115 A 
HETATM    9  N8  UNL     1       8.187   8.879  28.098  1.00  0.00    -0.359 N 
ATOM     10  H8  UNL     1       7.762   9.720  28.487  1.00  0.00     0.162 HD
HETATM   11  C14 UNL     1       7.880   8.612  26.740  1.00  0.00     0.218 A 
ENDROOT
BRANCH   1  12
HETATM   12  C4  UNL     1       8.313   7.033  24.811  1.00  0.00     0.220 C 
BRANCH  12  13
HETATM   13  O3  UNL     1       7.125   6.234  24.615  1.00  0.00    -0.299 OA
BRANCH  13  14
HETATM   14  C3  UNL     1       7.267   4.891  24.329  1.00  0.00     0.374 C 
HETATM   15  N1  UNL     1       6.293   3.873  24.364  1.00  0.00    -0.226 N 
HETATM   16  C2  UNL     1       4.959   4.225  24.619  1.00  0.00     0.229 C 
HETATM   17  C1  UNL     1       4.530   5.609  24.835  1.00  0.00     0.118 C 
HETATM   18  O1  UNL     1       4.070   3.356  24.670  1.00  0.00    -0.273 OA
HETATM   19  O2  UNL     1       8.458   4.555  23.990  1.00  0.00    -0.237 OA
BRANCH  15  20
HETATM   20  C16 UNL     1       6.728   2.501  24.109  1.00  0.00     0.085 C 
BRANCH  20  21
HETATM   21  C17 UNL     1       7.230   1.739  25.265  1.00  0.00     0.083 C 
BRANCH  21  22
HETATM   22  S2  UNL     1       8.063   0.229  25.166  1.00  0.00    -0.073 SA
BRANCH  22  23
HETATM   23  C18 UNL     1       7.388  -1.193  25.989  1.00  0.00     0.134 A 
HETATM   24  N9  UNL     1       6.664  -2.204  25.562  1.00  0.00    -0.286 N 
HETATM   25  N10 UNL     1       6.283  -3.130  26.350  1.00  0.00    -0.279 N 
ATOM     26  H9  UNL     1       6.400  -2.248  24.578  1.00  0.00     0.188 HD
HETATM   27  C19 UNL     1       6.639  -3.055  27.636  1.00  0.00     0.159 A 
ATOM     28  H10 UNL     1       5.721  -3.910  26.009  1.00  0.00     0.189 HD
HETATM   29  N11 UNL     1       6.347  -3.908  28.594  1.00  0.00    -0.379 N 
HETATM   30  S3  UNL     1       7.537  -1.611  27.673  1.00  0.00    -0.026 SA
ATOM     31 2H11 UNL     1       5.808  -4.774  28.571  1.00  0.00     0.158 HD
ATOM     32 1H11 UNL     1       6.619  -3.850  29.576  1.00  0.00     0.158 HD
ENDBRANCH  22  23
ENDBRANCH  21  22
ENDBRANCH  20  21
BRANCH  20  33
HETATM   33  C20 UNL     1       5.974   1.782  23.056  1.00  0.00     0.306 C 
BRANCH  33  34
HETATM   34  O10 UNL     1       4.934   0.986  23.425  1.00  0.00    -0.366 OA
ATOM     35  H10 UNL     1       4.544   0.415  22.774  1.00  0.00     0.213 HD
ENDBRANCH  33  34
BRANCH  33  36
HETATM   36  O11 UNL     1       6.910   0.975  22.362  1.00  0.00    -0.366 OA
ATOM     37  H11 UNL     1       6.477   0.667  21.575  1.00  0.00     0.213 HD
ENDBRANCH  33  36
ENDBRANCH  20  33
ENDBRANCH  15  20
ENDBRANCH  13  14
ENDBRANCH  12  13
ENDBRANCH   1  12
BRANCH   2  38
HETATM   38  C7  UNL     1       9.952   5.454  26.597  1.00  0.00     0.227 C 
HETATM   39  O4  UNL     1      10.907   5.413  25.758  1.00  0.00    -0.643 OA
HETATM   40  O5  UNL     1       9.602   4.181  27.031  1.00  0.00    -0.643 OA
ENDBRANCH   2  38
BRANCH  11  41
HETATM   41  C15 UNL     1       7.931   9.828  25.937  1.00  0.00     0.201 C 
HETATM   42  O8  UNL     1       8.988  10.512  25.919  1.00  0.00    -0.646 OA
HETATM   43  O9  UNL     1       6.859  10.280  25.191  1.00  0.00    -0.646 OA
ENDBRANCH  11  41
BRANCH   6  44
HETATM   44  N3  UNL     1       8.497   6.256  31.056  1.00  0.00    -0.064 N 
ATOM     45  H33 UNL     1       8.702   5.258  31.103  1.00  0.00     0.275 HD
ATOM     46  H32 UNL     1       8.187   6.388  32.019  1.00  0.00     0.275 HD
ATOM     47  H31 UNL     1       7.759   6.465  30.385  1.00  0.00     0.275 HD
ENDBRANCH   6  44
BRANCH   7  48
HETATM   48  N4  UNL     1      10.267   9.372  30.546  1.00  0.00    -0.269 N 
HETATM   49  C11 UNL     1      11.240   9.374  31.504  1.00  0.00     0.151 A 
HETATM   50  C12 UNL     1      11.965  10.480  31.289  1.00  0.00     0.151 A 
HETATM   51  N6  UNL     1      11.523  11.139  30.304  1.00  0.00    -0.273 N 
HETATM   52  N7  UNL     1      10.452  10.471  29.807  1.00  0.00    -0.019 NA
ATOM     53  H6  UNL     1      11.904  12.015  29.948  1.00  0.00     0.185 HD
BRANCH  50  54
HETATM   54  S1  UNL     1      13.423  10.805  32.189  1.00  0.00     0.163 S 
HETATM   55  O7  UNL     1      14.032  10.574  30.716  1.00  0.00    -0.229 OA
BRANCH  54  56
HETATM   56  N5  UNL     1      13.782  11.064  33.315  1.00  0.00    -0.344 N 
ATOM     57  H52 UNL     1      13.571  10.817  34.282  1.00  0.00     0.166 HD
ATOM     58  H51 UNL     1      14.459  11.647  33.808  1.00  0.00     0.166 HD
ENDBRANCH  54  56
ENDBRANCH  50  54
ENDBRANCH   7  48
TORSDOF 16
ENDMDL
MODEL 5
REMARK VINA RESULT: -9.159606484      3.570      5.149
REMARK  16 active torsions:
REMARK  status: ('A' for Active; 'I' for Inactive)
REMARK       I    between atoms: C2_2  and  N1_4 
REMARK       I    between atoms: N1_4  and  C3_5 
REMARK    1  A    between atoms: N1_4  and  C16_41 
REMARK    2  A    between atoms: C3_5  and  O3_7 
REMARK    3  A    between atoms: O3_7  and  C4_8 
REMARK    4  A    between atoms: C4_8  and  C5_9 
REMARK    5  A    between atoms: C6_10  and  C7_11 
REMARK    6  A    between atoms: C9_17  and  N3_18 
REMARK    7  A    between atoms: C10_22  and  N4_23 
REMARK    8  A    between atoms: C12_25  and  S1_26 
REMARK    9  A    between atoms: S1_26  and  N5_27 
REMARK   10  A    between atoms: C14_37  and  C15_38 
REMARK   11  A    between atoms: C16_41  and  C17_42 
REMARK   12  A    between atoms: C16_41  and  C20_54 
REMARK   13  A    between atoms: C17_42  and  S2_43 
REMARK   14  A    between atoms: S2_43  and  C18_44 
REMARK   15  A    between atoms: C20_54  and  O10_55 
REMARK   16  A    between atoms: C20_54  and  O11_57 
ROOT
HETATM    1  C5  UNL     1       8.572   7.308  29.585  1.00  0.00     0.011 A 
HETATM    2  C6  UNL     1       9.332   6.513  28.826  1.00  0.00     0.127 A 
HETATM    3  N2  UNL     1       9.128   6.383  27.389  1.00  0.00    -0.261 N 
HETATM    4  C8  UNL     1       9.704   5.604  26.355  1.00  0.00     0.263 C 
HETATM    5  O6  UNL     1      10.309   4.544  26.436  1.00  0.00    -0.270 OA
HETATM    6  C9  UNL     1       9.426   6.340  25.070  1.00  0.00     0.307 C 
HETATM    7  C10 UNL     1       8.064   6.885  25.323  1.00  0.00     0.213 C 
HETATM    8  C13 UNL     1       8.084   7.155  26.808  1.00  0.00     0.115 A 
HETATM    9  N8  UNL     1       7.408   7.907  27.541  1.00  0.00    -0.359 N 
ATOM     10  H8  UNL     1       6.669   8.429  27.071  1.00  0.00     0.162 HD
HETATM   11  C14 UNL     1       7.523   8.135  28.936  1.00  0.00     0.218 A 
ENDROOT
BRANCH   1  12
HETATM   12  C4  UNL     1       8.788   7.473  31.024  1.00  0.00     0.220 C 
BRANCH  12  13
HETATM   13  O3  UNL     1       8.929   8.844  31.458  1.00  0.00    -0.299 OA
BRANCH  13  14
HETATM   14  C3  UNL     1       9.679   9.710  30.688  1.00  0.00     0.374 C 
HETATM   15  N1  UNL     1       9.378  11.029  30.294  1.00  0.00    -0.226 N 
HETATM   16  C2  UNL     1       8.220  11.636  30.803  1.00  0.00     0.229 C 
HETATM   17  C1  UNL     1       7.317  10.964  31.741  1.00  0.00     0.118 C 
HETATM   18  O1  UNL     1       7.911  12.796  30.472  1.00  0.00    -0.273 OA
HETATM   19  O2  UNL     1      10.796   9.217  30.291  1.00  0.00    -0.237 OA
BRANCH  15  20
HETATM   20  C16 UNL     1      10.307  11.702  29.388  1.00  0.00     0.085 C 
BRANCH  20  21
HETATM   21  C17 UNL     1       9.766  12.143  28.091  1.00  0.00     0.083 C 
BRANCH  21  22
HETATM   22  S2  UNL     1       8.802  11.167  27.040  1.00  0.00    -0.073 SA
BRANCH  22  23
HETATM   23  C18 UNL     1       7.065  11.501  26.891  1.00  0.00     0.134 A 
HETATM   24  N9  UNL     1       6.022  11.102  27.585  1.00  0.00    -0.286 N 
HETATM   25  N10 UNL     1       4.841  11.476  27.288  1.00  0.00    -0.279 N 
ATOM     26  H9  UNL     1       6.161  10.477  28.380  1.00  0.00     0.188 HD
HETATM   27  C19 UNL     1       4.679  12.294  26.244  1.00  0.00     0.159 A 
ATOM     28  H10 UNL     1       4.039  11.159  27.833  1.00  0.00     0.189 HD
HETATM   29  N11 UNL     1       3.547  12.786  25.787  1.00  0.00    -0.379 N 
HETATM   30  S3  UNL     1       6.278  12.506  25.705  1.00  0.00    -0.026 SA
ATOM     31 2H11 UNL     1       2.589  12.659  26.110  1.00  0.00     0.158 HD
ATOM     32 1H11 UNL     1       3.424  13.411  24.990  1.00  0.00     0.158 HD
ENDBRANCH  22  23
ENDBRANCH  21  22
ENDBRANCH  20  21
BRANCH  20  33
HETATM   33  C20 UNL     1      11.345  12.530  30.044  1.00  0.00     0.306 C 
BRANCH  33  34
HETATM   34  O10 UNL     1      11.715  13.701  29.456  1.00  0.00    -0.366 OA
ATOM     35  H10 UNL     1      12.472  14.162  29.796  1.00  0.00     0.213 HD
ENDBRANCH  33  34
BRANCH  33  36
HETATM   36  O11 UNL     1      12.503  11.720  30.157  1.00  0.00    -0.366 OA
ATOM     37  H11 UNL     1      12.312  10.904  29.711  1.00  0.00     0.213 HD
ENDBRANCH  33  36
ENDBRANCH  20  33
ENDBRANCH  15  20
ENDBRANCH  13  14
ENDBRANCH  12  13
ENDBRANCH   1  12
BRANCH   2  38
HETATM   38  C7  UNL     1      10.423   5.751  29.373  1.00  0.00     0.227 C 
HETATM   39  O4  UNL     1      11.546   6.261  29.687  1.00  0.00    -0.643 OA
HETATM   40  O5  UNL     1      10.399   4.384  29.621  1.00  0.00    -0.643 OA
ENDBRANCH   2  38
BRANCH  11  41
HETATM   41  C15 UNL     1       6.213   8.177  29.575  1.00  0.00     0.201 C 
HETATM   42  O8  UNL     1       5.685   7.105  29.971  1.00  0.00    -0.646 OA
HETATM   43  O9  UNL     1       5.507   9.350  29.761  1.00  0.00    -0.646 OA
ENDBRANCH  11  41
BRANCH   6  44
HETATM   44  N3  UNL     1      10.353   7.444  24.926  1.00  0.00    -0.064 N 
ATOM     45  H33 UNL     1      11.167   7.343  25.531  1.00  0.00     0.275 HD
ATOM     46  H32 UNL     1      10.833   7.426  24.027  1.00  0.00     0.275 HD
ATOM     47  H31 UNL     1       9.866   8.327  25.083  1.00  0.00     0.275 HD
ENDBRANCH   6  44
BRANCH   7  48
HETATM   48  N4  UNL     1       7.042   5.980  24.950  1.00  0.00    -0.269 N 
HETATM   49  C11 UNL     1       7.169   4.656  24.640  1.00  0.00     0.151 A 
HETATM   50  C12 UNL     1       5.932   4.224  24.361  1.00  0.00     0.151 A 
HETATM   51  N6  UNL     1       5.082   5.153  24.469  1.00  0.00    -0.273 N 
HETATM   52  N7  UNL     1       5.743   6.278  24.841  1.00  0.00    -0.019 NA
ATOM     53  H6  UNL     1       4.078   5.073  24.306  1.00  0.00     0.185 HD
BRANCH  50  54
HETATM   54  S1  UNL     1       5.599   2.538  24.064  1.00  0.00     0.163 S 
HETATM   55  O7  UNL     1       6.358   2.444  25.482  1.00  0.00    -0.229 OA
BRANCH  54  56
HETATM   56  N5  UNL     1       5.079   1.824  23.238  1.00  0.00    -0.344 N 
ATOM     57  H52 UNL     1       4.230   1.276  23.098  1.00  0.00     0.166 HD
ATOM     58  H51 UNL     1       5.254   1.445  22.307  1.00  0.00     0.166 HD
ENDBRANCH  54  56
ENDBRANCH  50  54
ENDBRANCH   7  48
TORSDOF 16
ENDMDL
