MODEL 1
REMARK VINA RESULT: -5.750158475      0.000      0.000
REMARK  10 active torsions:
REMARK  status: ('A' for Active; 'I' for Inactive)
REMARK    1  A    between atoms: C2_2  and  N1_3 
REMARK    2  A    between atoms: C2_2  and  C3_7 
REMARK    3  A    between atoms: C4_10  and  N3_11 
REMARK    4  A    between atoms: N3_11  and  C5_13 
REMARK    5  A    between atoms: C5_13  and  N4_15 
REMARK       I    between atoms: N4_15  and  C6_17 
REMARK    6  A    between atoms: C6_17  and  C7_19 
REMARK    7  A    between atoms: C7_19  and  N5_20 
REMARK    8  A    between atoms: C7_19  and  C8_24 
REMARK    9  A    between atoms: C8_24  and  N6_25 
REMARK   10  A    between atoms: C11_33  and  N7_34 
ROOT
HETATM    1  C3  UNL     1      -5.015   0.443  25.467  1.00  0.00     0.139 C 
HETATM    2  N2  UNL     1      -6.218  -0.066  25.090  1.00  0.00    -0.393 N 
ATOM      3  H2  UNL     1      -6.285  -0.353  24.113  1.00  0.00     0.155 HD
HETATM    4  C4  UNL     1      -7.363  -0.251  25.838  1.00  0.00     0.189 C 
HETATM    5  C9  UNL     1      -7.302  -1.315  26.908  1.00  0.00     0.132 C 
HETATM    6  S2  UNL     1      -7.149  -0.615  28.576  1.00  0.00    -0.094 SA
HETATM    7  S3  UNL     1      -5.093  -0.651  29.126  1.00  0.00    -0.095 SA
HETATM    8  C10 UNL     1      -4.132  -0.373  27.603  1.00  0.00     0.121 C 
HETATM    9  C11 UNL     1      -4.688   0.835  26.838  1.00  0.00     0.217 C 
ENDROOT
BRANCH   4  10
HETATM   10  N3  UNL     1      -8.436  -0.636  24.932  1.00  0.00    -0.345 N 
ATOM     11  H3  UNL     1      -8.359  -1.486  24.373  1.00  0.00     0.164 HD
BRANCH  10  12
HETATM   12  C5  UNL     1      -9.581   0.176  24.835  1.00  0.00     0.175 C 
HETATM   13  S1  UNL     1     -10.929  -0.250  25.729  1.00  0.00    -0.041 SA
BRANCH  12  14
HETATM   14  N4  UNL     1      -9.701   1.344  24.059  1.00  0.00    -0.302 N 
HETATM   15  C6  UNL     1      -8.904   1.726  22.974  1.00  0.00     0.256 C 
HETATM   16  O1  UNL     1      -7.937   1.097  22.495  1.00  0.00    -0.271 OA
ATOM     17  H4  UNL     1     -10.453   1.983  24.317  1.00  0.00     0.171 HD
BRANCH  15  18
HETATM   18  C7  UNL     1      -9.192   3.035  22.257  1.00  0.00     0.300 C 
BRANCH  18  19
HETATM   19  N5  UNL     1      -7.982   3.750  21.984  1.00  0.00    -0.065 N 
ATOM     20  H53 UNL     1      -7.543   4.086  22.841  1.00  0.00     0.275 HD
ATOM     21  H52 UNL     1      -7.242   3.125  21.664  1.00  0.00     0.275 HD
ATOM     22  H51 UNL     1      -8.146   4.508  21.322  1.00  0.00     0.275 HD
ENDBRANCH  18  19
BRANCH  18  23
HETATM   23  C8  UNL     1      -9.840   2.651  20.947  1.00  0.00     0.272 C 
BRANCH  23  24
HETATM   24  N6  UNL     1      -8.880   2.692  19.863  1.00  0.00    -0.077 N 
ATOM     25  H63 UNL     1      -8.394   3.588  19.824  1.00  0.00     0.274 HD
ATOM     26  H62 UNL     1      -8.077   2.089  20.047  1.00  0.00     0.274 HD
ATOM     27  H61 UNL     1      -9.324   2.465  18.973  1.00  0.00     0.274 HD
ENDBRANCH  23  24
ENDBRANCH  18  23
ENDBRANCH  15  18
ENDBRANCH  12  14
ENDBRANCH  10  12
ENDBRANCH   4  10
BRANCH   1  28
HETATM   28  C2  UNL     1      -4.702   1.648  24.550  1.00  0.00     0.203 C 
HETATM   29  C1  UNL     1      -4.802   1.278  23.101  1.00  0.00     0.042 C 
BRANCH  28  30
HETATM   30  N1  UNL     1      -3.358   2.127  24.801  1.00  0.00    -0.073 N 
ATOM     31  H13 UNL     1      -2.702   1.372  24.997  1.00  0.00     0.274 HD
ATOM     32  H12 UNL     1      -2.905   2.488  23.961  1.00  0.00     0.274 HD
ATOM     33  H11 UNL     1      -3.402   2.816  25.551  1.00  0.00     0.274 HD
ENDBRANCH  28  30
ENDBRANCH   1  28
BRANCH   9  34
HETATM   34  N7  UNL     1      -5.681   1.434  27.638  1.00  0.00    -0.072 N 
ATOM     35  H73 UNL     1      -5.275   1.664  28.545  1.00  0.00     0.274 HD
ATOM     36  H72 UNL     1      -5.883   2.363  27.268  1.00  0.00     0.274 HD
ATOM     37  H71 UNL     1      -6.562   0.944  27.789  1.00  0.00     0.274 HD
ENDBRANCH   9  34
TORSDOF 10
ENDMDL
MODEL 2
REMARK VINA RESULT: -5.710110334      1.110      1.228
REMARK  10 active torsions:
REMARK  status: ('A' for Active; 'I' for Inactive)
REMARK    1  A    between atoms: C2_2  and  N1_3 
REMARK    2  A    between atoms: C2_2  and  C3_7 
REMARK    3  A    between atoms: C4_10  and  N3_11 
REMARK    4  A    between atoms: N3_11  and  C5_13 
REMARK    5  A    between atoms: C5_13  and  N4_15 
REMARK       I    between atoms: N4_15  and  C6_17 
REMARK    6  A    between atoms: C6_17  and  C7_19 
REMARK    7  A    between atoms: C7_19  and  N5_20 
REMARK    8  A    between atoms: C7_19  and  C8_24 
REMARK    9  A    between atoms: C8_24  and  N6_25 
REMARK   10  A    between atoms: C11_33  and  N7_34 
ROOT
HETATM    1  C3  UNL     1      -4.352   0.149  25.700  1.00  0.00     0.139 C 
HETATM    2  N2  UNL     1      -5.444  -0.170  24.953  1.00  0.00    -0.393 N 
ATOM      3  H2  UNL     1      -5.245  -0.623  24.061  1.00  0.00     0.155 HD
HETATM    4  C4  UNL     1      -6.780   0.030  25.229  1.00  0.00     0.189 C 
HETATM    5  C9  UNL     1      -7.366  -0.793  26.351  1.00  0.00     0.132 C 
HETATM    6  S2  UNL     1      -7.615   0.175  27.867  1.00  0.00    -0.094 SA
HETATM    7  S3  UNL     1      -5.955  -0.169  29.154  1.00  0.00    -0.095 SA
HETATM    8  C10 UNL     1      -4.494  -0.394  28.086  1.00  0.00     0.121 C 
HETATM    9  C11 UNL     1      -4.422   0.727  27.042  1.00  0.00     0.217 C 
ENDROOT
BRANCH   4  10
HETATM   10  N3  UNL     1      -7.541  -0.299  24.032  1.00  0.00    -0.345 N 
ATOM     11  H3  UNL     1      -7.114  -0.845  23.284  1.00  0.00     0.164 HD
BRANCH  10  12
HETATM   12  C5  UNL     1      -8.872   0.143  23.917  1.00  0.00     0.175 C 
HETATM   13  S1  UNL     1     -10.092  -0.888  24.413  1.00  0.00    -0.041 SA
BRANCH  12  14
HETATM   14  N4  UNL     1      -9.286   1.397  23.433  1.00  0.00    -0.302 N 
HETATM   15  C6  UNL     1      -8.474   2.428  22.946  1.00  0.00     0.256 C 
HETATM   16  O1  UNL     1      -7.229   2.421  22.851  1.00  0.00    -0.271 OA
ATOM     17  H4  UNL     1     -10.291   1.576  23.439  1.00  0.00     0.171 HD
BRANCH  15  18
HETATM   18  C7  UNL     1      -9.112   3.721  22.464  1.00  0.00     0.300 C 
BRANCH  18  19
HETATM   19  N5  UNL     1      -8.122   4.728  22.230  1.00  0.00    -0.065 N 
ATOM     20  H53 UNL     1      -8.234   5.519  22.864  1.00  0.00     0.275 HD
ATOM     21  H52 UNL     1      -7.197   4.419  22.527  1.00  0.00     0.275 HD
ATOM     22  H51 UNL     1      -8.125   5.024  21.255  1.00  0.00     0.275 HD
ENDBRANCH  18  19
BRANCH  18  23
HETATM   23  C8  UNL     1      -9.787   3.383  21.154  1.00  0.00     0.272 C 
BRANCH  23  24
HETATM   24  N6  UNL     1      -8.853   2.758  20.239  1.00  0.00    -0.077 N 
ATOM     25  H63 UNL     1      -7.901   2.768  20.606  1.00  0.00     0.274 HD
ATOM     26  H62 UNL     1      -8.989   1.748  20.192  1.00  0.00     0.274 HD
ATOM     27  H61 UNL     1      -8.905   3.188  19.316  1.00  0.00     0.274 HD
ENDBRANCH  23  24
ENDBRANCH  18  23
ENDBRANCH  15  18
ENDBRANCH  12  14
ENDBRANCH  10  12
ENDBRANCH   4  10
BRANCH   1  28
HETATM   28  C2  UNL     1      -3.444   1.062  24.845  1.00  0.00     0.203 C 
HETATM   29  C1  UNL     1      -2.420   1.764  25.685  1.00  0.00     0.042 C 
BRANCH  28  30
HETATM   30  N1  UNL     1      -4.243   2.069  24.175  1.00  0.00    -0.073 N 
ATOM     31  H13 UNL     1      -4.423   2.883  24.762  1.00  0.00     0.274 HD
ATOM     32  H12 UNL     1      -3.733   2.545  23.431  1.00  0.00     0.274 HD
ATOM     33  H11 UNL     1      -5.099   1.625  23.843  1.00  0.00     0.274 HD
ENDBRANCH  28  30
ENDBRANCH   1  28
BRANCH   9  34
HETATM   34  N7  UNL     1      -5.436   1.660  27.337  1.00  0.00    -0.072 N 
ATOM     35  H73 UNL     1      -5.581   1.676  28.347  1.00  0.00     0.274 HD
ATOM     36  H72 UNL     1      -5.075   2.599  27.172  1.00  0.00     0.274 HD
ATOM     37  H71 UNL     1      -6.342   1.572  26.879  1.00  0.00     0.274 HD
ENDBRANCH   9  34
TORSDOF 10
ENDMDL
MODEL 3
REMARK VINA RESULT: -5.580535796      1.316      1.463
REMARK  10 active torsions:
REMARK  status: ('A' for Active; 'I' for Inactive)
REMARK    1  A    between atoms: C2_2  and  N1_3 
REMARK    2  A    between atoms: C2_2  and  C3_7 
REMARK    3  A    between atoms: C4_10  and  N3_11 
REMARK    4  A    between atoms: N3_11  and  C5_13 
REMARK    5  A    between atoms: C5_13  and  N4_15 
REMARK       I    between atoms: N4_15  and  C6_17 
REMARK    6  A    between atoms: C6_17  and  C7_19 
REMARK    7  A    between atoms: C7_19  and  N5_20 
REMARK    8  A    between atoms: C7_19  and  C8_24 
REMARK    9  A    between atoms: C8_24  and  N6_25 
REMARK   10  A    between atoms: C11_33  and  N7_34 
ROOT
HETATM    1  C3  UNL     1      -4.125   0.192  25.830  1.00  0.00     0.139 C 
HETATM    2  N2  UNL     1      -5.179  -0.083  25.014  1.00  0.00    -0.393 N 
ATOM      3  H2  UNL     1      -4.941  -0.522  24.125  1.00  0.00     0.155 HD
HETATM    4  C4  UNL     1      -6.524   0.147  25.217  1.00  0.00     0.189 C 
HETATM    5  C9  UNL     1      -7.195  -0.683  26.285  1.00  0.00     0.132 C 
HETATM    6  S2  UNL     1      -7.507   0.260  27.805  1.00  0.00    -0.094 SA
HETATM    7  S3  UNL     1      -5.933  -0.154  29.177  1.00  0.00    -0.095 SA
HETATM    8  C10 UNL     1      -4.419  -0.396  28.191  1.00  0.00     0.121 C 
HETATM    9  C11 UNL     1      -4.259   0.744  27.177  1.00  0.00     0.217 C 
ENDROOT
BRANCH   4  10
HETATM   10  N3  UNL     1      -7.223  -0.137  23.971  1.00  0.00    -0.345 N 
ATOM     11  H3  UNL     1      -6.768  -0.682  23.238  1.00  0.00     0.164 HD
BRANCH  10  12
HETATM   12  C5  UNL     1      -8.531   0.346  23.788  1.00  0.00     0.175 C 
HETATM   13  S1  UNL     1      -9.799  -0.552  24.404  1.00  0.00    -0.041 SA
BRANCH  12  14
HETATM   14  N4  UNL     1      -8.885   1.544  23.140  1.00  0.00    -0.302 N 
HETATM   15  C6  UNL     1      -9.530   1.682  21.906  1.00  0.00     0.256 C 
HETATM   16  O1  UNL     1      -9.912   0.762  21.151  1.00  0.00    -0.271 OA
ATOM     17  H4  UNL     1      -8.643   2.410  23.623  1.00  0.00     0.171 HD
BRANCH  15  18
HETATM   18  C7  UNL     1      -9.829   3.072  21.366  1.00  0.00     0.300 C 
BRANCH  18  19
HETATM   19  N5  UNL     1      -8.722   3.954  21.573  1.00  0.00    -0.065 N 
ATOM     20  H53 UNL     1      -7.850   3.439  21.703  1.00  0.00     0.275 HD
ATOM     21  H52 UNL     1      -8.479   4.458  20.720  1.00  0.00     0.275 HD
ATOM     22  H51 UNL     1      -8.900   4.591  22.349  1.00  0.00     0.275 HD
ENDBRANCH  18  19
BRANCH  18  23
HETATM   23  C8  UNL     1     -10.045   2.897  19.880  1.00  0.00     0.272 C 
BRANCH  23  24
HETATM   24  N6  UNL     1      -8.780   2.787  19.184  1.00  0.00    -0.077 N 
ATOM     25  H63 UNL     1      -8.782   3.317  18.312  1.00  0.00     0.274 HD
ATOM     26  H62 UNL     1      -8.037   3.291  19.669  1.00  0.00     0.274 HD
ATOM     27  H61 UNL     1      -8.533   1.809  19.030  1.00  0.00     0.274 HD
ENDBRANCH  23  24
ENDBRANCH  18  23
ENDBRANCH  15  18
ENDBRANCH  12  14
ENDBRANCH  10  12
ENDBRANCH   4  10
BRANCH   1  28
HETATM   28  C2  UNL     1      -3.146   1.098  25.048  1.00  0.00     0.203 C 
HETATM   29  C1  UNL     1      -2.121   1.711  25.953  1.00  0.00     0.042 C 
BRANCH  28  30
HETATM   30  N1  UNL     1      -3.873   2.171  24.400  1.00  0.00    -0.073 N 
ATOM     31  H13 UNL     1      -3.306   2.677  23.721  1.00  0.00     0.274 HD
ATOM     32  H12 UNL     1      -4.588   1.830  23.756  1.00  0.00     0.274 HD
ATOM     33  H11 UNL     1      -4.255   2.778  25.126  1.00  0.00     0.274 HD
ENDBRANCH  28  30
ENDBRANCH   1  28
BRANCH   9  34
HETATM   34  N7  UNL     1      -5.264   1.697  27.434  1.00  0.00    -0.072 N 
ATOM     35  H73 UNL     1      -5.916   1.703  26.651  1.00  0.00     0.274 HD
ATOM     36  H72 UNL     1      -5.859   1.350  28.187  1.00  0.00     0.274 HD
ATOM     37  H71 UNL     1      -4.997   2.658  27.645  1.00  0.00     0.274 HD
ENDBRANCH   9  34
TORSDOF 10
ENDMDL
MODEL 4
REMARK VINA RESULT: -5.557489021      1.998      5.719
REMARK  10 active torsions:
REMARK  status: ('A' for Active; 'I' for Inactive)
REMARK    1  A    between atoms: C2_2  and  N1_3 
REMARK    2  A    between atoms: C2_2  and  C3_7 
REMARK    3  A    between atoms: C4_10  and  N3_11 
REMARK    4  A    between atoms: N3_11  and  C5_13 
REMARK    5  A    between atoms: C5_13  and  N4_15 
REMARK       I    between atoms: N4_15  and  C6_17 
REMARK    6  A    between atoms: C6_17  and  C7_19 
REMARK    7  A    between atoms: C7_19  and  N5_20 
REMARK    8  A    between atoms: C7_19  and  C8_24 
REMARK    9  A    between atoms: C8_24  and  N6_25 
REMARK   10  A    between atoms: C11_33  and  N7_34 
ROOT
HETATM    1  C3  UNL     1      -8.860   0.801  24.166  1.00  0.00     0.139 C 
HETATM    2  N2  UNL     1      -8.238   0.011  25.083  1.00  0.00    -0.393 N 
ATOM      3  H2  UNL     1      -7.291   0.295  25.334  1.00  0.00     0.155 HD
HETATM    4  C4  UNL     1      -8.704  -1.119  25.723  1.00  0.00     0.189 C 
HETATM    5  C9  UNL     1      -9.816  -0.915  26.723  1.00  0.00     0.132 C 
HETATM    6  S2  UNL     1     -11.431  -1.447  26.085  1.00  0.00    -0.094 SA
HETATM    7  S3  UNL     1     -12.452   0.271  25.352  1.00  0.00    -0.095 SA
HETATM    8  C10 UNL     1     -11.187   1.388  24.665  1.00  0.00     0.121 C 
HETATM    9  C11 UNL     1     -10.244   0.614  23.734  1.00  0.00     0.217 C 
ENDROOT
BRANCH   4  10
HETATM   10  N3  UNL     1      -7.593  -1.713  26.453  1.00  0.00    -0.345 N 
ATOM     11  H3  UNL     1      -7.524  -2.726  26.551  1.00  0.00     0.164 HD
BRANCH  10  12
HETATM   12  C5  UNL     1      -6.616  -0.877  27.023  1.00  0.00     0.175 C 
HETATM   13  S1  UNL     1      -6.890  -0.274  28.559  1.00  0.00    -0.041 SA
BRANCH  12  14
HETATM   14  N4  UNL     1      -5.398  -0.504  26.425  1.00  0.00    -0.302 N 
HETATM   15  C6  UNL     1      -4.856   0.783  26.336  1.00  0.00     0.256 C 
HETATM   16  O1  UNL     1      -5.357   1.840  26.773  1.00  0.00    -0.271 OA
ATOM     17  H4  UNL     1      -4.849  -1.257  26.009  1.00  0.00     0.171 HD
BRANCH  15  18
HETATM   18  C7  UNL     1      -3.517   0.987  25.645  1.00  0.00     0.300 C 
BRANCH  18  19
HETATM   19  N5  UNL     1      -3.581   2.061  24.702  1.00  0.00    -0.065 N 
ATOM     20  H53 UNL     1      -2.786   2.049  24.064  1.00  0.00     0.275 HD
ATOM     21  H52 UNL     1      -4.329   1.918  24.023  1.00  0.00     0.275 HD
ATOM     22  H51 UNL     1      -3.670   2.959  25.176  1.00  0.00     0.275 HD
ENDBRANCH  18  19
BRANCH  18  23
HETATM   23  C8  UNL     1      -2.542   1.354  26.741  1.00  0.00     0.272 C 
BRANCH  23  24
HETATM   24  N6  UNL     1      -2.746   0.526  27.913  1.00  0.00    -0.077 N 
ATOM     25  H63 UNL     1      -3.265  -0.322  27.688  1.00  0.00     0.274 HD
ATOM     26  H62 UNL     1      -1.875   0.096  28.227  1.00  0.00     0.274 HD
ATOM     27  H61 UNL     1      -3.194   1.057  28.660  1.00  0.00     0.274 HD
ENDBRANCH  23  24
ENDBRANCH  18  23
ENDBRANCH  15  18
ENDBRANCH  12  14
ENDBRANCH  10  12
ENDBRANCH   4  10
BRANCH   1  28
HETATM   28  C2  UNL     1      -7.976   0.840  22.899  1.00  0.00     0.203 C 
HETATM   29  C1  UNL     1      -6.517   0.865  23.244  1.00  0.00     0.042 C 
BRANCH  28  30
HETATM   30  N1  UNL     1      -8.274   2.026  22.122  1.00  0.00    -0.073 N 
ATOM     31  H13 UNL     1      -8.709   2.762  22.678  1.00  0.00     0.274 HD
ATOM     32  H12 UNL     1      -7.436   2.538  21.847  1.00  0.00     0.274 HD
ATOM     33  H11 UNL     1      -8.845   1.747  21.323  1.00  0.00     0.274 HD
ENDBRANCH  28  30
ENDBRANCH   1  28
BRANCH   9  34
HETATM   34  N7  UNL     1     -10.752  -0.693  23.594  1.00  0.00    -0.072 N 
ATOM     35  H73 UNL     1     -10.341  -1.115  22.762  1.00  0.00     0.274 HD
ATOM     36  H72 UNL     1     -10.357  -1.278  24.331  1.00  0.00     0.274 HD
ATOM     37  H71 UNL     1     -11.761  -0.835  23.569  1.00  0.00     0.274 HD
ENDBRANCH   9  34
TORSDOF 10
ENDMDL
MODEL 5
REMARK VINA RESULT: -5.546313897      2.122      5.653
REMARK  10 active torsions:
REMARK  status: ('A' for Active; 'I' for Inactive)
REMARK    1  A    between atoms: C2_2  and  N1_3 
REMARK    2  A    between atoms: C2_2  and  C3_7 
REMARK    3  A    between atoms: C4_10  and  N3_11 
REMARK    4  A    between atoms: N3_11  and  C5_13 
REMARK    5  A    between atoms: C5_13  and  N4_15 
REMARK       I    between atoms: N4_15  and  C6_17 
REMARK    6  A    between atoms: C6_17  and  C7_19 
REMARK    7  A    between atoms: C7_19  and  N5_20 
REMARK    8  A    between atoms: C7_19  and  C8_24 
REMARK    9  A    between atoms: C8_24  and  N6_25 
REMARK   10  A    between atoms: C11_33  and  N7_34 
ROOT
HETATM    1  C3  UNL     1      -7.690   1.165  23.949  1.00  0.00     0.139 C 
HETATM    2  N2  UNL     1      -7.290   0.289  24.910  1.00  0.00    -0.393 N 
ATOM      3  H2  UNL     1      -6.490   0.589  25.469  1.00  0.00     0.155 HD
HETATM    4  C4  UNL     1      -7.809  -0.947  25.238  1.00  0.00     0.189 C 
HETATM    5  C9  UNL     1      -9.180  -0.953  25.870  1.00  0.00     0.132 C 
HETATM    6  S2  UNL     1     -10.476  -1.480  24.714  1.00  0.00    -0.094 SA
HETATM    7  S3  UNL     1     -11.402   0.263  23.917  1.00  0.00    -0.095 SA
HETATM    8  C10 UNL     1     -10.107   1.539  23.785  1.00  0.00     0.121 C 
HETATM    9  C11 UNL     1      -8.862   0.963  23.099  1.00  0.00     0.217 C 
ENDROOT
BRANCH   4  10
HETATM   10  N3  UNL     1      -6.908  -1.574  26.195  1.00  0.00    -0.345 N 
ATOM     11  H3  UNL     1      -6.709  -2.573  26.137  1.00  0.00     0.164 HD
BRANCH  10  12
HETATM   12  C5  UNL     1      -6.313  -0.790  27.200  1.00  0.00     0.175 C 
HETATM   13  S1  UNL     1      -7.251  -0.342  28.510  1.00  0.00    -0.041 SA
BRANCH  12  14
HETATM   14  N4  UNL     1      -4.976  -0.351  27.222  1.00  0.00    -0.302 N 
HETATM   15  C6  UNL     1      -4.511   0.959  27.062  1.00  0.00     0.256 C 
HETATM   16  O1  UNL     1      -5.202   1.982  26.869  1.00  0.00    -0.271 OA
ATOM     17  H4  UNL     1      -4.267  -1.069  27.371  1.00  0.00     0.171 HD
BRANCH  15  18
HETATM   18  C7  UNL     1      -3.018   1.237  27.117  1.00  0.00     0.300 C 
BRANCH  18  19
HETATM   19  N5  UNL     1      -2.274   0.026  27.286  1.00  0.00    -0.065 N 
ATOM     20  H53 UNL     1      -2.882  -0.793  27.265  1.00  0.00     0.275 HD
ATOM     21  H52 UNL     1      -1.704  -0.181  26.467  1.00  0.00     0.275 HD
ATOM     22  H51 UNL     1      -1.713   0.056  28.137  1.00  0.00     0.275 HD
ENDBRANCH  18  19
BRANCH  18  23
HETATM   23  C8  UNL     1      -2.665   1.845  25.778  1.00  0.00     0.272 C 
BRANCH  23  24
HETATM   24  N6  UNL     1      -1.317   1.484  25.386  1.00  0.00    -0.077 N 
ATOM     25  H63 UNL     1      -0.692   1.432  26.191  1.00  0.00     0.274 HD
ATOM     26  H62 UNL     1      -1.260   0.512  25.083  1.00  0.00     0.274 HD
ATOM     27  H61 UNL     1      -0.962   2.122  24.673  1.00  0.00     0.274 HD
ENDBRANCH  23  24
ENDBRANCH  18  23
ENDBRANCH  15  18
ENDBRANCH  12  14
ENDBRANCH  10  12
ENDBRANCH   4  10
BRANCH   1  28
HETATM   28  C2  UNL     1      -6.482   1.437  23.024  1.00  0.00     0.203 C 
HETATM   29  C1  UNL     1      -5.211   0.893  23.603  1.00  0.00     0.042 C 
BRANCH  28  30
HETATM   30  N1  UNL     1      -6.315   2.863  22.832  1.00  0.00    -0.073 N 
ATOM     31  H13 UNL     1      -7.203   3.353  22.730  1.00  0.00     0.274 HD
ATOM     32  H12 UNL     1      -5.991   3.338  23.675  1.00  0.00     0.274 HD
ATOM     33  H11 UNL     1      -5.693   3.006  22.036  1.00  0.00     0.274 HD
ENDBRANCH  28  30
ENDBRANCH   1  28
BRANCH   9  34
HETATM   34  N7  UNL     1      -9.175  -0.338  22.656  1.00  0.00    -0.072 N 
ATOM     35  H73 UNL     1      -8.418  -0.966  22.925  1.00  0.00     0.274 HD
ATOM     36  H72 UNL     1      -9.945  -0.699  23.219  1.00  0.00     0.274 HD
ATOM     37  H71 UNL     1      -9.391  -0.491  21.671  1.00  0.00     0.274 HD
ENDBRANCH   9  34
TORSDOF 10
ENDMDL
