MODEL 1
REMARK VINA RESULT: -8.629721441      0.000      0.000
REMARK  8 active torsions:
REMARK  status: ('A' for Active; 'I' for Inactive)
REMARK    1  A    between atoms: N1_1  and  C1_4 
REMARK    2  A    between atoms: C2_7  and  C3_8 
REMARK    3  A    between atoms: N5_18  and  C8_19 
REMARK    4  A    between atoms: C8_19  and  C9_20 
REMARK    5  A    between atoms: C9_20  and  S1_21 
REMARK    6  A    between atoms: S1_21  and  C10_22 
REMARK    7  A    between atoms: C11_27  and  C12_28 
REMARK    8  A    between atoms: C12_28  and  C13_29 
ROOT
HETATM    1  C10 UNL     1      25.293  31.054  23.414  1.00  0.00     0.173 A 
HETATM    2  N6  UNL     1      26.229  31.784  24.025  1.00  0.00    -0.277 N 
ATOM      3  H6  UNL     1      26.437  32.728  23.701  1.00  0.00     0.189 HD
HETATM    4  N7  UNL     1      26.891  31.266  25.066  1.00  0.00    -0.286 N 
ATOM      5  H7  UNL     1      27.607  31.825  25.532  1.00  0.00     0.188 HD
HETATM    6  C11 UNL     1      26.635  30.031  25.506  1.00  0.00     0.117 A 
HETATM    7  N12 UNL     1      25.698  29.301  24.895  1.00  0.00    -0.286 N 
ATOM      8  H12 UNL     1      25.489  28.357  25.218  1.00  0.00     0.188 HD
HETATM    9  N13 UNL     1      25.037  29.822  23.855  1.00  0.00    -0.277 N 
ATOM     10  H13 UNL     1      24.322  29.264  23.388  1.00  0.00     0.189 HD
ENDROOT
BRANCH   1  11
HETATM   11  S1  UNL     1      24.414  31.762  22.021  1.00  0.00    -0.090 SA
BRANCH  11  12
HETATM   12  C9  UNL     1      24.597  30.614  20.631  1.00  0.00     0.104 C 
BRANCH  12  13
HETATM   13  C8  UNL     1      26.040  30.624  20.116  1.00  0.00     0.160 C 
BRANCH  13  14
HETATM   14  N5  UNL     1      26.503  29.261  20.051  1.00  0.00    -0.285 N 
HETATM   15  C6  UNL     1      27.255  28.505  20.865  1.00  0.00     0.133 A 
HETATM   16  C5  UNL     1      27.931  28.556  22.059  1.00  0.00     0.204 C 
HETATM   17  C7  UNL     1      27.164  27.418  20.024  1.00  0.00     0.124 A 
HETATM   18  C4  UNL     1      28.607  27.518  22.701  1.00  0.00     0.092 C 
HETATM   19  O2  UNL     1      27.946  29.673  22.650  1.00  0.00    -0.286 OA
HETATM   20  C2  UNL     1      28.757  26.197  22.338  1.00  0.00     0.103 C 
HETATM   21  N2  UNL     1      28.434  25.664  21.148  1.00  0.00    -0.337 N 
HETATM   22  C1  UNL     1      27.690  26.157  20.131  1.00  0.00     0.130 C 
ATOM     23  H2  UNL     1      28.812  24.731  20.984  1.00  0.00     0.167 HD
HETATM   24  N4  UNL     1      26.417  28.213  19.244  1.00  0.00    -0.292 N 
ATOM     25  H4  UNL     1      25.951  28.065  18.350  1.00  0.00     0.187 HD
BRANCH  20  26
HETATM   26  C3  UNL     1      29.313  25.275  23.313  1.00  0.00     0.281 C 
HETATM   27  N3  UNL     1      29.040  23.889  23.257  1.00  0.00    -0.056 NA
HETATM   28  O1  UNL     1      30.049  25.734  24.219  1.00  0.00    -0.269 OA
ENDBRANCH  20  26
BRANCH  22  29
HETATM   29  N1  UNL     1      27.441  25.367  19.154  1.00  0.00    -0.384 N 
ATOM     30  H12 UNL     1      27.409  24.373  19.385  1.00  0.00     0.157 HD
ATOM     31  H11 UNL     1      27.298  25.791  18.237  1.00  0.00     0.157 HD
ENDBRANCH  22  29
ENDBRANCH  13  14
ENDBRANCH  12  13
ENDBRANCH  11  12
ENDBRANCH   1  11
BRANCH   6  32
HETATM   32  C12 UNL     1      27.393  29.507  26.657  1.00  0.00     0.155 C 
BRANCH  32  33
HETATM   33  C13 UNL     1      27.114  28.056  26.790  1.00  0.00     0.090 A 
HETATM   34  N8  UNL     1      27.820  27.082  26.145  1.00  0.00    -0.330 N 
HETATM   35  C14 UNL     1      27.335  25.876  26.464  1.00  0.00     0.141 A 
ATOM     36  H8  UNL     1      28.602  27.249  25.512  1.00  0.00     0.168 HD
HETATM   37  N9  UNL     1      27.695  24.648  26.086  1.00  0.00    -0.320 N 
HETATM   38  C17 UNL     1      26.282  26.120  27.347  1.00  0.00     0.147 A 
HETATM   39  C15 UNL     1      27.028  23.583  26.566  1.00  0.00     0.160 A 
ATOM     40  H9  UNL     1      28.471  24.518  25.438  1.00  0.00     0.169 HD
HETATM   41  S2  UNL     1      27.533  21.947  26.042  1.00  0.00    -0.013 SA
HETATM   42  N10 UNL     1      26.001  23.750  27.422  1.00  0.00    -0.301 N 
HETATM   43  C16 UNL     1      25.627  24.991  27.812  1.00  0.00     0.278 A 
ATOM     44  H10 UNL     1      25.502  22.935  27.779  1.00  0.00     0.171 HD
HETATM   45  O3  UNL     1      24.679  25.124  28.600  1.00  0.00    -0.265 OA
HETATM   46  N11 UNL     1      26.165  27.444  27.530  1.00  0.00    -0.338 N 
ATOM     47  H11 UNL     1      25.479  27.908  28.126  1.00  0.00     0.167 HD
ENDBRANCH  32  33
ENDBRANCH   6  32
TORSDOF 8
ENDMDL
MODEL 2
REMARK VINA RESULT: -8.148231403      2.468      3.003
REMARK  8 active torsions:
REMARK  status: ('A' for Active; 'I' for Inactive)
REMARK    1  A    between atoms: N1_1  and  C1_4 
REMARK    2  A    between atoms: C2_7  and  C3_8 
REMARK    3  A    between atoms: N5_18  and  C8_19 
REMARK    4  A    between atoms: C8_19  and  C9_20 
REMARK    5  A    between atoms: C9_20  and  S1_21 
REMARK    6  A    between atoms: S1_21  and  C10_22 
REMARK    7  A    between atoms: C11_27  and  C12_28 
REMARK    8  A    between atoms: C12_28  and  C13_29 
ROOT
HETATM    1  C10 UNL     1      26.309  30.322  25.013  1.00  0.00     0.173 A 
HETATM    2  N6  UNL     1      27.265  30.466  25.934  1.00  0.00    -0.277 N 
ATOM      3  H6  UNL     1      27.707  31.374  26.078  1.00  0.00     0.189 HD
HETATM    4  N7  UNL     1      27.638  29.409  26.666  1.00  0.00    -0.286 N 
ATOM      5  H7  UNL     1      28.369  29.521  27.369  1.00  0.00     0.188 HD
HETATM    6  C11 UNL     1      27.072  28.211  26.493  1.00  0.00     0.117 A 
HETATM    7  N12 UNL     1      26.115  28.068  25.572  1.00  0.00    -0.286 N 
ATOM      8  H12 UNL     1      25.672  27.161  25.427  1.00  0.00     0.188 HD
HETATM    9  N13 UNL     1      25.744  29.126  24.842  1.00  0.00    -0.277 N 
ATOM     10  H13 UNL     1      25.013  29.016  24.139  1.00  0.00     0.189 HD
ENDROOT
BRANCH   1  11
HETATM   11  S1  UNL     1      25.820  31.747  24.041  1.00  0.00    -0.090 SA
BRANCH  11  12
HETATM   12  C9  UNL     1      26.026  31.302  22.297  1.00  0.00     0.104 C 
BRANCH  12  13
HETATM   13  C8  UNL     1      27.488  30.950  22.005  1.00  0.00     0.160 C 
BRANCH  13  14
HETATM   14  N5  UNL     1      27.536  29.590  21.529  1.00  0.00    -0.285 N 
HETATM   15  C6  UNL     1      27.981  28.443  22.065  1.00  0.00     0.133 A 
HETATM   16  C5  UNL     1      28.568  27.945  23.202  1.00  0.00     0.204 C 
HETATM   17  C7  UNL     1      27.629  27.723  20.944  1.00  0.00     0.124 A 
HETATM   18  C4  UNL     1      28.869  26.615  23.492  1.00  0.00     0.092 C 
HETATM   19  O2  UNL     1      28.872  28.787  24.094  1.00  0.00    -0.286 OA
HETATM   20  C2  UNL     1      28.649  25.472  22.754  1.00  0.00     0.103 C 
HETATM   21  N2  UNL     1      28.259  25.425  21.469  1.00  0.00    -0.337 N 
HETATM   22  C1  UNL     1      27.756  26.388  20.662  1.00  0.00     0.130 C 
ATOM     23  H2  UNL     1      28.358  24.511  21.028  1.00  0.00     0.167 HD
HETATM   24  N4  UNL     1      27.198  28.894  20.453  1.00  0.00    -0.292 N 
ATOM     25  H4  UNL     1      26.766  29.156  19.568  1.00  0.00     0.187 HD
BRANCH  20  26
HETATM   26  C3  UNL     1      28.849  24.186  23.400  1.00  0.00     0.281 C 
HETATM   27  N3  UNL     1      27.853  23.611  24.223  1.00  0.00    -0.056 NA
HETATM   28  O1  UNL     1      29.934  23.586  23.215  1.00  0.00    -0.269 OA
ENDBRANCH  20  26
BRANCH  22  29
HETATM   29  N1  UNL     1      27.348  26.025  19.503  1.00  0.00    -0.384 N 
ATOM     30  H12 UNL     1      28.079  25.808  18.826  1.00  0.00     0.157 HD
ATOM     31  H11 UNL     1      26.340  25.984  19.357  1.00  0.00     0.157 HD
ENDBRANCH  22  29
ENDBRANCH  13  14
ENDBRANCH  12  13
ENDBRANCH  11  12
ENDBRANCH   1  11
BRANCH   6  32
HETATM   32  C12 UNL     1      27.518  27.080  27.325  1.00  0.00     0.155 C 
BRANCH  32  33
HETATM   33  C13 UNL     1      26.360  26.571  28.098  1.00  0.00     0.090 A 
HETATM   34  N8  UNL     1      26.012  27.025  29.338  1.00  0.00    -0.330 N 
HETATM   35  C14 UNL     1      24.927  26.377  29.777  1.00  0.00     0.141 A 
ATOM     36  H8  UNL     1      26.508  27.753  29.854  1.00  0.00     0.168 HD
HETATM   37  N9  UNL     1      24.233  26.477  30.913  1.00  0.00    -0.320 N 
HETATM   38  C17 UNL     1      24.591  25.481  28.760  1.00  0.00     0.147 A 
HETATM   39  C15 UNL     1      23.159  25.692  31.107  1.00  0.00     0.160 A 
ATOM     40  H9  UNL     1      24.516  27.146  31.629  1.00  0.00     0.169 HD
HETATM   41  S2  UNL     1      22.248  25.848  32.640  1.00  0.00    -0.013 SA
HETATM   42  N10 UNL     1      22.782  24.806  30.164  1.00  0.00    -0.301 N 
HETATM   43  C16 UNL     1      23.478  24.695  29.009  1.00  0.00     0.278 A 
ATOM     44  H10 UNL     1      21.966  24.214  30.322  1.00  0.00     0.171 HD
HETATM   45  O3  UNL     1      23.116  23.874  28.153  1.00  0.00    -0.265 OA
HETATM   46  N11 UNL     1      25.471  25.615  27.755  1.00  0.00    -0.338 N 
ATOM     47  H11 UNL     1      25.467  25.086  26.882  1.00  0.00     0.167 HD
ENDBRANCH  32  33
ENDBRANCH   6  32
TORSDOF 8
ENDMDL
MODEL 3
REMARK VINA RESULT: -8.103771748      3.061      5.838
REMARK  8 active torsions:
REMARK  status: ('A' for Active; 'I' for Inactive)
REMARK    1  A    between atoms: N1_1  and  C1_4 
REMARK    2  A    between atoms: C2_7  and  C3_8 
REMARK    3  A    between atoms: N5_18  and  C8_19 
REMARK    4  A    between atoms: C8_19  and  C9_20 
REMARK    5  A    between atoms: C9_20  and  S1_21 
REMARK    6  A    between atoms: S1_21  and  C10_22 
REMARK    7  A    between atoms: C11_27  and  C12_28 
REMARK    8  A    between atoms: C12_28  and  C13_29 
ROOT
HETATM    1  C10 UNL     1      27.964  26.175  23.382  1.00  0.00     0.173 A 
HETATM    2  N6  UNL     1      28.516  25.051  23.843  1.00  0.00    -0.277 N 
ATOM      3  H6  UNL     1      28.809  24.318  23.197  1.00  0.00     0.189 HD
HETATM    4  N7  UNL     1      28.682  24.892  25.162  1.00  0.00    -0.286 N 
ATOM      5  H7  UNL     1      29.104  24.033  25.513  1.00  0.00     0.188 HD
HETATM    6  C11 UNL     1      28.306  25.838  26.027  1.00  0.00     0.117 A 
HETATM    7  N12 UNL     1      27.754  26.964  25.565  1.00  0.00    -0.286 N 
ATOM      8  H12 UNL     1      27.461  27.697  26.210  1.00  0.00     0.188 HD
HETATM    9  N13 UNL     1      27.590  27.119  24.246  1.00  0.00    -0.277 N 
ATOM     10  H13 UNL     1      27.168  27.979  23.894  1.00  0.00     0.189 HD
ENDROOT
BRANCH   1  11
HETATM   11  S1  UNL     1      27.748  26.372  21.613  1.00  0.00    -0.090 SA
BRANCH  11  12
HETATM   12  C9  UNL     1      28.918  27.645  21.069  1.00  0.00     0.104 C 
BRANCH  12  13
HETATM   13  C8  UNL     1      28.175  28.788  20.370  1.00  0.00     0.160 C 
BRANCH  13  14
HETATM   14  N5  UNL     1      27.658  29.673  21.382  1.00  0.00    -0.285 N 
HETATM   15  C6  UNL     1      26.608  30.507  21.426  1.00  0.00     0.133 A 
HETATM   16  C5  UNL     1      25.558  30.955  20.661  1.00  0.00     0.204 C 
HETATM   17  C7  UNL     1      26.903  30.894  22.715  1.00  0.00     0.124 A 
HETATM   18  C4  UNL     1      24.543  31.833  21.038  1.00  0.00     0.092 C 
HETATM   19  O2  UNL     1      25.502  30.523  19.474  1.00  0.00    -0.286 OA
HETATM   20  C2  UNL     1      24.308  32.454  22.246  1.00  0.00     0.103 C 
HETATM   21  N2  UNL     1      25.152  32.493  23.291  1.00  0.00    -0.337 N 
HETATM   22  C1  UNL     1      26.273  31.780  23.549  1.00  0.00     0.130 C 
ATOM     23  H2  UNL     1      24.907  33.173  24.010  1.00  0.00     0.167 HD
HETATM   24  N4  UNL     1      27.938  30.047  22.622  1.00  0.00    -0.292 N 
ATOM     25  H4  UNL     1      28.678  29.786  23.273  1.00  0.00     0.187 HD
BRANCH  20  26
HETATM   26  C3  UNL     1      23.039  33.136  22.434  1.00  0.00     0.281 C 
HETATM   27  N3  UNL     1      22.219  33.483  21.335  1.00  0.00    -0.056 NA
HETATM   28  O1  UNL     1      22.677  33.415  23.601  1.00  0.00    -0.269 OA
ENDBRANCH  20  26
BRANCH  22  29
HETATM   29  N1  UNL     1      26.816  31.942  24.698  1.00  0.00    -0.384 N 
ATOM     30  H12 UNL     1      27.714  32.425  24.699  1.00  0.00     0.157 HD
ATOM     31  H11 UNL     1      26.311  31.576  25.506  1.00  0.00     0.157 HD
ENDBRANCH  22  29
ENDBRANCH  13  14
ENDBRANCH  12  13
ENDBRANCH  11  12
ENDBRANCH   1  11
BRANCH   6  32
HETATM   32  C12 UNL     1      28.511  25.616  27.469  1.00  0.00     0.155 C 
BRANCH  32  33
HETATM   33  C13 UNL     1      27.187  25.561  28.136  1.00  0.00     0.090 A 
HETATM   34  N8  UNL     1      26.893  26.212  29.300  1.00  0.00    -0.330 N 
HETATM   35  C14 UNL     1      25.625  25.972  29.652  1.00  0.00     0.141 A 
ATOM     36  H8  UNL     1      27.545  26.796  29.824  1.00  0.00     0.168 HD
HETATM   37  N9  UNL     1      24.901  26.385  30.694  1.00  0.00    -0.320 N 
HETATM   38  C17 UNL     1      25.115  25.135  28.659  1.00  0.00     0.147 A 
HETATM   39  C15 UNL     1      23.620  25.990  30.813  1.00  0.00     0.160 A 
ATOM     40  H9  UNL     1      25.316  26.996  31.397  1.00  0.00     0.169 HD
HETATM   41  S2  UNL     1      22.674  26.558  32.222  1.00  0.00    -0.013 SA
HETATM   42  N10 UNL     1      23.068  25.180  29.887  1.00  0.00    -0.301 N 
HETATM   43  C16 UNL     1      23.793  24.756  28.826  1.00  0.00     0.278 A 
ATOM     44  H10 UNL     1      22.096  24.886  29.987  1.00  0.00     0.171 HD
HETATM   45  O3  UNL     1      23.267  24.012  27.985  1.00  0.00    -0.265 OA
HETATM   46  N11 UNL     1      26.076  24.899  27.752  1.00  0.00    -0.338 N 
ATOM     47  H11 UNL     1      25.983  24.319  26.917  1.00  0.00     0.167 HD
ENDBRANCH  32  33
ENDBRANCH   6  32
TORSDOF 8
ENDMDL
MODEL 4
REMARK VINA RESULT: -8.085609057      3.072      8.631
REMARK  8 active torsions:
REMARK  status: ('A' for Active; 'I' for Inactive)
REMARK    1  A    between atoms: N1_1  and  C1_4 
REMARK    2  A    between atoms: C2_7  and  C3_8 
REMARK    3  A    between atoms: N5_18  and  C8_19 
REMARK    4  A    between atoms: C8_19  and  C9_20 
REMARK    5  A    between atoms: C9_20  and  S1_21 
REMARK    6  A    between atoms: S1_21  and  C10_22 
REMARK    7  A    between atoms: C11_27  and  C12_28 
REMARK    8  A    between atoms: C12_28  and  C13_29 
ROOT
HETATM    1  C10 UNL     1      27.847  27.241  23.606  1.00  0.00     0.173 A 
HETATM    2  N6  UNL     1      27.868  27.942  24.741  1.00  0.00    -0.277 N 
ATOM      3  H6  UNL     1      27.882  27.463  25.642  1.00  0.00     0.189 HD
HETATM    4  N7  UNL     1      27.868  29.279  24.689  1.00  0.00    -0.286 N 
ATOM      5  H7  UNL     1      27.883  29.814  25.557  1.00  0.00     0.188 HD
HETATM    6  C11 UNL     1      27.847  29.928  23.521  1.00  0.00     0.117 A 
HETATM    7  N12 UNL     1      27.828  29.225  22.385  1.00  0.00    -0.286 N 
ATOM      8  H12 UNL     1      27.812  29.703  21.484  1.00  0.00     0.188 HD
HETATM    9  N13 UNL     1      27.828  27.889  22.441  1.00  0.00    -0.277 N 
ATOM     10  H13 UNL     1      27.813  27.353  21.572  1.00  0.00     0.189 HD
ENDROOT
BRANCH   1  11
HETATM   11  S1  UNL     1      27.847  25.450  23.693  1.00  0.00    -0.090 SA
BRANCH  11  12
HETATM   12  C9  UNL     1      28.216  24.996  25.408  1.00  0.00     0.104 C 
BRANCH  12  13
HETATM   13  C8  UNL     1      26.966  24.435  26.093  1.00  0.00     0.160 C 
BRANCH  13  14
HETATM   14  N5  UNL     1      26.796  25.121  27.349  1.00  0.00    -0.285 N 
HETATM   15  C6  UNL     1      25.746  25.298  28.165  1.00  0.00     0.133 A 
HETATM   16  C5  UNL     1      24.413  24.988  28.285  1.00  0.00     0.204 C 
HETATM   17  C7  UNL     1      26.497  26.033  29.056  1.00  0.00     0.124 A 
HETATM   18  C4  UNL     1      23.561  25.288  29.348  1.00  0.00     0.092 C 
HETATM   19  O2  UNL     1      23.893  24.356  27.322  1.00  0.00    -0.286 OA
HETATM   20  C2  UNL     1      23.818  25.934  30.538  1.00  0.00     0.103 C 
HETATM   21  N2  UNL     1      24.940  26.606  30.845  1.00  0.00    -0.337 N 
HETATM   22  C1  UNL     1      26.151  26.627  30.241  1.00  0.00     0.130 C 
ATOM     23  H2  UNL     1      24.868  27.198  31.672  1.00  0.00     0.167 HD
HETATM   24  N4  UNL     1      27.515  25.828  28.208  1.00  0.00    -0.292 N 
ATOM     25  H4  UNL     1      28.493  26.115  28.219  1.00  0.00     0.187 HD
BRANCH  20  26
HETATM   26  C3  UNL     1      22.797  25.903  31.571  1.00  0.00     0.281 C 
HETATM   27  N3  UNL     1      21.891  24.822  31.680  1.00  0.00    -0.056 NA
HETATM   28  O1  UNL     1      22.732  26.861  32.376  1.00  0.00    -0.269 OA
ENDBRANCH  20  26
BRANCH  22  29
HETATM   29  N1  UNL     1      27.087  27.270  30.834  1.00  0.00    -0.384 N 
ATOM     30  H12 UNL     1      26.783  28.017  31.460  1.00  0.00     0.157 HD
ATOM     31  H11 UNL     1      28.046  26.987  30.632  1.00  0.00     0.157 HD
ENDBRANCH  22  29
ENDBRANCH  13  14
ENDBRANCH  12  13
ENDBRANCH  11  12
ENDBRANCH   1  11
BRANCH   6  32
HETATM   32  C12 UNL     1      27.849  31.401  23.517  1.00  0.00     0.155 C 
BRANCH  32  33
HETATM   33  C13 UNL     1      26.467  31.879  23.267  1.00  0.00     0.090 A 
HETATM   34  N8  UNL     1      25.428  31.689  24.132  1.00  0.00    -0.330 N 
HETATM   35  C14 UNL     1      24.311  32.231  23.632  1.00  0.00     0.141 A 
ATOM     36  H8  UNL     1      25.493  31.205  25.028  1.00  0.00     0.168 HD
HETATM   37  N9  UNL     1      23.066  32.294  24.110  1.00  0.00    -0.320 N 
HETATM   38  C17 UNL     1      24.680  32.779  22.403  1.00  0.00     0.147 A 
HETATM   39  C15 UNL     1      22.109  32.910  23.392  1.00  0.00     0.160 A 
ATOM     40  H9  UNL     1      22.841  31.878  25.013  1.00  0.00     0.169 HD
HETATM   41  S2  UNL     1      20.449  32.980  24.058  1.00  0.00    -0.013 SA
HETATM   42  N10 UNL     1      22.401  33.460  22.197  1.00  0.00    -0.301 N 
HETATM   43  C16 UNL     1      23.659  33.401  21.703  1.00  0.00     0.278 A 
ATOM     44  H10 UNL     1      21.667  33.924  21.661  1.00  0.00     0.171 HD
HETATM   45  O3  UNL     1      23.908  33.913  20.601  1.00  0.00    -0.265 OA
HETATM   46  N11 UNL     1      25.988  32.555  22.202  1.00  0.00    -0.338 N 
ATOM     47  H11 UNL     1      26.527  32.845  21.385  1.00  0.00     0.167 HD
ENDBRANCH  32  33
ENDBRANCH   6  32
TORSDOF 8
ENDMDL
MODEL 5
REMARK VINA RESULT: -8.054244143      3.168      8.703
REMARK  8 active torsions:
REMARK  status: ('A' for Active; 'I' for Inactive)
REMARK    1  A    between atoms: N1_1  and  C1_4 
REMARK    2  A    between atoms: C2_7  and  C3_8 
REMARK    3  A    between atoms: N5_18  and  C8_19 
REMARK    4  A    between atoms: C8_19  and  C9_20 
REMARK    5  A    between atoms: C9_20  and  S1_21 
REMARK    6  A    between atoms: S1_21  and  C10_22 
REMARK    7  A    between atoms: C11_27  and  C12_28 
REMARK    8  A    between atoms: C12_28  and  C13_29 
ROOT
HETATM    1  C10 UNL     1      27.801  27.578  23.532  1.00  0.00     0.173 A 
HETATM    2  N6  UNL     1      28.208  28.295  24.582  1.00  0.00    -0.277 N 
ATOM      3  H6  UNL     1      28.540  27.829  25.426  1.00  0.00     0.189 HD
HETATM    4  N7  UNL     1      28.175  29.631  24.517  1.00  0.00    -0.286 N 
ATOM      5  H7  UNL     1      28.486  30.179  25.320  1.00  0.00     0.188 HD
HETATM    6  C11 UNL     1      27.743  30.263  23.421  1.00  0.00     0.117 A 
HETATM    7  N12 UNL     1      27.337  29.544  22.371  1.00  0.00    -0.286 N 
ATOM      8  H12 UNL     1      27.005  30.009  21.526  1.00  0.00     0.188 HD
HETATM    9  N13 UNL     1      27.371  28.208  22.439  1.00  0.00    -0.277 N 
ATOM     10  H13 UNL     1      27.061  27.660  21.636  1.00  0.00     0.189 HD
ENDROOT
BRANCH   1  11
HETATM   11  S1  UNL     1      27.850  25.788  23.634  1.00  0.00    -0.090 SA
BRANCH  11  12
HETATM   12  C9  UNL     1      28.273  25.360  25.344  1.00  0.00     0.104 C 
BRANCH  12  13
HETATM   13  C8  UNL     1      27.089  24.671  26.030  1.00  0.00     0.160 C 
BRANCH  13  14
HETATM   14  N5  UNL     1      26.885  25.299  27.311  1.00  0.00    -0.285 N 
HETATM   15  C6  UNL     1      25.822  25.409  28.122  1.00  0.00     0.133 A 
HETATM   16  C5  UNL     1      24.499  25.053  28.214  1.00  0.00     0.204 C 
HETATM   17  C7  UNL     1      26.541  26.130  29.050  1.00  0.00     0.124 A 
HETATM   18  C4  UNL     1      23.628  25.282  29.279  1.00  0.00     0.092 C 
HETATM   19  O2  UNL     1      24.008  24.445  27.220  1.00  0.00    -0.286 OA
HETATM   20  C2  UNL     1      23.852  25.887  30.497  1.00  0.00     0.103 C 
HETATM   21  N2  UNL     1      24.949  26.580  30.844  1.00  0.00    -0.337 N 
HETATM   22  C1  UNL     1      26.165  26.664  30.255  1.00  0.00     0.130 C 
ATOM     23  H2  UNL     1      24.850  27.135  31.693  1.00  0.00     0.167 HD
HETATM   24  N4  UNL     1      27.573  25.992  28.205  1.00  0.00    -0.292 N 
ATOM     25  H4  UNL     1      28.542  26.308  28.240  1.00  0.00     0.187 HD
BRANCH  20  26
HETATM   26  C3  UNL     1      22.823  25.781  31.517  1.00  0.00     0.281 C 
HETATM   27  N3  UNL     1      21.969  24.655  31.589  1.00  0.00    -0.056 NA
HETATM   28  O1  UNL     1      22.702  26.715  32.344  1.00  0.00    -0.269 OA
ENDBRANCH  20  26
BRANCH  22  29
HETATM   29  N1  UNL     1      27.074  27.311  30.883  1.00  0.00    -0.384 N 
ATOM     30  H12 UNL     1      27.056  27.224  31.900  1.00  0.00     0.157 HD
ATOM     31  H11 UNL     1      27.731  27.853  30.322  1.00  0.00     0.157 HD
ENDBRANCH  22  29
ENDBRANCH  13  14
ENDBRANCH  12  13
ENDBRANCH  11  12
ENDBRANCH   1  11
BRANCH   6  32
HETATM   32  C12 UNL     1      27.728  31.736  23.400  1.00  0.00     0.155 C 
BRANCH  32  33
HETATM   33  C13 UNL     1      26.374  32.193  23.004  1.00  0.00     0.090 A 
HETATM   34  N8  UNL     1      26.074  32.717  21.779  1.00  0.00    -0.330 N 
HETATM   35  C14 UNL     1      24.776  33.036  21.721  1.00  0.00     0.141 A 
ATOM     36  H8  UNL     1      26.743  32.847  21.020  1.00  0.00     0.168 HD
HETATM   37  N9  UNL     1      24.037  33.568  20.745  1.00  0.00    -0.320 N 
HETATM   38  C17 UNL     1      24.252  32.691  22.968  1.00  0.00     0.147 A 
HETATM   39  C15 UNL     1      22.726  33.790  20.951  1.00  0.00     0.160 A 
ATOM     40  H9  UNL     1      24.463  33.805  19.850  1.00  0.00     0.169 HD
HETATM   41  S2  UNL     1      21.759  34.505  19.624  1.00  0.00    -0.013 SA
HETATM   42  N10 UNL     1      22.159  33.480  22.133  1.00  0.00    -0.301 N 
HETATM   43  C16 UNL     1      22.899  32.940  23.129  1.00  0.00     0.278 A 
ATOM     44  H10 UNL     1      21.164  33.653  22.278  1.00  0.00     0.171 HD
HETATM   45  O3  UNL     1      22.358  32.661  24.210  1.00  0.00    -0.265 OA
HETATM   46  N11 UNL     1      25.235  32.184  23.728  1.00  0.00    -0.338 N 
ATOM     47  H11 UNL     1      25.138  31.849  24.687  1.00  0.00     0.167 HD
ENDBRANCH  32  33
ENDBRANCH   6  32
TORSDOF 8
ENDMDL
