MODEL 1
REMARK VINA RESULT: -5.419494899      0.000      0.000
REMARK  2 active torsions:
REMARK  status: ('A' for Active; 'I' for Inactive)
REMARK    1  A    between atoms: O1_2  and  C2_3 
REMARK       I    between atoms: C2_3  and  N1_5 
REMARK    2  A    between atoms: N1_5  and  N2_7 
ROOT
HETATM    1  N2  UNL     1     -34.833  -9.904 -47.743  1.00  0.00    -0.294 N 
ATOM      2  H2  UNL     1     -34.190  -9.427 -47.111  1.00  0.00     0.187 HD
HETATM    3  C3  UNL     1     -34.912  -9.511 -48.983  1.00  0.00     0.062 C 
HETATM    4  C4  UNL     1     -35.849 -10.202 -49.907  1.00  0.00     0.066 C 
HETATM    5  C5  UNL     1     -35.844  -9.491 -51.244  1.00  0.00     0.007 C 
HETATM    6  C6  UNL     1     -34.410  -9.569 -51.770  1.00  0.00     0.011 C 
HETATM    7  C7  UNL     1     -33.759  -8.249 -51.340  1.00  0.00     0.080 C 
HETATM    8  S1  UNL     1     -33.892  -8.156 -49.538  1.00  0.00    -0.115 SA
ENDROOT
BRANCH   1   9
HETATM    9  N1  UNL     1     -35.606 -10.959 -47.255  1.00  0.00    -0.245 N 
HETATM   10  C2  UNL     1     -35.050 -11.953 -46.442  1.00  0.00     0.379 C 
HETATM   11  O2  UNL     1     -33.842 -11.902 -46.145  1.00  0.00    -0.237 OA
ATOM     12  H1  UNL     1     -36.597 -11.007 -47.497  1.00  0.00     0.192 HD
BRANCH  10  13
HETATM   13  O1  UNL     1     -35.813 -12.988 -45.965  1.00  0.00    -0.308 OA
HETATM   14  C1  UNL     1     -36.987 -13.443 -46.572  1.00  0.00     0.215 C 
ENDBRANCH  10  13
ENDBRANCH   1   9
TORSDOF 2
ENDMDL
MODEL 2
REMARK VINA RESULT: -5.212851147      1.014      1.027
REMARK  2 active torsions:
REMARK  status: ('A' for Active; 'I' for Inactive)
REMARK    1  A    between atoms: O1_2  and  C2_3 
REMARK       I    between atoms: C2_3  and  N1_5 
REMARK    2  A    between atoms: N1_5  and  N2_7 
ROOT
HETATM    1  N2  UNL     1     -35.884 -10.131 -48.065  1.00  0.00    -0.294 N 
ATOM      2  H2  UNL     1     -35.782  -9.618 -47.189  1.00  0.00     0.187 HD
HETATM    3  C3  UNL     1     -35.589  -9.536 -49.187  1.00  0.00     0.062 C 
HETATM    4  C4  UNL     1     -35.737 -10.278 -50.465  1.00  0.00     0.066 C 
HETATM    5  C5  UNL     1     -35.451  -9.342 -51.620  1.00  0.00     0.007 C 
HETATM    6  C6  UNL     1     -34.011  -8.859 -51.439  1.00  0.00     0.011 C 
HETATM    7  C7  UNL     1     -34.132  -7.520 -50.702  1.00  0.00     0.080 C 
HETATM    8  S1  UNL     1     -35.014  -7.846 -49.156  1.00  0.00    -0.115 SA
ENDROOT
BRANCH   1   9
HETATM    9  N1  UNL     1     -36.337 -11.451 -48.031  1.00  0.00    -0.245 N 
HETATM   10  C2  UNL     1     -35.616 -12.449 -47.366  1.00  0.00     0.379 C 
HETATM   11  O2  UNL     1     -34.549 -12.162 -46.795  1.00  0.00    -0.237 OA
ATOM     12  H1  UNL     1     -37.211 -11.692 -48.499  1.00  0.00     0.192 HD
BRANCH  10  13
HETATM   13  O1  UNL     1     -36.064 -13.745 -47.335  1.00  0.00    -0.308 OA
HETATM   14  C1  UNL     1     -37.268 -14.146 -46.747  1.00  0.00     0.215 C 
ENDBRANCH  10  13
ENDBRANCH   1   9
TORSDOF 2
ENDMDL
MODEL 3
REMARK VINA RESULT: -5.183826686      1.637      1.776
REMARK  2 active torsions:
REMARK  status: ('A' for Active; 'I' for Inactive)
REMARK    1  A    between atoms: O1_2  and  C2_3 
REMARK       I    between atoms: C2_3  and  N1_5 
REMARK    2  A    between atoms: N1_5  and  N2_7 
ROOT
HETATM    1  N2  UNL     1     -35.325  -9.005 -47.979  1.00  0.00    -0.294 N 
ATOM      2  H2  UNL     1     -35.045  -8.079 -47.656  1.00  0.00     0.187 HD
HETATM    3  C3  UNL     1     -35.721  -9.154 -49.212  1.00  0.00     0.062 C 
HETATM    4  C4  UNL     1     -36.130 -10.500 -49.688  1.00  0.00     0.066 C 
HETATM    5  C5  UNL     1     -36.658 -10.390 -51.103  1.00  0.00     0.007 C 
HETATM    6  C6  UNL     1     -35.508  -9.843 -51.951  1.00  0.00     0.011 C 
HETATM    7  C7  UNL     1     -35.742  -8.329 -52.005  1.00  0.00     0.080 C 
HETATM    8  S1  UNL     1     -35.760  -7.736 -50.295  1.00  0.00    -0.115 SA
ENDROOT
BRANCH   1   9
HETATM    9  N1  UNL     1     -35.273 -10.080 -47.090  1.00  0.00    -0.245 N 
HETATM   10  C2  UNL     1     -34.063 -10.714 -46.786  1.00  0.00     0.379 C 
HETATM   11  O2  UNL     1     -33.009 -10.319 -47.316  1.00  0.00    -0.237 OA
ATOM     12  H1  UNL     1     -36.134 -10.409 -46.652  1.00  0.00     0.192 HD
BRANCH  10  13
HETATM   13  O1  UNL     1     -34.017 -11.770 -45.911  1.00  0.00    -0.308 OA
HETATM   14  C1  UNL     1     -34.699 -11.810 -44.691  1.00  0.00     0.215 C 
ENDBRANCH  10  13
ENDBRANCH   1   9
TORSDOF 2
ENDMDL
MODEL 4
REMARK VINA RESULT: -5.111592493      1.811      2.486
REMARK  2 active torsions:
REMARK  status: ('A' for Active; 'I' for Inactive)
REMARK    1  A    between atoms: O1_2  and  C2_3 
REMARK       I    between atoms: C2_3  and  N1_5 
REMARK    2  A    between atoms: N1_5  and  N2_7 
ROOT
HETATM    1  N2  UNL     1     -36.713 -10.941 -48.739  1.00  0.00    -0.294 N 
ATOM      2  H2  UNL     1     -37.641 -11.338 -48.591  1.00  0.00     0.187 HD
HETATM    3  C3  UNL     1     -36.417 -10.437 -49.904  1.00  0.00     0.062 C 
HETATM    4  C4  UNL     1     -35.067  -9.858 -50.125  1.00  0.00     0.066 C 
HETATM    5  C5  UNL     1     -34.930  -9.452 -51.577  1.00  0.00     0.007 C 
HETATM    6  C6  UNL     1     -36.016  -8.407 -51.838  1.00  0.00     0.011 C 
HETATM    7  C7  UNL     1     -37.193  -9.196 -52.422  1.00  0.00     0.080 C 
HETATM    8  S1  UNL     1     -37.642 -10.455 -51.202  1.00  0.00    -0.115 SA
ENDROOT
BRANCH   1   9
HETATM    9  N1  UNL     1     -35.794 -10.952 -47.689  1.00  0.00    -0.245 N 
HETATM   10  C2  UNL     1     -35.246 -12.150 -47.215  1.00  0.00     0.379 C 
HETATM   11  O2  UNL     1     -35.582 -13.229 -47.735  1.00  0.00    -0.237 OA
ATOM     12  H1  UNL     1     -35.516 -10.070 -47.257  1.00  0.00     0.192 HD
BRANCH  10  13
HETATM   13  O1  UNL     1     -34.344 -12.156 -46.182  1.00  0.00    -0.308 OA
HETATM   14  C1  UNL     1     -34.590 -11.608 -44.920  1.00  0.00     0.215 C 
ENDBRANCH  10  13
ENDBRANCH   1   9
TORSDOF 2
ENDMDL
MODEL 5
REMARK VINA RESULT: -4.972809927      1.566      2.161
REMARK  2 active torsions:
REMARK  status: ('A' for Active; 'I' for Inactive)
REMARK    1  A    between atoms: O1_2  and  C2_3 
REMARK       I    between atoms: C2_3  and  N1_5 
REMARK    2  A    between atoms: N1_5  and  N2_7 
ROOT
HETATM    1  N2  UNL     1     -35.907 -10.577 -48.562  1.00  0.00    -0.294 N 
ATOM      2  H2  UNL     1     -36.765 -11.120 -48.661  1.00  0.00     0.187 HD
HETATM    3  C3  UNL     1     -35.426  -9.955 -49.601  1.00  0.00     0.062 C 
HETATM    4  C4  UNL     1     -34.177  -9.163 -49.461  1.00  0.00     0.066 C 
HETATM    5  C5  UNL     1     -33.763  -8.643 -50.821  1.00  0.00     0.007 C 
HETATM    6  C6  UNL     1     -34.910  -7.760 -51.314  1.00  0.00     0.011 C 
HETATM    7  C7  UNL     1     -35.765  -8.678 -52.196  1.00  0.00     0.080 C 
HETATM    8  S1  UNL     1     -36.281 -10.071 -51.163  1.00  0.00    -0.115 SA
ENDROOT
BRANCH   1   9
HETATM    9  N1  UNL     1     -35.280 -10.520 -47.316  1.00  0.00    -0.245 N 
HETATM   10  C2  UNL     1     -34.823 -11.679 -46.678  1.00  0.00     0.379 C 
HETATM   11  O2  UNL     1     -34.977 -12.785 -47.226  1.00  0.00    -0.237 OA
ATOM     12  H1  UNL     1     -35.153  -9.615 -46.861  1.00  0.00     0.192 HD
BRANCH  10  13
HETATM   13  O1  UNL     1     -34.207 -11.618 -45.454  1.00  0.00    -0.308 OA
HETATM   14  C1  UNL     1     -34.859 -11.289 -44.262  1.00  0.00     0.215 C 
ENDBRANCH  10  13
ENDBRANCH   1   9
TORSDOF 2
ENDMDL
