MODEL 1
REMARK VINA RESULT: -8.554589630      0.000      0.000
REMARK  11 active torsions:
REMARK  status: ('A' for Active; 'I' for Inactive)
REMARK    1  A    between atoms: C2_2  and  C3_3 
REMARK    2  A    between atoms: C3_3  and  C5_5 
REMARK    3  A    between atoms: C5_5  and  N1_6 
REMARK    4  A    between atoms: C5_5  and  C22_29 
REMARK       I    between atoms: N1_6  and  C6_8 
REMARK    5  A    between atoms: C6_8  and  C7_10 
REMARK    6  A    between atoms: C12_15  and  C13_16 
REMARK    7  A    between atoms: C13_16  and  C14_17 
REMARK    8  A    between atoms: C14_17  and  N2_19 
REMARK    9  A    between atoms: N2_19  and  C15_21 
REMARK   10  A    between atoms: C15_21  and  C16_22 
REMARK       I    between atoms: C22_29  and  N3_31 
REMARK   11  A    between atoms: N3_31  and  C23_33 
ROOT
HETATM    1  C7  UNL     1       7.403  -2.981  13.391  1.00  0.00     0.082 C 
HETATM    2  C8  UNL     1       6.422  -3.306  12.257  1.00  0.00     0.014 C 
HETATM    3  C9  UNL     1       6.809  -4.609  11.588  1.00  0.00     0.001 C 
HETATM    4  C10 UNL     1       7.675  -5.351  12.572  1.00  0.00     0.000 C 
HETATM    5  C11 UNL     1       7.138  -5.314  13.984  1.00  0.00     0.006 C 
HETATM    6  C12 UNL     1       7.046  -3.896  14.539  1.00  0.00     0.005 C 
ENDROOT
BRANCH   1   7
HETATM    7  C6  UNL     1       7.190  -1.555  13.702  1.00  0.00     0.223 C 
HETATM    8  N1  UNL     1       6.204  -0.835  12.996  1.00  0.00    -0.347 N 
ATOM      9  H1  UNL     1       5.658  -1.315  12.281  1.00  0.00     0.163 HD
HETATM   10  O1  UNL     1       7.858  -0.967  14.576  1.00  0.00    -0.273 OA
BRANCH   8  11
HETATM   11  C5  UNL     1       5.941   0.590  13.258  1.00  0.00     0.180 C 
BRANCH  11  12
HETATM   12  C3  UNL     1       6.460   1.399  12.099  1.00  0.00     0.013 C 
HETATM   13  C4  UNL     1       7.741   2.141  12.420  1.00  0.00     0.012 C 
BRANCH  12  14
HETATM   14  C2  UNL     1       6.581   0.687  10.800  1.00  0.00     0.002 C 
HETATM   15  C1  UNL     1       7.382   1.595   9.856  1.00  0.00     0.005 C 
ENDBRANCH  12  14
ENDBRANCH  11  12
BRANCH  11  16
HETATM   16  C22 UNL     1       4.481   0.720  13.338  1.00  0.00     0.241 C 
HETATM   17  O3  UNL     1       3.852   0.506  14.422  1.00  0.00    -0.271 OA
HETATM   18  N3  UNL     1       3.690   1.091  12.232  1.00  0.00    -0.355 N 
ATOM     19  H3  UNL     1       4.157   1.280  11.345  1.00  0.00     0.162 HD
BRANCH  18  20
HETATM   20  C23 UNL     1       2.245   1.218  12.290  1.00  0.00     0.084 C 
HETATM   21  C24 UNL     1       1.559   0.045  11.624  1.00  0.00     0.025 C 
HETATM   22  C25 UNL     1       0.065   0.208  11.928  1.00  0.00     0.002 C 
HETATM   23  C26 UNL     1      -0.392   1.454  11.165  1.00  0.00     0.000 C 
HETATM   24  C27 UNL     1       0.345   2.678  11.654  1.00  0.00     0.002 C 
HETATM   25  C28 UNL     1       1.852   2.459  11.550  1.00  0.00     0.025 C 
ENDBRANCH  18  20
ENDBRANCH  11  16
ENDBRANCH   8  11
ENDBRANCH   1   7
BRANCH   6  26
HETATM   26  C13 UNL     1       8.029  -3.795  15.674  1.00  0.00     0.074 C 
BRANCH  26  27
HETATM   27  C14 UNL     1       7.360  -3.562  16.960  1.00  0.00     0.073 C 
HETATM   28  S1  UNL     1       7.229  -4.795  18.034  1.00  0.00    -0.066 SA
BRANCH  27  29
HETATM   29  N2  UNL     1       6.798  -2.312  17.337  1.00  0.00    -0.382 N 
ATOM     30  H2  UNL     1       7.371  -1.658  17.870  1.00  0.00     0.160 HD
BRANCH  29  31
HETATM   31  C15 UNL     1       5.466  -1.940  16.997  1.00  0.00     0.152 C 
BRANCH  31  32
HETATM   32  C16 UNL     1       4.555  -3.115  16.757  1.00  0.00     0.139 C 
HETATM   33  C17 UNL     1       3.772  -2.996  15.480  1.00  0.00     0.034 C 
HETATM   34  C18 UNL     1       3.019  -4.264  15.247  1.00  0.00     0.003 C 
HETATM   35  C19 UNL     1       3.729  -5.497  15.716  1.00  0.00     0.002 C 
HETATM   36  C20 UNL     1       3.811  -5.627  17.200  1.00  0.00     0.026 C 
HETATM   37  C21 UNL     1       3.130  -4.515  17.950  1.00  0.00     0.168 C 
HETATM   38  O2  UNL     1       3.705  -3.282  17.818  1.00  0.00    -0.384 OA
ENDBRANCH  31  32
ENDBRANCH  29  31
ENDBRANCH  27  29
ENDBRANCH  26  27
ENDBRANCH   6  26
TORSDOF 11
ENDMDL
MODEL 2
REMARK VINA RESULT: -8.386560071      0.860      1.129
REMARK  11 active torsions:
REMARK  status: ('A' for Active; 'I' for Inactive)
REMARK    1  A    between atoms: C2_2  and  C3_3 
REMARK    2  A    between atoms: C3_3  and  C5_5 
REMARK    3  A    between atoms: C5_5  and  N1_6 
REMARK    4  A    between atoms: C5_5  and  C22_29 
REMARK       I    between atoms: N1_6  and  C6_8 
REMARK    5  A    between atoms: C6_8  and  C7_10 
REMARK    6  A    between atoms: C12_15  and  C13_16 
REMARK    7  A    between atoms: C13_16  and  C14_17 
REMARK    8  A    between atoms: C14_17  and  N2_19 
REMARK    9  A    between atoms: N2_19  and  C15_21 
REMARK   10  A    between atoms: C15_21  and  C16_22 
REMARK       I    between atoms: C22_29  and  N3_31 
REMARK   11  A    between atoms: N3_31  and  C23_33 
ROOT
HETATM    1  C7  UNL     1       7.487  -2.846  13.539  1.00  0.00     0.082 C 
HETATM    2  C8  UNL     1       6.402  -3.309  12.555  1.00  0.00     0.014 C 
HETATM    3  C9  UNL     1       6.809  -4.617  11.908  1.00  0.00     0.001 C 
HETATM    4  C10 UNL     1       7.846  -5.234  12.809  1.00  0.00     0.000 C 
HETATM    5  C11 UNL     1       7.484  -5.153  14.274  1.00  0.00     0.006 C 
HETATM    6  C12 UNL     1       7.348  -3.716  14.766  1.00  0.00     0.005 C 
ENDROOT
BRANCH   1   7
HETATM    7  C6  UNL     1       7.199  -1.424  13.804  1.00  0.00     0.223 C 
HETATM    8  N1  UNL     1       6.304  -0.732  12.961  1.00  0.00    -0.347 N 
ATOM      9  H1  UNL     1       5.873  -1.230  12.183  1.00  0.00     0.163 HD
HETATM   10  O1  UNL     1       7.725  -0.815  14.756  1.00  0.00    -0.273 OA
BRANCH   8  11
HETATM   11  C5  UNL     1       5.973   0.687  13.172  1.00  0.00     0.180 C 
BRANCH  11  12
HETATM   12  C3  UNL     1       6.430   1.473  11.972  1.00  0.00     0.013 C 
HETATM   13  C4  UNL     1       7.629   2.352  12.260  1.00  0.00     0.012 C 
BRANCH  12  14
HETATM   14  C2  UNL     1       6.639   0.701  10.719  1.00  0.00     0.002 C 
HETATM   15  C1  UNL     1       6.097   1.553   9.563  1.00  0.00     0.005 C 
ENDBRANCH  12  14
ENDBRANCH  11  12
BRANCH  11  16
HETATM   16  C22 UNL     1       4.510   0.747  13.275  1.00  0.00     0.241 C 
HETATM   17  O3  UNL     1       3.903   0.400  14.337  1.00  0.00    -0.271 OA
HETATM   18  N3  UNL     1       3.692   1.193  12.217  1.00  0.00    -0.355 N 
ATOM     19  H3  UNL     1       4.141   1.489  11.351  1.00  0.00     0.162 HD
BRANCH  18  20
HETATM   20  C23 UNL     1       2.244   1.254  12.298  1.00  0.00     0.084 C 
HETATM   21  C24 UNL     1       1.601   0.062  11.623  1.00  0.00     0.025 C 
HETATM   22  C25 UNL     1       0.107   0.151  11.951  1.00  0.00     0.002 C 
HETATM   23  C26 UNL     1      -0.418   1.387  11.216  1.00  0.00     0.000 C 
HETATM   24  C27 UNL     1       0.270   2.635  11.715  1.00  0.00     0.002 C 
HETATM   25  C28 UNL     1       1.784   2.487  11.586  1.00  0.00     0.025 C 
ENDBRANCH  18  20
ENDBRANCH  11  16
ENDBRANCH   8  11
ENDBRANCH   1   7
BRANCH   6  26
HETATM   26  C13 UNL     1       8.450  -3.477  15.761  1.00  0.00     0.074 C 
BRANCH  26  27
HETATM   27  C14 UNL     1       8.198  -4.161  17.035  1.00  0.00     0.073 C 
HETATM   28  S1  UNL     1       9.301  -5.232  17.606  1.00  0.00    -0.066 SA
BRANCH  27  29
HETATM   29  N2  UNL     1       7.029  -3.955  17.818  1.00  0.00    -0.382 N 
ATOM     30  H2  UNL     1       6.921  -3.073  18.317  1.00  0.00     0.160 HD
BRANCH  29  31
HETATM   31  C15 UNL     1       6.003  -4.937  17.929  1.00  0.00     0.152 C 
BRANCH  31  32
HETATM   32  C16 UNL     1       4.803  -4.656  17.064  1.00  0.00     0.139 C 
HETATM   33  C17 UNL     1       4.495  -3.189  16.951  1.00  0.00     0.034 C 
HETATM   34  C18 UNL     1       3.396  -2.994  15.961  1.00  0.00     0.003 C 
HETATM   35  C19 UNL     1       3.416  -3.964  14.819  1.00  0.00     0.002 C 
HETATM   36  C20 UNL     1       3.047  -5.359  15.198  1.00  0.00     0.026 C 
HETATM   37  C21 UNL     1       2.684  -5.524  16.649  1.00  0.00     0.168 C 
HETATM   38  O2  UNL     1       3.709  -5.333  17.533  1.00  0.00    -0.384 OA
ENDBRANCH  31  32
ENDBRANCH  29  31
ENDBRANCH  27  29
ENDBRANCH  26  27
ENDBRANCH   6  26
TORSDOF 11
ENDMDL
MODEL 3
REMARK VINA RESULT: -8.203648825      0.840      1.150
REMARK  11 active torsions:
REMARK  status: ('A' for Active; 'I' for Inactive)
REMARK    1  A    between atoms: C2_2  and  C3_3 
REMARK    2  A    between atoms: C3_3  and  C5_5 
REMARK    3  A    between atoms: C5_5  and  N1_6 
REMARK    4  A    between atoms: C5_5  and  C22_29 
REMARK       I    between atoms: N1_6  and  C6_8 
REMARK    5  A    between atoms: C6_8  and  C7_10 
REMARK    6  A    between atoms: C12_15  and  C13_16 
REMARK    7  A    between atoms: C13_16  and  C14_17 
REMARK    8  A    between atoms: C14_17  and  N2_19 
REMARK    9  A    between atoms: N2_19  and  C15_21 
REMARK   10  A    between atoms: C15_21  and  C16_22 
REMARK       I    between atoms: C22_29  and  N3_31 
REMARK   11  A    between atoms: N3_31  and  C23_33 
ROOT
HETATM    1  C7  UNL     1       7.295  -3.045  13.274  1.00  0.00     0.082 C 
HETATM    2  C8  UNL     1       6.409  -3.658  12.181  1.00  0.00     0.014 C 
HETATM    3  C9  UNL     1       7.028  -4.941  11.665  1.00  0.00     0.001 C 
HETATM    4  C10 UNL     1       7.987  -5.409  12.728  1.00  0.00     0.000 C 
HETATM    5  C11 UNL     1       7.420  -5.309  14.126  1.00  0.00     0.006 C 
HETATM    6  C12 UNL     1       7.075  -3.875  14.517  1.00  0.00     0.005 C 
ENDROOT
BRANCH   1   7
HETATM    7  C6  UNL     1       6.834  -1.652  13.422  1.00  0.00     0.223 C 
HETATM    8  N1  UNL     1       6.133  -1.041  12.361  1.00  0.00    -0.347 N 
ATOM      9  H1  UNL     1       5.959  -1.576  11.511  1.00  0.00     0.163 HD
HETATM   10  O1  UNL     1       7.047  -0.998  14.462  1.00  0.00    -0.273 OA
BRANCH   8  11
HETATM   11  C5  UNL     1       5.645   0.346  12.445  1.00  0.00     0.180 C 
BRANCH  11  12
HETATM   12  C3  UNL     1       6.525   1.220  11.592  1.00  0.00     0.013 C 
HETATM   13  C4  UNL     1       7.813   1.620  12.282  1.00  0.00     0.012 C 
BRANCH  12  14
HETATM   14  C2  UNL     1       6.802   0.733  10.215  1.00  0.00     0.002 C 
HETATM   15  C1  UNL     1       6.240   1.777   9.241  1.00  0.00     0.005 C 
ENDBRANCH  12  14
ENDBRANCH  11  12
BRANCH  11  16
HETATM   16  C22 UNL     1       4.284   0.326  11.895  1.00  0.00     0.241 C 
HETATM   17  O3  UNL     1       3.832  -0.687  11.275  1.00  0.00    -0.271 OA
HETATM   18  N3  UNL     1       3.399   1.415  12.023  1.00  0.00    -0.355 N 
ATOM     19  H3  UNL     1       3.721   2.245  12.522  1.00  0.00     0.162 HD
BRANCH  18  20
HETATM   20  C23 UNL     1       2.052   1.417  11.481  1.00  0.00     0.084 C 
HETATM   21  C24 UNL     1       1.536   2.826  11.284  1.00  0.00     0.025 C 
HETATM   22  C25 UNL     1       0.207   2.683  10.536  1.00  0.00     0.002 C 
HETATM   23  C26 UNL     1      -0.763   2.011  11.511  1.00  0.00     0.000 C 
HETATM   24  C27 UNL     1      -0.265   0.638  11.895  1.00  0.00     0.002 C 
HETATM   25  C28 UNL     1       1.150   0.732  12.460  1.00  0.00     0.025 C 
ENDBRANCH  18  20
ENDBRANCH  11  16
ENDBRANCH   8  11
ENDBRANCH   1   7
BRANCH   6  26
HETATM   26  C13 UNL     1       8.000  -3.482  15.636  1.00  0.00     0.074 C 
BRANCH  26  27
HETATM   27  C14 UNL     1       7.315  -3.463  16.934  1.00  0.00     0.073 C 
HETATM   28  S1  UNL     1       7.417  -4.773  17.917  1.00  0.00    -0.066 SA
BRANCH  27  29
HETATM   29  N2  UNL     1       6.546  -2.362  17.399  1.00  0.00    -0.382 N 
ATOM     30  H2  UNL     1       6.944  -1.751  18.111  1.00  0.00     0.160 HD
BRANCH  29  31
HETATM   31  C15 UNL     1       5.238  -2.083  16.907  1.00  0.00     0.152 C 
BRANCH  31  32
HETATM   32  C16 UNL     1       4.382  -3.311  16.741  1.00  0.00     0.139 C 
HETATM   33  C17 UNL     1       3.487  -3.240  15.537  1.00  0.00     0.034 C 
HETATM   34  C18 UNL     1       2.793  -4.550  15.364  1.00  0.00     0.003 C 
HETATM   35  C19 UNL     1       3.613  -5.739  15.764  1.00  0.00     0.002 C 
HETATM   36  C20 UNL     1       3.830  -5.863  17.235  1.00  0.00     0.026 C 
HETATM   37  C21 UNL     1       3.151  -4.793  18.046  1.00  0.00     0.168 C 
HETATM   38  O2  UNL     1       3.637  -3.528  17.870  1.00  0.00    -0.384 OA
ENDBRANCH  31  32
ENDBRANCH  29  31
ENDBRANCH  27  29
ENDBRANCH  26  27
ENDBRANCH   6  26
TORSDOF 11
ENDMDL
MODEL 4
REMARK VINA RESULT: -8.136415585      1.203      1.636
REMARK  11 active torsions:
REMARK  status: ('A' for Active; 'I' for Inactive)
REMARK    1  A    between atoms: C2_2  and  C3_3 
REMARK    2  A    between atoms: C3_3  and  C5_5 
REMARK    3  A    between atoms: C5_5  and  N1_6 
REMARK    4  A    between atoms: C5_5  and  C22_29 
REMARK       I    between atoms: N1_6  and  C6_8 
REMARK    5  A    between atoms: C6_8  and  C7_10 
REMARK    6  A    between atoms: C12_15  and  C13_16 
REMARK    7  A    between atoms: C13_16  and  C14_17 
REMARK    8  A    between atoms: C14_17  and  N2_19 
REMARK    9  A    between atoms: N2_19  and  C15_21 
REMARK   10  A    between atoms: C15_21  and  C16_22 
REMARK       I    between atoms: C22_29  and  N3_31 
REMARK   11  A    between atoms: N3_31  and  C23_33 
ROOT
HETATM    1  C7  UNL     1       7.432  -3.143  13.745  1.00  0.00     0.082 C 
HETATM    2  C8  UNL     1       6.521  -3.818  12.709  1.00  0.00     0.014 C 
HETATM    3  C9  UNL     1       7.248  -4.968  12.044  1.00  0.00     0.001 C 
HETATM    4  C10 UNL     1       8.374  -5.351  12.967  1.00  0.00     0.000 C 
HETATM    5  C11 UNL     1       7.959  -5.409  14.419  1.00  0.00     0.006 C 
HETATM    6  C12 UNL     1       7.468  -4.063  14.943  1.00  0.00     0.005 C 
ENDROOT
BRANCH   1   7
HETATM    7  C6  UNL     1       6.804  -1.841  14.035  1.00  0.00     0.223 C 
HETATM    8  N1  UNL     1       6.365  -1.033  12.966  1.00  0.00    -0.347 N 
ATOM      9  H1  UNL     1       6.491  -1.366  12.011  1.00  0.00     0.163 HD
HETATM   10  O1  UNL     1       6.649  -1.434  15.204  1.00  0.00    -0.273 OA
BRANCH   8  11
HETATM   11  C5  UNL     1       5.730   0.277  13.188  1.00  0.00     0.180 C 
BRANCH  11  12
HETATM   12  C3  UNL     1       6.651   1.354  12.679  1.00  0.00     0.013 C 
HETATM   13  C4  UNL     1       7.666   1.803  13.709  1.00  0.00     0.012 C 
BRANCH  12  14
HETATM   14  C2  UNL     1       7.315   1.090  11.375  1.00  0.00     0.002 C 
HETATM   15  C1  UNL     1       7.237   2.385  10.554  1.00  0.00     0.005 C 
ENDBRANCH  12  14
ENDBRANCH  11  12
BRANCH  11  16
HETATM   16  C22 UNL     1       4.495   0.264  12.393  1.00  0.00     0.241 C 
HETATM   17  O3  UNL     1       4.287  -0.618  11.502  1.00  0.00    -0.271 OA
HETATM   18  N3  UNL     1       3.471   1.216  12.569  1.00  0.00    -0.355 N 
ATOM     19  H3  UNL     1       3.596   1.936  13.280  1.00  0.00     0.162 HD
BRANCH  18  20
HETATM   20  C23 UNL     1       2.246   1.223  11.789  1.00  0.00     0.084 C 
HETATM   21  C24 UNL     1       1.771   2.634  11.519  1.00  0.00     0.025 C 
HETATM   22  C25 UNL     1       0.601   2.500  10.537  1.00  0.00     0.002 C 
HETATM   23  C26 UNL     1      -0.528   1.814  11.309  1.00  0.00     0.000 C 
HETATM   24  C27 UNL     1      -0.105   0.436  11.760  1.00  0.00     0.002 C 
HETATM   25  C28 UNL     1       1.183   0.524  12.576  1.00  0.00     0.025 C 
ENDBRANCH  18  20
ENDBRANCH  11  16
ENDBRANCH   8  11
ENDBRANCH   1   7
BRANCH   6  26
HETATM   26  C13 UNL     1       8.450  -3.602  15.985  1.00  0.00     0.074 C 
BRANCH  26  27
HETATM   27  C14 UNL     1       8.233  -4.267  17.276  1.00  0.00     0.073 C 
HETATM   28  S1  UNL     1       9.421  -5.203  17.909  1.00  0.00    -0.066 SA
BRANCH  27  29
HETATM   29  N2  UNL     1       7.029  -4.154  18.023  1.00  0.00    -0.382 N 
ATOM     30  H2  UNL     1       6.880  -3.321  18.592  1.00  0.00     0.160 HD
BRANCH  29  31
HETATM   31  C15 UNL     1       6.024  -5.163  18.007  1.00  0.00     0.152 C 
BRANCH  31  32
HETATM   32  C16 UNL     1       4.834  -4.813  17.151  1.00  0.00     0.139 C 
HETATM   33  C17 UNL     1       4.521  -3.344  17.158  1.00  0.00     0.034 C 
HETATM   34  C18 UNL     1       3.435  -3.069  16.172  1.00  0.00     0.003 C 
HETATM   35  C19 UNL     1       3.474  -3.941  14.954  1.00  0.00     0.002 C 
HETATM   36  C20 UNL     1       3.106  -5.363  15.209  1.00  0.00     0.026 C 
HETATM   37  C21 UNL     1       2.725  -5.650  16.636  1.00  0.00     0.168 C 
HETATM   38  O2  UNL     1       3.736  -5.531  17.547  1.00  0.00    -0.384 OA
ENDBRANCH  31  32
ENDBRANCH  29  31
ENDBRANCH  27  29
ENDBRANCH  26  27
ENDBRANCH   6  26
TORSDOF 11
ENDMDL
MODEL 5
REMARK VINA RESULT: -8.061575173      1.578      3.957
REMARK  11 active torsions:
REMARK  status: ('A' for Active; 'I' for Inactive)
REMARK    1  A    between atoms: C2_2  and  C3_3 
REMARK    2  A    between atoms: C3_3  and  C5_5 
REMARK    3  A    between atoms: C5_5  and  N1_6 
REMARK    4  A    between atoms: C5_5  and  C22_29 
REMARK       I    between atoms: N1_6  and  C6_8 
REMARK    5  A    between atoms: C6_8  and  C7_10 
REMARK    6  A    between atoms: C12_15  and  C13_16 
REMARK    7  A    between atoms: C13_16  and  C14_17 
REMARK    8  A    between atoms: C14_17  and  N2_19 
REMARK    9  A    between atoms: N2_19  and  C15_21 
REMARK   10  A    between atoms: C15_21  and  C16_22 
REMARK       I    between atoms: C22_29  and  N3_31 
REMARK   11  A    between atoms: N3_31  and  C23_33 
ROOT
HETATM    1  C7  UNL     1       4.272  -4.093  15.995  1.00  0.00     0.082 C 
HETATM    2  C8  UNL     1       2.867  -3.923  16.592  1.00  0.00     0.014 C 
HETATM    3  C9  UNL     1       2.110  -5.233  16.528  1.00  0.00     0.001 C 
HETATM    4  C10 UNL     1       3.146  -6.318  16.384  1.00  0.00     0.000 C 
HETATM    5  C11 UNL     1       4.332  -6.132  17.302  1.00  0.00     0.006 C 
HETATM    6  C12 UNL     1       5.087  -4.834  17.029  1.00  0.00     0.005 C 
ENDROOT
BRANCH   1   7
HETATM    7  C6  UNL     1       4.763  -2.726  15.744  1.00  0.00     0.223 C 
HETATM    8  N1  UNL     1       4.994  -2.307  14.418  1.00  0.00    -0.347 N 
ATOM      9  H1  UNL     1       4.817  -2.961  13.656  1.00  0.00     0.163 HD
HETATM   10  O1  UNL     1       4.979  -1.926  16.677  1.00  0.00    -0.273 OA
BRANCH   8  11
HETATM   11  C5  UNL     1       5.484  -0.956  14.099  1.00  0.00     0.180 C 
BRANCH  11  12
HETATM   12  C3  UNL     1       6.186  -0.996  12.769  1.00  0.00     0.013 C 
HETATM   13  C4  UNL     1       5.486  -1.877  11.754  1.00  0.00     0.012 C 
BRANCH  12  14
HETATM   14  C2  UNL     1       6.532   0.318  12.166  1.00  0.00     0.002 C 
HETATM   15  C1  UNL     1       5.941   0.339  10.749  1.00  0.00     0.005 C 
ENDBRANCH  12  14
ENDBRANCH  11  12
BRANCH  11  16
HETATM   16  C22 UNL     1       4.288  -0.109  14.003  1.00  0.00     0.241 C 
HETATM   17  O3  UNL     1       4.137   0.915  14.741  1.00  0.00    -0.271 OA
HETATM   18  N3  UNL     1       3.244  -0.371  13.093  1.00  0.00    -0.355 N 
ATOM     19  H3  UNL     1       3.331  -1.179  12.477  1.00  0.00     0.162 HD
BRANCH  18  20
HETATM   20  C23 UNL     1       2.052   0.451  12.988  1.00  0.00     0.084 C 
HETATM   21  C24 UNL     1       0.814  -0.394  12.779  1.00  0.00     0.025 C 
HETATM   22  C25 UNL     1      -0.372   0.571  12.881  1.00  0.00     0.002 C 
HETATM   23  C26 UNL     1      -0.279   1.493  11.663  1.00  0.00     0.000 C 
HETATM   24  C27 UNL     1       1.004   2.287  11.693  1.00  0.00     0.002 C 
HETATM   25  C28 UNL     1       2.202   1.346  11.797  1.00  0.00     0.025 C 
ENDBRANCH  18  20
ENDBRANCH  11  16
ENDBRANCH   8  11
ENDBRANCH   1   7
BRANCH   6  26
HETATM   26  C13 UNL     1       6.451  -5.209  16.516  1.00  0.00     0.074 C 
BRANCH  26  27
HETATM   27  C14 UNL     1       7.521  -4.523  17.251  1.00  0.00     0.073 C 
HETATM   28  S1  UNL     1       8.516  -5.392  18.222  1.00  0.00    -0.066 SA
BRANCH  27  29
HETATM   29  N2  UNL     1       7.748  -3.121  17.178  1.00  0.00    -0.382 N 
ATOM     30  H2  UNL     1       7.405  -2.528  17.934  1.00  0.00     0.160 HD
BRANCH  29  31
HETATM   31  C15 UNL     1       8.437  -2.516  16.089  1.00  0.00     0.152 C 
BRANCH  31  32
HETATM   32  C16 UNL     1       8.846  -3.492  15.017  1.00  0.00     0.139 C 
HETATM   33  C17 UNL     1      10.321  -3.462  14.731  1.00  0.00     0.034 C 
HETATM   34  C18 UNL     1      10.657  -4.559  13.777  1.00  0.00     0.003 C 
HETATM   35  C19 UNL     1       9.833  -5.799  13.948  1.00  0.00     0.002 C 
HETATM   36  C20 UNL     1       8.410  -5.649  13.528  1.00  0.00     0.026 C 
HETATM   37  C21 UNL     1       8.076  -4.291  12.972  1.00  0.00     0.168 C 
HETATM   38  O2  UNL     1       8.138  -3.261  13.868  1.00  0.00    -0.384 OA
ENDBRANCH  31  32
ENDBRANCH  29  31
ENDBRANCH  27  29
ENDBRANCH  26  27
ENDBRANCH   6  26
TORSDOF 11
ENDMDL
