MODEL 1
REMARK VINA RESULT: -4.763358559      0.000      0.000
REMARK  5 active torsions:
REMARK  status: ('A' for Active; 'I' for Inactive)
REMARK    1  A    between atoms: N1_1  and  C1_4 
REMARK    2  A    between atoms: C4_11  and  O1_12 
REMARK    3  A    between atoms: N5_18  and  C7_20 
REMARK    4  A    between atoms: C7_20  and  C8_21 
REMARK    5  A    between atoms: C8_21  and  N6_22 
ROOT
HETATM    1  C1  UNL     1      71.311  14.291  33.060  1.00  0.00     0.679 A 
HETATM    2  N2  UNL     1      71.740  13.215  33.847  1.00  0.00    -0.174 N 
ATOM      3  H2  UNL     1      71.240  13.031  34.717  1.00  0.00     0.186 HD
HETATM    4  C2  UNL     1      72.729  12.442  33.543  1.00  0.00     0.153 A 
HETATM    5  N3  UNL     1      73.264  11.382  34.177  1.00  0.00    -0.325 N 
ATOM      6  H3  UNL     1      72.948  10.993  35.066  1.00  0.00     0.169 HD
HETATM    7  C3  UNL     1      74.284  10.929  33.436  1.00  0.00     0.129 A 
HETATM    8  C4  UNL     1      75.045   9.894  33.748  1.00  0.00     0.179 C 
HETATM    9  N4  UNL     1      74.405  11.703  32.319  1.00  0.00    -0.335 N 
ATOM     10  H4  UNL     1      75.095  11.590  31.576  1.00  0.00     0.168 HD
HETATM   11  C5  UNL     1      73.451  12.636  32.379  1.00  0.00     0.123 A 
HETATM   12  C6  UNL     1      73.096  13.730  31.473  1.00  0.00     0.147 A 
HETATM   13  N5  UNL     1      73.679  14.000  30.391  1.00  0.00    -0.372 N 
ATOM     14  H5  UNL     1      73.297  14.799  29.884  1.00  0.00     0.161 HD
HETATM   15  N7  UNL     1      71.987  14.568  31.849  1.00  0.00    -0.175 N 
ATOM     16  H7  UNL     1      71.696  15.345  31.255  1.00  0.00     0.186 HD
ENDROOT
BRANCH  13  17
HETATM   17  C7  UNL     1      74.792  13.361  29.761  1.00  0.00     0.148 C 
BRANCH  17  18
HETATM   18  C8  UNL     1      74.867  13.916  28.331  1.00  0.00     0.249 C 
BRANCH  18  19
HETATM   19  N6  UNL     1      73.851  13.196  27.582  1.00  0.00    -0.078 N 
ATOM     20  H63 UNL     1      73.457  12.401  28.086  1.00  0.00     0.274 HD
ATOM     21  H62 UNL     1      72.978  13.713  27.472  1.00  0.00     0.274 HD
ATOM     22  H61 UNL     1      74.292  12.943  26.698  1.00  0.00     0.274 HD
ENDBRANCH  18  19
ENDBRANCH  17  18
ENDBRANCH  13  17
BRANCH   1  23
HETATM   23  N1  UNL     1      70.313  15.059  33.381  1.00  0.00    -0.234 N 
ATOM     24  H12 UNL     1      69.524  15.104  32.736  1.00  0.00     0.174 HD
ATOM     25  H11 UNL     1      70.283  15.612  34.238  1.00  0.00     0.174 HD
ENDBRANCH   1  23
BRANCH   8  26
HETATM   26  O1  UNL     1      74.787   9.215  34.923  1.00  0.00    -0.369 OA
ATOM     27  H1  UNL     1      75.112   8.327  35.014  1.00  0.00     0.216 HD
ENDBRANCH   8  26
TORSDOF 5
ENDMDL
MODEL 2
REMARK VINA RESULT: -4.711257561      6.828      9.065
REMARK  5 active torsions:
REMARK  status: ('A' for Active; 'I' for Inactive)
REMARK    1  A    between atoms: N1_1  and  C1_4 
REMARK    2  A    between atoms: C4_11  and  O1_12 
REMARK    3  A    between atoms: N5_18  and  C7_20 
REMARK    4  A    between atoms: C7_20  and  C8_21 
REMARK    5  A    between atoms: C8_21  and  N6_22 
ROOT
HETATM    1  C1  UNL     1      74.094  14.275  26.621  1.00  0.00     0.679 A 
HETATM    2  N2  UNL     1      73.266  15.405  26.646  1.00  0.00    -0.174 N 
ATOM      3  H2  UNL     1      72.388  15.342  27.161  1.00  0.00     0.186 HD
HETATM    4  C2  UNL     1      73.544  16.521  26.059  1.00  0.00     0.153 A 
HETATM    5  N3  UNL     1      72.871  17.684  25.985  1.00  0.00    -0.325 N 
ATOM      6  H3  UNL     1      71.967  17.882  26.414  1.00  0.00     0.169 HD
HETATM    7  C3  UNL     1      73.598  18.536  25.249  1.00  0.00     0.129 A 
HETATM    8  C4  UNL     1      73.248  19.778  24.963  1.00  0.00     0.179 C 
HETATM    9  N4  UNL     1      74.745  17.915  24.847  1.00  0.00    -0.335 N 
ATOM     10  H4  UNL     1      75.485  18.323  24.275  1.00  0.00     0.168 HD
HETATM   11  C5  UNL     1      74.717  16.675  25.343  1.00  0.00     0.123 A 
HETATM   12  C6  UNL     1      75.664  15.563  25.244  1.00  0.00     0.147 A 
HETATM   13  N5  UNL     1      76.758  15.588  24.623  1.00  0.00    -0.372 N 
ATOM     14  H5  UNL     1      77.294  14.721  24.659  1.00  0.00     0.161 HD
HETATM   15  N7  UNL     1      75.317  14.336  25.913  1.00  0.00    -0.175 N 
ATOM     16  H7  UNL     1      75.939  13.529  25.878  1.00  0.00     0.186 HD
ENDROOT
BRANCH  13  17
HETATM   17  C7  UNL     1      77.366  16.643  23.874  1.00  0.00     0.148 C 
BRANCH  17  18
HETATM   18  C8  UNL     1      78.116  15.981  22.708  1.00  0.00     0.249 C 
BRANCH  18  19
HETATM   19  N6  UNL     1      79.083  15.090  23.326  1.00  0.00    -0.078 N 
ATOM     20  H63 UNL     1      79.141  15.187  24.339  1.00  0.00     0.274 HD
ATOM     21  H62 UNL     1      78.803  14.109  23.315  1.00  0.00     0.274 HD
ATOM     22  H61 UNL     1      79.965  15.270  22.845  1.00  0.00     0.274 HD
ENDBRANCH  18  19
ENDBRANCH  17  18
ENDBRANCH  13  17
BRANCH   1  23
HETATM   23  N1  UNL     1      73.799  13.159  27.218  1.00  0.00    -0.234 N 
ATOM     24  H12 UNL     1      72.830  13.016  27.501  1.00  0.00     0.174 HD
ATOM     25  H11 UNL     1      74.484  12.428  27.413  1.00  0.00     0.174 HD
ENDBRANCH   1  23
BRANCH   8  26
HETATM   26  O1  UNL     1      72.046  20.255  25.451  1.00  0.00    -0.369 OA
ATOM     27  H1  UNL     1      71.606  20.949  24.973  1.00  0.00     0.216 HD
ENDBRANCH   8  26
TORSDOF 5
ENDMDL
MODEL 3
REMARK VINA RESULT: -4.624478938      7.094     10.531
REMARK  5 active torsions:
REMARK  status: ('A' for Active; 'I' for Inactive)
REMARK    1  A    between atoms: N1_1  and  C1_4 
REMARK    2  A    between atoms: C4_11  and  O1_12 
REMARK    3  A    between atoms: N5_18  and  C7_20 
REMARK    4  A    between atoms: C7_20  and  C8_21 
REMARK    5  A    between atoms: C8_21  and  N6_22 
ROOT
HETATM    1  C1  UNL     1      76.770  15.840  21.991  1.00  0.00     0.679 A 
HETATM    2  N2  UNL     1      75.995  17.007  22.023  1.00  0.00    -0.174 N 
ATOM      3  H2  UNL     1      75.952  17.575  21.177  1.00  0.00     0.186 HD
HETATM    4  C2  UNL     1      75.332  17.410  23.055  1.00  0.00     0.153 A 
HETATM    5  N3  UNL     1      74.552  18.488  23.252  1.00  0.00    -0.325 N 
ATOM      6  H3  UNL     1      74.345  19.212  22.564  1.00  0.00     0.169 HD
HETATM    7  C3  UNL     1      74.094  18.443  24.511  1.00  0.00     0.129 A 
HETATM    8  C4  UNL     1      73.295  19.342  25.058  1.00  0.00     0.179 C 
HETATM    9  N4  UNL     1      74.584  17.328  25.127  1.00  0.00    -0.335 N 
ATOM     10  H4  UNL     1      74.402  17.038  26.087  1.00  0.00     0.168 HD
HETATM   11  C5  UNL     1      75.347  16.689  24.236  1.00  0.00     0.123 A 
HETATM   12  C6  UNL     1      76.122  15.449  24.325  1.00  0.00     0.147 A 
HETATM   13  N5  UNL     1      76.208  14.714  25.342  1.00  0.00    -0.372 N 
ATOM     14  H5  UNL     1      76.793  13.886  25.227  1.00  0.00     0.161 HD
HETATM   15  N7  UNL     1      76.846  15.035  23.152  1.00  0.00    -0.175 N 
ATOM     16  H7  UNL     1      77.402  14.180  23.157  1.00  0.00     0.186 HD
ENDROOT
BRANCH  13  17
HETATM   17  C7  UNL     1      75.614  14.858  26.635  1.00  0.00     0.148 C 
BRANCH  17  18
HETATM   18  C8  UNL     1      74.591  13.721  26.779  1.00  0.00     0.249 C 
BRANCH  18  19
HETATM   19  N6  UNL     1      73.306  14.311  26.447  1.00  0.00    -0.078 N 
ATOM     20  H63 UNL     1      73.176  15.248  26.827  1.00  0.00     0.274 HD
ATOM     21  H62 UNL     1      73.213  14.566  25.464  1.00  0.00     0.274 HD
ATOM     22  H61 UNL     1      72.607  13.639  26.765  1.00  0.00     0.274 HD
ENDBRANCH  18  19
ENDBRANCH  17  18
ENDBRANCH  13  17
BRANCH   1  23
HETATM   23  N1  UNL     1      77.431  15.449  20.943  1.00  0.00    -0.234 N 
ATOM     24  H12 UNL     1      78.424  15.678  20.898  1.00  0.00     0.174 HD
ATOM     25  H11 UNL     1      77.008  14.930  20.173  1.00  0.00     0.174 HD
ENDBRANCH   1  23
BRANCH   8  26
HETATM   26  O1  UNL     1      72.889  20.418  24.292  1.00  0.00    -0.369 OA
ATOM     27  H1  UNL     1      73.186  21.287  24.537  1.00  0.00     0.216 HD
ENDBRANCH   8  26
TORSDOF 5
ENDMDL
MODEL 4
REMARK VINA RESULT: -4.597668699      5.861      8.298
REMARK  5 active torsions:
REMARK  status: ('A' for Active; 'I' for Inactive)
REMARK    1  A    between atoms: N1_1  and  C1_4 
REMARK    2  A    between atoms: C4_11  and  O1_12 
REMARK    3  A    between atoms: N5_18  and  C7_20 
REMARK    4  A    between atoms: C7_20  and  C8_21 
REMARK    5  A    between atoms: C8_21  and  N6_22 
ROOT
HETATM    1  C1  UNL     1      75.325  17.365  23.586  1.00  0.00     0.679 A 
HETATM    2  N2  UNL     1      75.559  16.074  24.078  1.00  0.00    -0.174 N 
ATOM      3  H2  UNL     1      76.222  15.484  23.574  1.00  0.00     0.186 HD
HETATM    4  C2  UNL     1      74.990  15.583  25.127  1.00  0.00     0.153 A 
HETATM    5  N3  UNL     1      75.100  14.383  25.726  1.00  0.00    -0.325 N 
ATOM      6  H3  UNL     1      75.696  13.613  25.421  1.00  0.00     0.169 HD
HETATM    7  C3  UNL     1      74.288  14.377  26.792  1.00  0.00     0.129 A 
HETATM    8  C4  UNL     1      74.136  13.359  27.622  1.00  0.00     0.179 C 
HETATM    9  N4  UNL     1      73.653  15.581  26.879  1.00  0.00    -0.335 N 
ATOM     10  H4  UNL     1      72.978  15.860  27.592  1.00  0.00     0.168 HD
HETATM   11  C5  UNL     1      74.081  16.328  25.857  1.00  0.00     0.123 A 
HETATM   12  C6  UNL     1      73.754  17.693  25.441  1.00  0.00     0.147 A 
HETATM   13  N5  UNL     1      72.945  18.460  26.025  1.00  0.00    -0.372 N 
ATOM     14  H5  UNL     1      72.839  19.380  25.597  1.00  0.00     0.161 HD
HETATM   15  N7  UNL     1      74.411  18.202  24.266  1.00  0.00    -0.175 N 
ATOM     16  H7  UNL     1      74.221  19.147  23.930  1.00  0.00     0.186 HD
ENDROOT
BRANCH  13  17
HETATM   17  C7  UNL     1      72.154  18.244  27.196  1.00  0.00     0.148 C 
BRANCH  17  18
HETATM   18  C8  UNL     1      70.699  18.097  26.723  1.00  0.00     0.249 C 
BRANCH  18  19
HETATM   19  N6  UNL     1      70.458  16.666  26.653  1.00  0.00    -0.078 N 
ATOM     20  H63 UNL     1      71.296  16.118  26.463  1.00  0.00     0.274 HD
ATOM     21  H62 UNL     1      70.239  16.242  27.555  1.00  0.00     0.274 HD
ATOM     22  H61 UNL     1      69.723  16.547  25.955  1.00  0.00     0.274 HD
ENDBRANCH  18  19
ENDBRANCH  17  18
ENDBRANCH  13  17
BRANCH   1  23
HETATM   23  N1  UNL     1      75.907  17.843  22.527  1.00  0.00    -0.234 N 
ATOM     24  H12 UNL     1      75.706  18.811  22.273  1.00  0.00     0.174 HD
ATOM     25  H11 UNL     1      76.549  17.303  21.946  1.00  0.00     0.174 HD
ENDBRANCH   1  23
BRANCH   8  26
HETATM   26  O1  UNL     1      74.858  12.204  27.390  1.00  0.00    -0.369 OA
ATOM     27  H1  UNL     1      74.536  11.387  27.751  1.00  0.00     0.216 HD
ENDBRANCH   8  26
TORSDOF 5
ENDMDL
MODEL 5
REMARK VINA RESULT: -4.563237244      5.552      7.760
REMARK  5 active torsions:
REMARK  status: ('A' for Active; 'I' for Inactive)
REMARK    1  A    between atoms: N1_1  and  C1_4 
REMARK    2  A    between atoms: C4_11  and  O1_12 
REMARK    3  A    between atoms: N5_18  and  C7_20 
REMARK    4  A    between atoms: C7_20  and  C8_21 
REMARK    5  A    between atoms: C8_21  and  N6_22 
ROOT
HETATM    1  C1  UNL     1      75.320  14.798  29.083  1.00  0.00     0.679 A 
HETATM    2  N2  UNL     1      75.981  14.476  27.890  1.00  0.00    -0.174 N 
ATOM      3  H2  UNL     1      76.748  13.805  27.936  1.00  0.00     0.186 HD
HETATM    4  C2  UNL     1      75.683  14.974  26.737  1.00  0.00     0.153 A 
HETATM    5  N3  UNL     1      76.208  14.777  25.514  1.00  0.00    -0.325 N 
ATOM      6  H3  UNL     1      76.984  14.154  25.288  1.00  0.00     0.169 HD
HETATM    7  C3  UNL     1      75.532  15.542  24.646  1.00  0.00     0.129 A 
HETATM    8  C4  UNL     1      75.772  15.606  23.347  1.00  0.00     0.179 C 
HETATM    9  N4  UNL     1      74.567  16.236  25.316  1.00  0.00    -0.335 N 
ATOM     10  H4  UNL     1      73.902  16.895  24.909  1.00  0.00     0.168 HD
HETATM   11  C5  UNL     1      74.655  15.891  26.603  1.00  0.00     0.123 A 
HETATM   12  C6  UNL     1      73.889  16.307  27.780  1.00  0.00     0.147 A 
HETATM   13  N5  UNL     1      72.937  17.129  27.778  1.00  0.00    -0.372 N 
ATOM     14  H5  UNL     1      72.515  17.302  28.691  1.00  0.00     0.161 HD
HETATM   15  N7  UNL     1      74.254  15.727  29.046  1.00  0.00    -0.175 N 
ATOM     16  H7  UNL     1      73.754  15.980  29.899  1.00  0.00     0.186 HD
ENDROOT
BRANCH  13  17
HETATM   17  C7  UNL     1      72.354  17.859  26.696  1.00  0.00     0.148 C 
BRANCH  17  18
HETATM   18  C8  UNL     1      70.836  17.638  26.782  1.00  0.00     0.249 C 
BRANCH  18  19
HETATM   19  N6  UNL     1      70.611  16.292  26.284  1.00  0.00    -0.078 N 
ATOM     20  H63 UNL     1      69.625  16.049  26.190  1.00  0.00     0.274 HD
ATOM     21  H62 UNL     1      70.860  16.171  25.302  1.00  0.00     0.274 HD
ATOM     22  H61 UNL     1      71.127  15.678  26.916  1.00  0.00     0.274 HD
ENDBRANCH  18  19
ENDBRANCH  17  18
ENDBRANCH  13  17
BRANCH   1  23
HETATM   23  N1  UNL     1      75.634  14.287  30.235  1.00  0.00    -0.234 N 
ATOM     24  H12 UNL     1      76.156  13.411  30.238  1.00  0.00     0.174 HD
ATOM     25  H11 UNL     1      75.385  14.716  31.127  1.00  0.00     0.174 HD
ENDBRANCH   1  23
BRANCH   8  26
HETATM   26  O1  UNL     1      76.792  14.833  22.825  1.00  0.00    -0.369 OA
ATOM     27  H1  UNL     1      77.461  14.507  23.415  1.00  0.00     0.216 HD
ENDBRANCH   8  26
TORSDOF 5
ENDMDL
