MODEL 1
REMARK VINA RESULT: -4.958611674      0.000      0.000
REMARK  5 active torsions:
REMARK  status: ('A' for Active; 'I' for Inactive)
REMARK    1  A    between atoms: N1_4  and  N2_6 
REMARK    2  A    between atoms: N2_6  and  C4_8 
REMARK    3  A    between atoms: C5_11  and  O1_12 
REMARK    4  A    between atoms: C7_16  and  N5_17 
REMARK    5  A    between atoms: C8_20  and  N6_21 
ROOT
HETATM    1  C1  UNL     1      74.606  13.154  31.836  1.00  0.00     0.018 C 
HETATM    2  C2  UNL     1      74.741  13.262  30.641  1.00  0.00    -0.071 C 
HETATM    3  C3  UNL     1      74.881  13.398  29.196  1.00  0.00     0.171 C 
HETATM    4  N1  UNL     1      73.872  13.276  28.427  1.00  0.00    -0.290 N 
ATOM      5  H1  UNL     1      72.954  13.081  28.826  1.00  0.00     0.187 HD
ENDROOT
BRANCH   4   6
HETATM    6  N2  UNL     1      74.009  13.406  27.064  1.00  0.00    -0.132 N 
ATOM      7  H2  UNL     1      73.923  12.558  26.503  1.00  0.00     0.205 HD
BRANCH   6   8
HETATM    8  C4  UNL     1      74.234  14.498  26.442  1.00  0.00     0.701 C 
HETATM    9  N3  UNL     1      73.386  15.499  26.706  1.00  0.00    -0.153 N 
HETATM   10  C5  UNL     1      73.324  16.766  26.200  1.00  0.00     0.239 C 
ATOM     11  H3  UNL     1      72.669  15.280  27.397  1.00  0.00     0.188 HD
HETATM   12  N4  UNL     1      74.173  17.247  25.279  1.00  0.00    -0.305 N 
HETATM   13  C7  UNL     1      75.109  16.616  24.518  1.00  0.00     0.147 C 
ATOM     14  H4  UNL     1      74.104  18.252  25.122  1.00  0.00     0.171 HD
HETATM   15  C8  UNL     1      75.803  15.471  24.844  1.00  0.00     0.159 C 
HETATM   16  N7  UNL     1      75.291  14.466  25.618  1.00  0.00    -0.172 N 
ATOM     17  H7  UNL     1      75.779  13.572  25.561  1.00  0.00     0.186 HD
BRANCH  10  18
HETATM   18  O1  UNL     1      72.322  17.600  26.672  1.00  0.00    -0.327 OA
HETATM   19  C6  UNL     1      70.990  17.141  26.528  1.00  0.00     0.213 C 
ENDBRANCH  10  18
BRANCH  13  20
HETATM   20  N5  UNL     1      75.380  17.132  23.382  1.00  0.00    -0.382 N 
ATOM     21  H52 UNL     1      76.371  17.245  23.167  1.00  0.00     0.157 HD
ATOM     22  H51 UNL     1      74.593  17.387  22.785  1.00  0.00     0.157 HD
ENDBRANCH  13  20
BRANCH  15  23
HETATM   23  N6  UNL     1      76.997  15.328  24.413  1.00  0.00    -0.382 N 
ATOM     24  H62 UNL     1      77.143  15.402  23.407  1.00  0.00     0.157 HD
ATOM     25  H61 UNL     1      77.744  15.142  25.082  1.00  0.00     0.157 HD
ENDBRANCH  15  23
ENDBRANCH   6   8
ENDBRANCH   4   6
TORSDOF 5
ENDMDL
MODEL 2
REMARK VINA RESULT: -4.948712142      5.420      7.116
REMARK  5 active torsions:
REMARK  status: ('A' for Active; 'I' for Inactive)
REMARK    1  A    between atoms: N1_4  and  N2_6 
REMARK    2  A    between atoms: N2_6  and  C4_8 
REMARK    3  A    between atoms: C5_11  and  O1_12 
REMARK    4  A    between atoms: C7_16  and  N5_17 
REMARK    5  A    between atoms: C8_20  and  N6_21 
ROOT
HETATM    1  C1  UNL     1      77.306   7.994  33.975  1.00  0.00     0.018 C 
HETATM    2  C2  UNL     1      76.432   8.787  34.230  1.00  0.00    -0.071 C 
HETATM    3  C3  UNL     1      75.364   9.736  34.519  1.00  0.00     0.171 C 
HETATM    4  N1  UNL     1      74.565  10.120  33.604  1.00  0.00    -0.290 N 
ATOM      5  H1  UNL     1      74.673   9.760  32.656  1.00  0.00     0.187 HD
ENDROOT
BRANCH   4   6
HETATM    6  N2  UNL     1      73.558  11.016  33.882  1.00  0.00    -0.132 N 
ATOM      7  H2  UNL     1      72.934  10.791  34.656  1.00  0.00     0.205 HD
BRANCH   6   8
HETATM    8  C4  UNL     1      73.339  12.105  33.252  1.00  0.00     0.701 C 
HETATM    9  N3  UNL     1      72.051  12.431  33.092  1.00  0.00    -0.153 N 
HETATM   10  C5  UNL     1      71.478  13.492  32.452  1.00  0.00     0.239 C 
ATOM     11  H3  UNL     1      71.390  11.780  33.516  1.00  0.00     0.188 HD
HETATM   12  N4  UNL     1      72.172  14.455  31.828  1.00  0.00    -0.305 N 
HETATM   13  C7  UNL     1      73.494  14.534  31.513  1.00  0.00     0.147 C 
ATOM     14  H4  UNL     1      71.617  15.262  31.543  1.00  0.00     0.171 HD
HETATM   15  C8  UNL     1      74.541  13.944  32.188  1.00  0.00     0.159 C 
HETATM   16  N7  UNL     1      74.442  12.751  32.850  1.00  0.00    -0.172 N 
ATOM     17  H7  UNL     1      75.327  12.292  33.068  1.00  0.00     0.186 HD
BRANCH  10  18
HETATM   18  O1  UNL     1      70.093  13.572  32.453  1.00  0.00    -0.327 OA
HETATM   19  C6  UNL     1      69.526  14.811  32.836  1.00  0.00     0.213 C 
ENDBRANCH  10  18
BRANCH  13  20
HETATM   20  N5  UNL     1      73.808  15.227  30.487  1.00  0.00    -0.382 N 
ATOM     21  H52 UNL     1      73.087  15.855  30.133  1.00  0.00     0.157 HD
ATOM     22  H51 UNL     1      74.746  15.097  30.106  1.00  0.00     0.157 HD
ENDBRANCH  13  20
BRANCH  15  23
HETATM   23  N6  UNL     1      75.673  14.535  32.211  1.00  0.00    -0.382 N 
ATOM     24  H62 UNL     1      75.809  15.257  32.918  1.00  0.00     0.157 HD
ATOM     25  H61 UNL     1      76.383  14.269  31.530  1.00  0.00     0.157 HD
ENDBRANCH  15  23
ENDBRANCH   6   8
ENDBRANCH   4   6
TORSDOF 5
ENDMDL
MODEL 3
REMARK VINA RESULT: -4.946475540      6.630      8.011
REMARK  5 active torsions:
REMARK  status: ('A' for Active; 'I' for Inactive)
REMARK    1  A    between atoms: N1_4  and  N2_6 
REMARK    2  A    between atoms: N2_6  and  C4_8 
REMARK    3  A    between atoms: C5_11  and  O1_12 
REMARK    4  A    between atoms: C7_16  and  N5_17 
REMARK    5  A    between atoms: C8_20  and  N6_21 
ROOT
HETATM    1  C1  UNL     1      77.604   7.672  33.677  1.00  0.00     0.018 C 
HETATM    2  C2  UNL     1      76.778   8.470  34.050  1.00  0.00    -0.071 C 
HETATM    3  C3  UNL     1      75.765   9.424  34.484  1.00  0.00     0.171 C 
HETATM    4  N1  UNL     1      74.792   9.736  33.724  1.00  0.00    -0.290 N 
ATOM      5  H1  UNL     1      74.718   9.313  32.798  1.00  0.00     0.187 HD
ENDROOT
BRANCH   4   6
HETATM    6  N2  UNL     1      73.837  10.637  34.139  1.00  0.00    -0.132 N 
ATOM      7  H2  UNL     1      73.369  10.446  35.025  1.00  0.00     0.205 HD
BRANCH   6   8
HETATM    8  C4  UNL     1      73.489  11.692  33.509  1.00  0.00     0.701 C 
HETATM    9  N3  UNL     1      74.406  12.666  33.464  1.00  0.00    -0.153 N 
HETATM   10  C5  UNL     1      74.348  13.912  32.908  1.00  0.00     0.239 C 
ATOM     11  H3  UNL     1      75.291  12.441  33.918  1.00  0.00     0.188 HD
HETATM   12  N4  UNL     1      73.274  14.399  32.270  1.00  0.00    -0.305 N 
HETATM   13  C7  UNL     1      72.002  13.922  32.180  1.00  0.00     0.147 C 
ATOM     14  H4  UNL     1      73.437  15.272  31.769  1.00  0.00     0.171 HD
HETATM   15  C8  UNL     1      71.609  12.602  32.247  1.00  0.00     0.159 C 
HETATM   16  N7  UNL     1      72.254  11.654  32.992  1.00  0.00    -0.172 N 
ATOM     17  H7  UNL     1      71.723  10.802  33.179  1.00  0.00     0.186 HD
BRANCH  10  18
HETATM   18  O1  UNL     1      75.473  14.717  33.015  1.00  0.00    -0.327 OA
HETATM   19  C6  UNL     1      76.651  14.104  33.504  1.00  0.00     0.213 C 
ENDBRANCH  10  18
BRANCH  13  20
HETATM   20  N5  UNL     1      71.069  14.777  32.015  1.00  0.00    -0.382 N 
ATOM     21  H52 UNL     1      71.123  15.616  32.591  1.00  0.00     0.157 HD
ATOM     22  H51 UNL     1      70.350  14.555  31.326  1.00  0.00     0.157 HD
ENDBRANCH  13  20
BRANCH  15  23
HETATM   23  N6  UNL     1      70.590  12.226  31.574  1.00  0.00    -0.382 N 
ATOM     24  H62 UNL     1      70.585  11.266  31.230  1.00  0.00     0.157 HD
ATOM     25  H61 UNL     1      69.836  12.892  31.406  1.00  0.00     0.157 HD
ENDBRANCH  15  23
ENDBRANCH   6   8
ENDBRANCH   4   6
TORSDOF 5
ENDMDL
MODEL 4
REMARK VINA RESULT: -4.807774425      1.767      3.120
REMARK  5 active torsions:
REMARK  status: ('A' for Active; 'I' for Inactive)
REMARK    1  A    between atoms: N1_4  and  N2_6 
REMARK    2  A    between atoms: N2_6  and  C4_8 
REMARK    3  A    between atoms: C5_11  and  O1_12 
REMARK    4  A    between atoms: C7_16  and  N5_17 
REMARK    5  A    between atoms: C8_20  and  N6_21 
ROOT
HETATM    1  C1  UNL     1      74.609  13.215  31.841  1.00  0.00     0.018 C 
HETATM    2  C2  UNL     1      74.737  13.268  30.642  1.00  0.00    -0.071 C 
HETATM    3  C3  UNL     1      74.869  13.339  29.192  1.00  0.00     0.171 C 
HETATM    4  N1  UNL     1      73.841  13.306  28.439  1.00  0.00    -0.290 N 
ATOM      5  H1  UNL     1      72.913  13.228  28.855  1.00  0.00     0.187 HD
ENDROOT
BRANCH   4   6
HETATM    6  N2  UNL     1      73.971  13.375  27.071  1.00  0.00    -0.132 N 
ATOM      7  H2  UNL     1      73.946  12.495  26.555  1.00  0.00     0.205 HD
BRANCH   6   8
HETATM    8  C4  UNL     1      74.119  14.446  26.392  1.00  0.00     0.701 C 
HETATM    9  N3  UNL     1      75.028  14.388  25.411  1.00  0.00    -0.153 N 
HETATM   10  C5  UNL     1      75.447  15.346  24.533  1.00  0.00     0.239 C 
ATOM     11  H3  UNL     1      75.481  13.481  25.303  1.00  0.00     0.188 HD
HETATM   12  N4  UNL     1      74.977  16.602  24.514  1.00  0.00    -0.305 N 
HETATM   13  C7  UNL     1      74.185  17.267  25.399  1.00  0.00     0.147 C 
ATOM     14  H4  UNL     1      75.262  17.149  23.702  1.00  0.00     0.171 HD
HETATM   15  C8  UNL     1      73.237  16.717  26.234  1.00  0.00     0.159 C 
HETATM   16  N7  UNL     1      73.335  15.464  26.774  1.00  0.00    -0.172 N 
ATOM     17  H7  UNL     1      72.730  15.279  27.574  1.00  0.00     0.186 HD
BRANCH  10  18
HETATM   18  O1  UNL     1      76.416  14.990  23.607  1.00  0.00    -0.327 OA
HETATM   19  C6  UNL     1      76.393  15.669  22.366  1.00  0.00     0.213 C 
ENDBRANCH  10  18
BRANCH  13  20
HETATM   20  N5  UNL     1      74.325  18.535  25.468  1.00  0.00    -0.382 N 
ATOM     21  H52 UNL     1      75.193  18.911  25.086  1.00  0.00     0.157 HD
ATOM     22  H51 UNL     1      73.567  19.065  25.898  1.00  0.00     0.157 HD
ENDBRANCH  13  20
BRANCH  15  23
HETATM   23  N6  UNL     1      72.197  17.401  26.525  1.00  0.00    -0.382 N 
ATOM     24  H62 UNL     1      72.325  18.208  27.135  1.00  0.00     0.157 HD
ATOM     25  H61 UNL     1      71.296  17.113  26.146  1.00  0.00     0.157 HD
ENDBRANCH  15  23
ENDBRANCH   6   8
ENDBRANCH   4   6
TORSDOF 5
ENDMDL
MODEL 5
REMARK VINA RESULT: -4.800948340      5.078      7.259
REMARK  5 active torsions:
REMARK  status: ('A' for Active; 'I' for Inactive)
REMARK    1  A    between atoms: N1_4  and  N2_6 
REMARK    2  A    between atoms: N2_6  and  C4_8 
REMARK    3  A    between atoms: C5_11  and  O1_12 
REMARK    4  A    between atoms: C7_16  and  N5_17 
REMARK    5  A    between atoms: C8_20  and  N6_21 
ROOT
HETATM    1  C1  UNL     1      77.003   8.399  34.472  1.00  0.00     0.018 C 
HETATM    2  C2  UNL     1      76.112   9.210  34.538  1.00  0.00    -0.071 C 
HETATM    3  C3  UNL     1      75.023  10.177  34.600  1.00  0.00     0.171 C 
HETATM    4  N1  UNL     1      74.229  10.332  33.615  1.00  0.00    -0.290 N 
ATOM      5  H1  UNL     1      74.357   9.774  32.771  1.00  0.00     0.187 HD
ENDROOT
BRANCH   4   6
HETATM    6  N2  UNL     1      73.202  11.246  33.679  1.00  0.00    -0.132 N 
ATOM      7  H2  UNL     1      72.482  11.091  34.385  1.00  0.00     0.205 HD
BRANCH   6   8
HETATM    8  C4  UNL     1      73.074  12.272  32.929  1.00  0.00     0.701 C 
HETATM    9  N3  UNL     1      74.102  12.520  32.108  1.00  0.00    -0.153 N 
HETATM   10  C5  UNL     1      74.299  13.533  31.215  1.00  0.00     0.239 C 
ATOM     11  H3  UNL     1      74.861  11.841  32.159  1.00  0.00     0.188 HD
HETATM   12  N4  UNL     1      73.422  14.526  31.003  1.00  0.00    -0.305 N 
HETATM   13  C7  UNL     1      72.300  14.881  31.687  1.00  0.00     0.147 C 
ATOM     14  H4  UNL     1      73.630  15.111  30.194  1.00  0.00     0.171 HD
HETATM   15  C8  UNL     1      71.481  14.049  32.419  1.00  0.00     0.159 C 
HETATM   16  N7  UNL     1      71.924  12.941  33.086  1.00  0.00    -0.172 N 
ATOM     17  H7  UNL     1      71.293  12.573  33.800  1.00  0.00     0.186 HD
BRANCH  10  18
HETATM   18  O1  UNL     1      75.479  13.529  30.486  1.00  0.00    -0.327 OA
HETATM   19  C6  UNL     1      75.383  13.174  29.120  1.00  0.00     0.213 C 
ENDBRANCH  10  18
BRANCH  13  20
HETATM   20  N5  UNL     1      71.963  16.113  31.654  1.00  0.00    -0.382 N 
ATOM     21  H52 UNL     1      71.714  16.533  32.549  1.00  0.00     0.157 HD
ATOM     22  H51 UNL     1      71.968  16.573  30.743  1.00  0.00     0.157 HD
ENDBRANCH  13  20
BRANCH  15  23
HETATM   23  N6  UNL     1      70.231  14.310  32.480  1.00  0.00    -0.382 N 
ATOM     24  H62 UNL     1      69.587  13.595  32.143  1.00  0.00     0.157 HD
ATOM     25  H61 UNL     1      69.933  15.211  32.854  1.00  0.00     0.157 HD
ENDBRANCH  15  23
ENDBRANCH   6   8
ENDBRANCH   4   6
TORSDOF 5
ENDMDL
