MODEL 1
REMARK VINA RESULT: -6.384005590      0.000      0.000
REMARK  4 active torsions:
REMARK  status: ('A' for Active; 'I' for Inactive)
REMARK    1  A    between atoms: S1_2  and  C2_3 
REMARK    2  A    between atoms: C2_3  and  N1_5 
REMARK    3  A    between atoms: N1_5  and  C3_7 
REMARK    4  A    between atoms: C6_12  and  C7_13 
ROOT
HETATM    1  C3  UNL     1       7.929 -24.096  -7.929  1.00  0.00     0.151 A 
HETATM    2  N2  UNL     1       7.418 -23.607  -6.796  1.00  0.00    -0.339 N 
ATOM      3  H2  UNL     1       6.518 -23.934  -6.447  1.00  0.00     0.168 HD
HETATM    4  C4  UNL     1       8.092 -22.706  -6.147  1.00  0.00     0.026 A 
HETATM    5  C5  UNL     1       7.621 -22.070  -4.845  1.00  0.00     0.070 C 
HETATM    6  C6  UNL     1       9.295 -22.306  -6.664  1.00  0.00     0.053 A 
HETATM    7  S3  UNL     1       9.404 -23.255  -8.078  1.00  0.00    -0.050 SA
ENDROOT
BRANCH   6   8
HETATM    8  C7  UNL     1      10.270 -21.320  -6.166  1.00  0.00     0.027 C 
HETATM    9  N3  UNL     1      11.535 -21.421  -6.330  1.00  0.00    -0.389 N 
HETATM   10  C8  UNL     1      12.228 -20.301  -5.730  1.00  0.00     0.157 C 
ATOM     11  H3  UNL     1      11.995 -22.188  -6.819  1.00  0.00     0.159 HD
HETATM   12  C9  UNL     1      11.163 -19.239  -5.708  1.00  0.00     0.193 C 
HETATM   13  F1  UNL     1      11.343 -18.332  -4.684  1.00  0.00    -0.247 F 
HETATM   14  C10 UNL     1       9.919 -20.092  -5.418  1.00  0.00     0.097 C 
ENDBRANCH   6   8
BRANCH   1  15
HETATM   15  N1  UNL     1       7.398 -25.006  -8.719  1.00  0.00    -0.322 N 
ATOM     16  H1  UNL     1       7.890 -25.888  -8.861  1.00  0.00     0.169 HD
BRANCH  15  17
HETATM   17  C2  UNL     1       6.172 -24.796  -9.370  1.00  0.00     0.140 C 
HETATM   18  S2  UNL     1       5.474 -23.322  -9.415  1.00  0.00    -0.053 SA
BRANCH  17  19
HETATM   19  S1  UNL     1       5.368 -26.176 -10.164  1.00  0.00    -0.105 SA
HETATM   20  C1  UNL     1       6.324 -27.687  -9.946  1.00  0.00     0.098 C 
ENDBRANCH  17  19
ENDBRANCH  15  17
ENDBRANCH   1  15
TORSDOF 4
ENDMDL
MODEL 2
REMARK VINA RESULT: -6.342597679      0.707      1.651
REMARK  4 active torsions:
REMARK  status: ('A' for Active; 'I' for Inactive)
REMARK    1  A    between atoms: S1_2  and  C2_3 
REMARK    2  A    between atoms: C2_3  and  N1_5 
REMARK    3  A    between atoms: N1_5  and  C3_7 
REMARK    4  A    between atoms: C6_12  and  C7_13 
ROOT
HETATM    1  C3  UNL     1       8.035 -24.229  -8.057  1.00  0.00     0.151 A 
HETATM    2  N2  UNL     1       7.492 -23.753  -6.933  1.00  0.00    -0.339 N 
ATOM      3  H2  UNL     1       6.591 -24.099  -6.603  1.00  0.00     0.168 HD
HETATM    4  C4  UNL     1       8.134 -22.840  -6.270  1.00  0.00     0.026 A 
HETATM    5  C5  UNL     1       7.626 -22.216  -4.976  1.00  0.00     0.070 C 
HETATM    6  C6  UNL     1       9.339 -22.415  -6.762  1.00  0.00     0.053 A 
HETATM    7  S3  UNL     1       9.495 -23.358  -8.175  1.00  0.00    -0.050 SA
ENDROOT
BRANCH   6   8
HETATM    8  C7  UNL     1      10.284 -21.411  -6.243  1.00  0.00     0.027 C 
HETATM    9  N3  UNL     1      11.554 -21.482  -6.389  1.00  0.00    -0.389 N 
HETATM   10  C8  UNL     1      12.212 -20.351  -5.771  1.00  0.00     0.157 C 
ATOM     11  H3  UNL     1      12.037 -22.235  -6.877  1.00  0.00     0.159 HD
HETATM   12  C9  UNL     1      11.122 -19.313  -5.758  1.00  0.00     0.193 C 
HETATM   13  F1  UNL     1      11.267 -18.409  -4.726  1.00  0.00    -0.247 F 
HETATM   14  C10 UNL     1       9.895 -20.196  -5.492  1.00  0.00     0.097 C 
ENDBRANCH   6   8
BRANCH   1  15
HETATM   15  N1  UNL     1       7.537 -25.149  -8.858  1.00  0.00    -0.322 N 
ATOM     16  H1  UNL     1       8.031 -26.035  -8.963  1.00  0.00     0.169 HD
BRANCH  15  17
HETATM   17  C2  UNL     1       6.347 -24.942  -9.572  1.00  0.00     0.140 C 
HETATM   18  S2  UNL     1       5.431 -26.193 -10.081  1.00  0.00    -0.053 SA
BRANCH  17  19
HETATM   19  S1  UNL     1       5.830 -23.272  -9.925  1.00  0.00    -0.105 SA
HETATM   20  C1  UNL     1       4.417 -22.810  -8.907  1.00  0.00     0.098 C 
ENDBRANCH  17  19
ENDBRANCH  15  17
ENDBRANCH   1  15
TORSDOF 4
ENDMDL
MODEL 3
REMARK VINA RESULT: -6.212081079      1.414      1.967
REMARK  4 active torsions:
REMARK  status: ('A' for Active; 'I' for Inactive)
REMARK    1  A    between atoms: S1_2  and  C2_3 
REMARK    2  A    between atoms: C2_3  and  N1_5 
REMARK    3  A    between atoms: N1_5  and  C3_7 
REMARK    4  A    between atoms: C6_12  and  C7_13 
ROOT
HETATM    1  C3  UNL     1       7.903 -24.026  -7.977  1.00  0.00     0.151 A 
HETATM    2  N2  UNL     1       7.397 -23.554  -6.835  1.00  0.00    -0.339 N 
ATOM      3  H2  UNL     1       6.494 -23.880  -6.491  1.00  0.00     0.168 HD
HETATM    4  C4  UNL     1       8.078 -22.670  -6.170  1.00  0.00     0.026 A 
HETATM    5  C5  UNL     1       7.614 -22.054  -4.856  1.00  0.00     0.070 C 
HETATM    6  C6  UNL     1       9.284 -22.271  -6.681  1.00  0.00     0.053 A 
HETATM    7  S3  UNL     1       9.384 -23.194  -8.112  1.00  0.00    -0.050 SA
ENDROOT
BRANCH   6   8
HETATM    8  C7  UNL     1      10.267 -21.302  -6.166  1.00  0.00     0.027 C 
HETATM    9  N3  UNL     1      11.532 -21.410  -6.332  1.00  0.00    -0.389 N 
HETATM   10  C8  UNL     1      12.234 -20.307  -5.713  1.00  0.00     0.157 C 
ATOM     11  H3  UNL     1      11.985 -22.172  -6.835  1.00  0.00     0.159 HD
HETATM   12  C9  UNL     1      11.177 -19.236  -5.671  1.00  0.00     0.193 C 
HETATM   13  F1  UNL     1      11.365 -18.349  -4.631  1.00  0.00    -0.247 F 
HETATM   14  C10 UNL     1       9.927 -20.084  -5.396  1.00  0.00     0.097 C 
ENDBRANCH   6   8
BRANCH   1  15
HETATM   15  N1  UNL     1       7.363 -24.918  -8.783  1.00  0.00    -0.322 N 
ATOM     16  H1  UNL     1       6.737 -25.622  -8.394  1.00  0.00     0.169 HD
BRANCH  15  17
HETATM   17  C2  UNL     1       7.628 -24.925 -10.161  1.00  0.00     0.140 C 
HETATM   18  S2  UNL     1       8.503 -26.115 -10.854  1.00  0.00    -0.053 SA
BRANCH  17  19
HETATM   19  S1  UNL     1       6.988 -23.601 -11.171  1.00  0.00    -0.105 SA
HETATM   20  C1  UNL     1       8.324 -22.559 -11.781  1.00  0.00     0.098 C 
ENDBRANCH  17  19
ENDBRANCH  15  17
ENDBRANCH   1  15
TORSDOF 4
ENDMDL
MODEL 4
REMARK VINA RESULT: -6.191799841      3.428      4.356
REMARK  4 active torsions:
REMARK  status: ('A' for Active; 'I' for Inactive)
REMARK    1  A    between atoms: S1_2  and  C2_3 
REMARK    2  A    between atoms: C2_3  and  N1_5 
REMARK    3  A    between atoms: N1_5  and  C3_7 
REMARK    4  A    between atoms: C6_12  and  C7_13 
ROOT
HETATM    1  C3  UNL     1      11.203 -22.861  -7.778  1.00  0.00     0.151 A 
HETATM    2  N2  UNL     1       9.948 -23.318  -7.810  1.00  0.00    -0.339 N 
ATOM      3  H2  UNL     1       9.671 -24.032  -8.483  1.00  0.00     0.168 HD
HETATM    4  C4  UNL     1       9.088 -22.835  -6.966  1.00  0.00     0.026 A 
HETATM    5  C5  UNL     1       7.629 -23.271  -6.898  1.00  0.00     0.070 C 
HETATM    6  C6  UNL     1       9.518 -21.878  -6.086  1.00  0.00     0.053 A 
HETATM    7  S3  UNL     1      11.160 -21.715  -6.518  1.00  0.00    -0.050 SA
ENDROOT
BRANCH   6   8
HETATM    8  C7  UNL     1       8.790 -21.153  -5.030  1.00  0.00     0.027 C 
HETATM    9  N3  UNL     1       7.663 -21.528  -4.552  1.00  0.00    -0.389 N 
HETATM   10  C8  UNL     1       7.201 -20.614  -3.530  1.00  0.00     0.157 C 
ATOM     11  H3  UNL     1       7.157 -22.361  -4.853  1.00  0.00     0.159 HD
HETATM   12  C9  UNL     1       8.484 -19.983  -3.061  1.00  0.00     0.193 C 
HETATM   13  F1  UNL     1       8.295 -18.707  -2.570  1.00  0.00    -0.247 F 
HETATM   14  C10 UNL     1       9.262 -19.908  -4.382  1.00  0.00     0.097 C 
ENDBRANCH   6   8
BRANCH   1  15
HETATM   15  N1  UNL     1      12.207 -23.227  -8.548  1.00  0.00    -0.322 N 
ATOM     16  H1  UNL     1      13.159 -22.997  -8.263  1.00  0.00     0.169 HD
BRANCH  15  17
HETATM   17  C2  UNL     1      12.002 -23.924  -9.749  1.00  0.00     0.140 C 
HETATM   18  S2  UNL     1      12.016 -25.555  -9.800  1.00  0.00    -0.053 SA
BRANCH  17  19
HETATM   19  S1  UNL     1      11.720 -22.998 -11.248  1.00  0.00    -0.105 SA
HETATM   20  C1  UNL     1      10.045 -22.339 -11.288  1.00  0.00     0.098 C 
ENDBRANCH  17  19
ENDBRANCH  15  17
ENDBRANCH   1  15
TORSDOF 4
ENDMDL
MODEL 5
REMARK VINA RESULT: -6.186366885      1.197      1.342
REMARK  4 active torsions:
REMARK  status: ('A' for Active; 'I' for Inactive)
REMARK    1  A    between atoms: S1_2  and  C2_3 
REMARK    2  A    between atoms: C2_3  and  N1_5 
REMARK    3  A    between atoms: N1_5  and  C3_7 
REMARK    4  A    between atoms: C6_12  and  C7_13 
ROOT
HETATM    1  C3  UNL     1       8.396 -24.143  -8.415  1.00  0.00     0.151 A 
HETATM    2  N2  UNL     1       7.726 -24.051  -7.263  1.00  0.00    -0.339 N 
ATOM      3  H2  UNL     1       6.999 -24.726  -7.029  1.00  0.00     0.168 HD
HETATM    4  C4  UNL     1       8.020 -23.085  -6.447  1.00  0.00     0.026 A 
HETATM    5  C5  UNL     1       7.333 -22.870  -5.104  1.00  0.00     0.070 C 
HETATM    6  C6  UNL     1       9.006 -22.209  -6.816  1.00  0.00     0.053 A 
HETATM    7  S3  UNL     1       9.471 -22.823  -8.338  1.00  0.00    -0.050 SA
ENDROOT
BRANCH   6   8
HETATM    8  C7  UNL     1       9.553 -21.034  -6.115  1.00  0.00     0.027 C 
HETATM    9  N3  UNL     1       9.248 -20.712  -4.914  1.00  0.00    -0.389 N 
HETATM   10  C8  UNL     1       9.945 -19.512  -4.505  1.00  0.00     0.157 C 
ATOM     11  H3  UNL     1       8.600 -21.233  -4.324  1.00  0.00     0.159 HD
HETATM   12  C9  UNL     1      11.142 -19.509  -5.417  1.00  0.00     0.193 C 
HETATM   13  F1  UNL     1      11.614 -18.236  -5.664  1.00  0.00    -0.247 F 
HETATM   14  C10 UNL     1      10.521 -20.079  -6.700  1.00  0.00     0.097 C 
ENDBRANCH   6   8
BRANCH   1  15
HETATM   15  N1  UNL     1       8.240 -25.046  -9.361  1.00  0.00    -0.322 N 
ATOM     16  H1  UNL     1       9.063 -25.513  -9.741  1.00  0.00     0.169 HD
BRANCH  15  17
HETATM   17  C2  UNL     1       6.972 -25.382  -9.861  1.00  0.00     0.140 C 
HETATM   18  S2  UNL     1       5.947 -24.242 -10.419  1.00  0.00    -0.053 SA
BRANCH  17  19
HETATM   19  S1  UNL     1       6.479 -27.096  -9.884  1.00  0.00    -0.105 SA
HETATM   20  C1  UNL     1       4.910 -27.299 -10.744  1.00  0.00     0.098 C 
ENDBRANCH  17  19
ENDBRANCH  15  17
ENDBRANCH   1  15
TORSDOF 4
ENDMDL
