MODEL 1
REMARK VINA RESULT: -4.810066399      0.000      0.000
REMARK  3 active torsions:
REMARK  status: ('A' for Active; 'I' for Inactive)
REMARK    1  A    between atoms: S1_2  and  C2_3 
REMARK       I    between atoms: C2_3  and  N1_5 
REMARK    2  A    between atoms: N1_5  and  C3_7 
REMARK    3  A    between atoms: C4_12  and  S2_13 
ROOT
HETATM    1  C3  UNL     1       0.296  10.577  -7.188  1.00  0.00     0.169 A 
HETATM    2  N2  UNL     1       1.394  11.319  -7.350  1.00  0.00    -0.278 N 
ATOM      3  H2  UNL     1       1.604  12.084  -6.708  1.00  0.00     0.189 HD
HETATM    4  N3  UNL     1       2.170  11.053  -8.319  1.00  0.00    -0.286 N 
ATOM      5  H3  UNL     1       3.015  11.609  -8.460  1.00  0.00     0.188 HD
HETATM    6  C4  UNL     1       1.890  10.058  -9.147  1.00  0.00     0.129 A 
HETATM    7  S3  UNL     1       0.419   9.473  -8.487  1.00  0.00    -0.026 SA
ENDROOT
BRANCH   1   8
HETATM    8  N1  UNL     1      -0.620  10.696  -6.253  1.00  0.00    -0.297 N 
HETATM    9  C2  UNL     1      -1.346  11.934  -6.267  1.00  0.00     0.285 C 
HETATM   10  O1  UNL     1      -1.504  12.581  -7.316  1.00  0.00    -0.260 OA
ATOM     11  H1  UNL     1      -0.802   9.962  -5.567  1.00  0.00     0.171 HD
BRANCH   9  12
HETATM   12  S1  UNL     1      -2.006  12.486  -4.703  1.00  0.00    -0.073 SA
HETATM   13  C1  UNL     1      -1.790  14.278  -4.604  1.00  0.00     0.100 C 
ENDBRANCH   9  12
ENDBRANCH   1   8
BRANCH   6  14
HETATM   14  S2  UNL     1       2.823   9.486 -10.586  1.00  0.00    -0.108 SA
HETATM   15  C5  UNL     1       2.961  10.906 -11.706  1.00  0.00     0.097 C 
ENDBRANCH   6  14
TORSDOF 3
ENDMDL
MODEL 2
REMARK VINA RESULT: -4.706347489      0.996      1.129
REMARK  3 active torsions:
REMARK  status: ('A' for Active; 'I' for Inactive)
REMARK    1  A    between atoms: S1_2  and  C2_3 
REMARK       I    between atoms: C2_3  and  N1_5 
REMARK    2  A    between atoms: N1_5  and  C3_7 
REMARK    3  A    between atoms: C4_12  and  S2_13 
ROOT
HETATM    1  C3  UNL     1       0.294  10.962  -7.216  1.00  0.00     0.169 A 
HETATM    2  N2  UNL     1       1.266  11.855  -7.420  1.00  0.00    -0.278 N 
ATOM      3  H2  UNL     1       1.391  12.643  -6.783  1.00  0.00     0.189 HD
HETATM    4  N3  UNL     1       2.030  11.703  -8.423  1.00  0.00    -0.286 N 
ATOM      5  H3  UNL     1       2.779  12.374  -8.596  1.00  0.00     0.188 HD
HETATM    6  C4  UNL     1       1.861  10.677  -9.243  1.00  0.00     0.129 A 
HETATM    7  S3  UNL     1       0.519   9.887  -8.525  1.00  0.00    -0.026 SA
ENDROOT
BRANCH   1   8
HETATM    8  N1  UNL     1      -0.589  10.948  -6.242  1.00  0.00    -0.297 N 
HETATM    9  C2  UNL     1      -1.427  12.111  -6.166  1.00  0.00     0.285 C 
HETATM   10  O1  UNL     1      -1.689  12.789  -7.173  1.00  0.00    -0.260 OA
ATOM     11  H1  UNL     1      -0.673  10.169  -5.589  1.00  0.00     0.171 HD
BRANCH   9  12
HETATM   12  S1  UNL     1      -2.070  12.523  -4.551  1.00  0.00    -0.073 SA
HETATM   13  C1  UNL     1      -2.616  10.993  -3.758  1.00  0.00     0.100 C 
ENDBRANCH   9  12
ENDBRANCH   1   8
BRANCH   6  14
HETATM   14  S2  UNL     1       2.804  10.244 -10.724  1.00  0.00    -0.108 SA
HETATM   15  C5  UNL     1       3.043  11.786 -11.649  1.00  0.00     0.097 C 
ENDBRANCH   6  14
TORSDOF 3
ENDMDL
MODEL 3
REMARK VINA RESULT: -4.705958688      1.965      5.719
REMARK  3 active torsions:
REMARK  status: ('A' for Active; 'I' for Inactive)
REMARK    1  A    between atoms: S1_2  and  C2_3 
REMARK       I    between atoms: C2_3  and  N1_5 
REMARK    2  A    between atoms: N1_5  and  C3_7 
REMARK    3  A    between atoms: C4_12  and  S2_13 
ROOT
HETATM    1  C3  UNL     1       1.291  11.582  -7.476  1.00  0.00     0.169 A 
HETATM    2  N2  UNL     1       1.241  12.866  -7.113  1.00  0.00    -0.278 N 
ATOM      3  H2  UNL     1       1.955  13.524  -7.427  1.00  0.00     0.189 HD
HETATM    4  N3  UNL     1       0.287  13.251  -6.368  1.00  0.00    -0.286 N 
ATOM      5  H3  UNL     1       0.230  14.228  -6.080  1.00  0.00     0.188 HD
HETATM    6  C4  UNL     1      -0.635  12.390  -5.965  1.00  0.00     0.129 A 
HETATM    7  S3  UNL     1      -0.092  10.941  -6.704  1.00  0.00    -0.026 SA
ENDROOT
BRANCH   1   8
HETATM    8  N1  UNL     1       2.192  10.999  -8.235  1.00  0.00    -0.297 N 
HETATM    9  C2  UNL     1       1.846  10.906  -9.625  1.00  0.00     0.285 C 
HETATM   10  O1  UNL     1       1.085  11.729 -10.161  1.00  0.00    -0.260 OA
ATOM     11  H1  UNL     1       3.071  10.639  -7.865  1.00  0.00     0.171 HD
BRANCH   9  12
HETATM   12  S1  UNL     1       2.570   9.551 -10.535  1.00  0.00    -0.073 SA
HETATM   13  C1  UNL     1       2.242   8.025  -9.624  1.00  0.00     0.100 C 
ENDBRANCH   9  12
ENDBRANCH   1   8
BRANCH   6  14
HETATM   14  S2  UNL     1      -2.077  12.685  -4.914  1.00  0.00    -0.108 SA
HETATM   15  C5  UNL     1      -2.394  11.133  -4.030  1.00  0.00     0.097 C 
ENDBRANCH   6  14
TORSDOF 3
ENDMDL
MODEL 4
REMARK VINA RESULT: -4.633212396      1.907      5.751
REMARK  3 active torsions:
REMARK  status: ('A' for Active; 'I' for Inactive)
REMARK    1  A    between atoms: S1_2  and  C2_3 
REMARK       I    between atoms: C2_3  and  N1_5 
REMARK    2  A    between atoms: N1_5  and  C3_7 
REMARK    3  A    between atoms: C4_12  and  S2_13 
ROOT
HETATM    1  C3  UNL     1       1.550  11.290  -7.988  1.00  0.00     0.169 A 
HETATM    2  N2  UNL     1       1.593  12.538  -7.518  1.00  0.00    -0.278 N 
ATOM      3  H2  UNL     1       2.361  13.162  -7.768  1.00  0.00     0.189 HD
HETATM    4  N3  UNL     1       0.659  12.933  -6.753  1.00  0.00    -0.286 N 
ATOM      5  H3  UNL     1       0.673  13.884  -6.383  1.00  0.00     0.188 HD
HETATM    6  C4  UNL     1      -0.333  12.117  -6.434  1.00  0.00     0.129 A 
HETATM    7  S3  UNL     1       0.108  10.696  -7.287  1.00  0.00    -0.026 SA
ENDROOT
BRANCH   1   8
HETATM    8  N1  UNL     1       2.415  10.703  -8.785  1.00  0.00    -0.297 N 
HETATM    9  C2  UNL     1       2.229  10.968 -10.183  1.00  0.00     0.285 C 
HETATM   10  O1  UNL     1       1.699  12.019 -10.580  1.00  0.00    -0.260 OA
ATOM     11  H1  UNL     1       3.164  10.105  -8.436  1.00  0.00     0.171 HD
BRANCH   9  12
HETATM   12  S1  UNL     1       2.801   9.708 -11.313  1.00  0.00    -0.073 SA
HETATM   13  C1  UNL     1       2.461   8.094 -10.572  1.00  0.00     0.100 C 
ENDBRANCH   9  12
ENDBRANCH   1   8
BRANCH   6  14
HETATM   14  S2  UNL     1      -1.765  12.435  -5.376  1.00  0.00    -0.108 SA
HETATM   15  C5  UNL     1      -2.052  14.225  -5.426  1.00  0.00     0.097 C 
ENDBRANCH   6  14
TORSDOF 3
ENDMDL
MODEL 5
REMARK VINA RESULT: -4.609128117      2.464      3.282
REMARK  3 active torsions:
REMARK  status: ('A' for Active; 'I' for Inactive)
REMARK    1  A    between atoms: S1_2  and  C2_3 
REMARK       I    between atoms: C2_3  and  N1_5 
REMARK    2  A    between atoms: N1_5  and  C3_7 
REMARK    3  A    between atoms: C4_12  and  S2_13 
ROOT
HETATM    1  C3  UNL     1       0.203  10.097  -6.779  1.00  0.00     0.169 A 
HETATM    2  N2  UNL     1      -0.248   9.035  -6.108  1.00  0.00    -0.278 N 
ATOM      3  H2  UNL     1      -0.499   9.111  -5.121  1.00  0.00     0.189 HD
HETATM    4  N3  UNL     1      -0.358   7.929  -6.722  1.00  0.00    -0.286 N 
ATOM      5  H3  UNL     1      -0.701   7.105  -6.227  1.00  0.00     0.188 HD
HETATM    6  C4  UNL     1      -0.030   7.839  -8.002  1.00  0.00     0.129 A 
HETATM    7  S3  UNL     1       0.467   9.446  -8.338  1.00  0.00    -0.026 SA
ENDROOT
BRANCH   1   8
HETATM    8  N1  UNL     1       0.384  11.316  -6.322  1.00  0.00    -0.297 N 
HETATM    9  C2  UNL     1      -0.798  11.960  -5.824  1.00  0.00     0.285 C 
HETATM   10  O1  UNL     1      -1.748  11.305  -5.362  1.00  0.00    -0.260 OA
ATOM     11  H1  UNL     1       1.297  11.771  -6.321  1.00  0.00     0.171 HD
BRANCH   9  12
HETATM   12  S1  UNL     1      -0.825  13.744  -5.904  1.00  0.00    -0.073 SA
HETATM   13  C1  UNL     1      -1.880  14.349  -4.566  1.00  0.00     0.100 C 
ENDBRANCH   9  12
ENDBRANCH   1   8
BRANCH   6  14
HETATM   14  S2  UNL     1      -0.095   6.396  -9.089  1.00  0.00    -0.108 SA
HETATM   15  C5  UNL     1      -1.681   5.578  -8.761  1.00  0.00     0.097 C 
ENDBRANCH   6  14
TORSDOF 3
ENDMDL
