MODEL 1
REMARK VINA RESULT: -6.124399298      0.000      0.000
REMARK  6 active torsions:
REMARK  status: ('A' for Active; 'I' for Inactive)
REMARK    1  A    between atoms: C2_7  and  C3_8 
REMARK    2  A    between atoms: C3_8  and  O1_9 
REMARK    3  A    between atoms: C4_14  and  C5_15 
REMARK    4  A    between atoms: C5_15  and  N4_16 
REMARK    5  A    between atoms: C5_15  and  C6_20 
REMARK    6  A    between atoms: C10_30  and  O4_31 
ROOT
HETATM    1  C3  UNL     1      22.671  30.237  23.905  1.00  0.00     0.301 C 
HETATM    2  N3  UNL     1      21.448  30.701  24.524  1.00  0.00    -0.023 N 
ATOM      3  H31 UNL     1      21.022  29.986  25.115  1.00  0.00     0.282 HD
ATOM      4  H32 UNL     1      20.690  30.804  23.849  1.00  0.00     0.282 HD
HETATM    5  C4  UNL     1      21.703  31.931  25.253  1.00  0.00     0.285 C 
HETATM    6  C7  UNL     1      22.787  31.859  26.262  1.00  0.00     0.355 C 
HETATM    7  N6  UNL     1      24.083  31.876  25.579  1.00  0.00    -0.038 N 
ATOM      8  H61 UNL     1      24.761  32.541  25.951  1.00  0.00     0.281 HD
ATOM      9  H62 UNL     1      24.071  32.269  24.638  1.00  0.00     0.281 HD
HETATM   10  C8  UNL     1      24.478  30.475  25.662  1.00  0.00     0.246 C 
HETATM   11  C9  UNL     1      24.118  30.281  27.153  1.00  0.00     0.206 C 
HETATM   12  O3  UNL     1      22.799  30.776  27.098  1.00  0.00    -0.355 OA
HETATM   13  C10 UNL     1      23.564  29.541  24.905  1.00  0.00     0.221 C 
ENDROOT
BRANCH   1  14
HETATM   14  C2  UNL     1      22.480  29.356  22.739  1.00  0.00     0.149 A 
HETATM   15  N2  UNL     1      22.936  28.083  22.831  1.00  0.00    -0.316 N 
HETATM   16  C1  UNL     1      22.827  27.150  21.879  1.00  0.00     0.241 A 
ATOM     17  H2  UNL     1      23.400  27.815  23.699  1.00  0.00     0.169 HD
HETATM   18  N1  UNL     1      23.277  25.955  22.015  1.00  0.00    -0.364 N 
HETATM   19  O6  UNL     1      22.223  27.528  20.771  1.00  0.00    -0.198 OA
ATOM     20  H12 UNL     1      23.745  25.661  22.872  1.00  0.00     0.159 HD
ATOM     21  H11 UNL     1      23.194  25.242  21.289  1.00  0.00     0.159 HD
HETATM   22  N7  UNL     1      21.766  28.719  20.615  1.00  0.00    -0.220 N 
HETATM   23  C11 UNL     1      21.863  29.682  21.562  1.00  0.00     0.293 A 
ATOM     24  H7  UNL     1      21.308  28.950  19.734  1.00  0.00     0.198 HD
HETATM   25  O5  UNL     1      21.419  30.817  21.385  1.00  0.00    -0.264 OA
ENDBRANCH   1  14
BRANCH   1  26
HETATM   26  O1  UNL     1      23.349  31.382  23.393  1.00  0.00    -0.358 OA
ATOM     27  H1  UNL     1      24.231  31.082  23.205  1.00  0.00     0.213 HD
ENDBRANCH   1  26
BRANCH  13  28
HETATM   28  O4  UNL     1      22.742  28.828  25.791  1.00  0.00    -0.388 OA
ATOM     29  H4  UNL     1      23.215  28.052  26.065  1.00  0.00     0.210 HD
ENDBRANCH  13  28
BRANCH   5  30
HETATM   30  C5  UNL     1      20.438  32.585  25.727  1.00  0.00     0.306 C 
BRANCH  30  31
HETATM   31  N4  UNL     1      19.971  31.880  26.903  1.00  0.00    -0.065 N 
ATOM     32  H43 UNL     1      20.694  31.297  27.323  1.00  0.00     0.275 HD
ATOM     33  H42 UNL     1      19.814  32.502  27.696  1.00  0.00     0.275 HD
ATOM     34  H41 UNL     1      19.138  31.348  26.650  1.00  0.00     0.275 HD
ENDBRANCH  30  31
BRANCH  30  35
HETATM   35  C6  UNL     1      19.397  32.742  24.706  1.00  0.00     0.264 C 
HETATM   36  N5  UNL     1      18.072  32.996  25.167  1.00  0.00    -0.060 NA
HETATM   37  O2  UNL     1      19.545  32.678  23.483  1.00  0.00    -0.275 OA
ENDBRANCH  30  35
ENDBRANCH   5  30
TORSDOF 6
ENDMDL
MODEL 2
REMARK VINA RESULT: -5.919226481      1.594      1.674
REMARK  6 active torsions:
REMARK  status: ('A' for Active; 'I' for Inactive)
REMARK    1  A    between atoms: C2_7  and  C3_8 
REMARK    2  A    between atoms: C3_8  and  O1_9 
REMARK    3  A    between atoms: C4_14  and  C5_15 
REMARK    4  A    between atoms: C5_15  and  N4_16 
REMARK    5  A    between atoms: C5_15  and  C6_20 
REMARK    6  A    between atoms: C10_30  and  O4_31 
ROOT
HETATM    1  C3  UNL     1      21.970  31.052  24.685  1.00  0.00     0.301 C 
HETATM    2  N3  UNL     1      20.795  31.852  24.958  1.00  0.00    -0.023 N 
ATOM      3  H31 UNL     1      19.984  31.277  25.188  1.00  0.00     0.282 HD
ATOM      4  H32 UNL     1      20.427  32.295  24.116  1.00  0.00     0.282 HD
HETATM    5  C4  UNL     1      21.092  32.820  26.000  1.00  0.00     0.285 C 
HETATM    6  C7  UNL     1      21.623  32.252  27.263  1.00  0.00     0.355 C 
HETATM    7  N6  UNL     1      23.026  31.878  27.069  1.00  0.00    -0.038 N 
ATOM      8  H61 UNL     1      23.667  32.211  27.790  1.00  0.00     0.281 HD
ATOM      9  H62 UNL     1      23.498  32.351  26.299  1.00  0.00     0.281 HD
HETATM   10  C8  UNL     1      22.931  30.429  26.943  1.00  0.00     0.246 C 
HETATM   11  C9  UNL     1      21.977  30.214  28.141  1.00  0.00     0.206 C 
HETATM   12  O3  UNL     1      20.992  31.152  27.773  1.00  0.00    -0.355 OA
HETATM   13  C10 UNL     1      22.156  29.975  25.729  1.00  0.00     0.221 C 
ENDROOT
BRANCH   1  14
HETATM   14  C2  UNL     1      22.001  30.433  23.349  1.00  0.00     0.149 A 
HETATM   15  N2  UNL     1      22.371  29.133  23.265  1.00  0.00    -0.316 N 
HETATM   16  C1  UNL     1      22.434  28.414  22.139  1.00  0.00     0.241 A 
ATOM     17  H2  UNL     1      22.623  28.662  24.135  1.00  0.00     0.169 HD
HETATM   18  N1  UNL     1      22.793  27.182  22.113  1.00  0.00    -0.364 N 
HETATM   19  O6  UNL     1      22.103  29.051  21.034  1.00  0.00    -0.198 OA
ATOM     20  H12 UNL     1      23.049  26.688  22.968  1.00  0.00     0.159 HD
ATOM     21  H11 UNL     1      22.841  26.633  21.254  1.00  0.00     0.159 HD
HETATM   22  N7  UNL     1      21.742  30.284  21.038  1.00  0.00    -0.220 N 
HETATM   23  C11 UNL     1      21.671  31.033  22.164  1.00  0.00     0.293 A 
ATOM     24  H7  UNL     1      21.498  30.720  20.149  1.00  0.00     0.198 HD
HETATM   25  O5  UNL     1      21.324  32.215  22.139  1.00  0.00    -0.264 OA
ENDBRANCH   1  14
BRANCH   1  26
HETATM   26  O1  UNL     1      23.095  31.927  24.713  1.00  0.00    -0.358 OA
ATOM     27  H1  UNL     1      22.758  32.750  25.048  1.00  0.00     0.213 HD
ENDBRANCH   1  26
BRANCH  13  28
HETATM   28  O4  UNL     1      20.884  29.512  26.099  1.00  0.00    -0.388 OA
ATOM     29  H4  UNL     1      20.282  29.724  25.395  1.00  0.00     0.210 HD
ENDBRANCH  13  28
BRANCH   5  30
HETATM   30  C5  UNL     1      19.992  33.828  26.171  1.00  0.00     0.306 C 
BRANCH  30  31
HETATM   31  N4  UNL     1      20.057  34.351  27.520  1.00  0.00    -0.065 N 
ATOM     32  H43 UNL     1      20.117  35.369  27.543  1.00  0.00     0.275 HD
ATOM     33  H42 UNL     1      19.175  34.251  28.022  1.00  0.00     0.275 HD
ATOM     34  H41 UNL     1      20.836  33.902  28.003  1.00  0.00     0.275 HD
ENDBRANCH  30  31
BRANCH  30  35
HETATM   35  C6  UNL     1      18.653  33.357  25.807  1.00  0.00     0.264 C 
HETATM   36  N5  UNL     1      17.693  33.258  26.857  1.00  0.00    -0.060 NA
HETATM   37  O2  UNL     1      18.262  33.035  24.681  1.00  0.00    -0.275 OA
ENDBRANCH  30  35
ENDBRANCH   5  30
TORSDOF 6
ENDMDL
MODEL 3
REMARK VINA RESULT: -5.594427894      1.237      1.272
REMARK  6 active torsions:
REMARK  status: ('A' for Active; 'I' for Inactive)
REMARK    1  A    between atoms: C2_7  and  C3_8 
REMARK    2  A    between atoms: C3_8  and  O1_9 
REMARK    3  A    between atoms: C4_14  and  C5_15 
REMARK    4  A    between atoms: C5_15  and  N4_16 
REMARK    5  A    between atoms: C5_15  and  C6_20 
REMARK    6  A    between atoms: C10_30  and  O4_31 
ROOT
HETATM    1  C3  UNL     1      22.698  30.270  23.993  1.00  0.00     0.301 C 
HETATM    2  N3  UNL     1      21.668  30.720  24.906  1.00  0.00    -0.023 N 
ATOM      3  H31 UNL     1      21.176  29.941  25.343  1.00  0.00     0.282 HD
ATOM      4  H32 UNL     1      20.877  31.138  24.417  1.00  0.00     0.282 HD
HETATM    5  C4  UNL     1      22.244  31.623  25.887  1.00  0.00     0.285 C 
HETATM    6  C7  UNL     1      23.397  31.084  26.648  1.00  0.00     0.355 C 
HETATM    7  N6  UNL     1      24.585  31.095  25.793  1.00  0.00    -0.038 N 
ATOM      8  H61 UNL     1      25.420  31.503  26.214  1.00  0.00     0.281 HD
ATOM      9  H62 UNL     1      24.549  31.744  25.008  1.00  0.00     0.281 HD
HETATM   10  C8  UNL     1      24.699  29.687  25.429  1.00  0.00     0.246 C 
HETATM   11  C9  UNL     1      24.475  29.123  26.851  1.00  0.00     0.206 C 
HETATM   12  O3  UNL     1      23.284  29.816  27.148  1.00  0.00    -0.355 OA
HETATM   13  C10 UNL     1      23.539  29.177  24.609  1.00  0.00     0.221 C 
ENDROOT
BRANCH   1  14
HETATM   14  C2  UNL     1      22.207  29.815  22.681  1.00  0.00     0.149 A 
HETATM   15  N2  UNL     1      22.577  28.580  22.264  1.00  0.00    -0.316 N 
HETATM   16  C1  UNL     1      22.206  28.005  21.114  1.00  0.00     0.241 A 
ATOM     17  H2  UNL     1      23.190  28.044  22.879  1.00  0.00     0.169 HD
HETATM   18  N1  UNL     1      22.586  26.830  20.764  1.00  0.00    -0.364 N 
HETATM   19  O6  UNL     1      21.415  28.723  20.344  1.00  0.00    -0.198 OA
ATOM     20  H12 UNL     1      23.199  26.274  21.360  1.00  0.00     0.159 HD
ATOM     21  H11 UNL     1      22.304  26.391  19.887  1.00  0.00     0.159 HD
HETATM   22  N7  UNL     1      21.024  29.902  20.675  1.00  0.00    -0.220 N 
HETATM   23  C11 UNL     1      21.385  30.506  21.832  1.00  0.00     0.293 A 
ATOM     24  H7  UNL     1      20.412  30.407  20.035  1.00  0.00     0.198 HD
HETATM   25  O5  UNL     1      20.997  31.638  22.124  1.00  0.00    -0.264 OA
ENDBRANCH   1  14
BRANCH   1  26
HETATM   26  O1  UNL     1      23.530  31.392  23.705  1.00  0.00    -0.358 OA
ATOM     27  H1  UNL     1      23.147  31.789  22.931  1.00  0.00     0.213 HD
ENDBRANCH   1  26
BRANCH  13  28
HETATM   28  O4  UNL     1      22.694  28.376  25.393  1.00  0.00    -0.388 OA
ATOM     29  H4  UNL     1      22.788  27.478  25.096  1.00  0.00     0.210 HD
ENDBRANCH  13  28
BRANCH   5  30
HETATM   30  C5  UNL     1      21.196  32.302  26.720  1.00  0.00     0.306 C 
BRANCH  30  31
HETATM   31  N4  UNL     1      21.165  31.669  28.022  1.00  0.00    -0.065 N 
ATOM     32  H43 UNL     1      21.431  30.685  27.986  1.00  0.00     0.275 HD
ATOM     33  H42 UNL     1      21.914  31.994  28.634  1.00  0.00     0.275 HD
ATOM     34  H41 UNL     1      20.239  31.810  28.427  1.00  0.00     0.275 HD
ENDBRANCH  30  31
BRANCH  30  35
HETATM   35  C6  UNL     1      19.870  32.394  26.100  1.00  0.00     0.264 C 
HETATM   36  N5  UNL     1      19.734  33.275  24.988  1.00  0.00    -0.060 NA
HETATM   37  O2  UNL     1      18.851  31.786  26.440  1.00  0.00    -0.275 OA
ENDBRANCH  30  35
ENDBRANCH   5  30
TORSDOF 6
ENDMDL
MODEL 4
REMARK VINA RESULT: -5.450538642      3.175      6.790
REMARK  6 active torsions:
REMARK  status: ('A' for Active; 'I' for Inactive)
REMARK    1  A    between atoms: C2_7  and  C3_8 
REMARK    2  A    between atoms: C3_8  and  O1_9 
REMARK    3  A    between atoms: C4_14  and  C5_15 
REMARK    4  A    between atoms: C5_15  and  N4_16 
REMARK    5  A    between atoms: C5_15  and  C6_20 
REMARK    6  A    between atoms: C10_30  and  O4_31 
ROOT
HETATM    1  C3  UNL     1      20.485  33.932  26.866  1.00  0.00     0.301 C 
HETATM    2  N3  UNL     1      20.724  33.289  25.592  1.00  0.00    -0.023 N 
ATOM      3  H31 UNL     1      21.138  33.926  24.912  1.00  0.00     0.282 HD
ATOM      4  H32 UNL     1      19.857  33.086  25.094  1.00  0.00     0.282 HD
HETATM    5  C4  UNL     1      21.533  32.098  25.789  1.00  0.00     0.285 C 
HETATM    6  C7  UNL     1      22.818  32.313  26.498  1.00  0.00     0.355 C 
HETATM    7  N6  UNL     1      22.553  32.492  27.927  1.00  0.00    -0.038 N 
ATOM      8  H61 UNL     1      23.130  31.926  28.550  1.00  0.00     0.281 HD
ATOM      9  H62 UNL     1      21.664  32.114  28.255  1.00  0.00     0.281 HD
HETATM   10  C8  UNL     1      22.708  33.934  28.077  1.00  0.00     0.246 C 
HETATM   11  C9  UNL     1      24.016  34.053  27.262  1.00  0.00     0.206 C 
HETATM   12  O3  UNL     1      23.585  33.374  26.105  1.00  0.00    -0.355 OA
HETATM   13  C10 UNL     1      21.685  34.736  27.310  1.00  0.00     0.221 C 
ENDROOT
BRANCH   1  14
HETATM   14  C2  UNL     1      19.289  34.792  26.911  1.00  0.00     0.149 A 
HETATM   15  N2  UNL     1      19.470  36.109  27.174  1.00  0.00    -0.316 N 
HETATM   16  C1  UNL     1      18.501  37.029  27.232  1.00  0.00     0.241 A 
ATOM     17  H2  UNL     1      20.425  36.424  27.343  1.00  0.00     0.169 HD
HETATM   18  N1  UNL     1      18.725  38.267  27.487  1.00  0.00    -0.364 N 
HETATM   19  O6  UNL     1      17.279  36.590  27.009  1.00  0.00    -0.198 OA
ATOM     20  H12 UNL     1      19.671  38.608  27.659  1.00  0.00     0.159 HD
ATOM     21  H11 UNL     1      17.986  38.970  27.531  1.00  0.00     0.159 HD
HETATM   22  N7  UNL     1      17.034  35.355  26.753  1.00  0.00    -0.220 N 
HETATM   23  C11 UNL     1      17.996  34.403  26.689  1.00  0.00     0.293 A 
ATOM     24  H7  UNL     1      16.066  35.077  26.589  1.00  0.00     0.198 HD
HETATM   25  O5  UNL     1      17.732  33.226  26.444  1.00  0.00    -0.264 OA
ENDBRANCH   1  14
BRANCH   1  26
HETATM   26  O1  UNL     1      20.234  32.904  27.821  1.00  0.00    -0.358 OA
ATOM     27  H1  UNL     1      19.810  32.210  27.329  1.00  0.00     0.213 HD
ENDBRANCH   1  26
BRANCH  13  28
HETATM   28  O4  UNL     1      22.262  35.311  26.167  1.00  0.00    -0.388 OA
ATOM     29  H4  UNL     1      23.137  35.598  26.398  1.00  0.00     0.210 HD
ENDBRANCH  13  28
BRANCH   5  30
HETATM   30  C5  UNL     1      21.627  31.262  24.545  1.00  0.00     0.306 C 
BRANCH  30  31
HETATM   31  N4  UNL     1      23.020  30.939  24.315  1.00  0.00    -0.065 N 
ATOM     32  H43 UNL     1      23.528  31.697  23.861  1.00  0.00     0.275 HD
ATOM     33  H42 UNL     1      23.562  30.905  25.179  1.00  0.00     0.275 HD
ATOM     34  H41 UNL     1      23.066  30.066  23.789  1.00  0.00     0.275 HD
ENDBRANCH  30  31
BRANCH  30  35
HETATM   35  C6  UNL     1      20.971  31.828  23.362  1.00  0.00     0.264 C 
HETATM   36  N5  UNL     1      21.783  32.033  22.208  1.00  0.00    -0.060 NA
HETATM   37  O2  UNL     1      19.784  32.147  23.257  1.00  0.00    -0.275 OA
ENDBRANCH  30  35
ENDBRANCH   5  30
TORSDOF 6
ENDMDL
MODEL 5
REMARK VINA RESULT: -5.385581028      2.351      5.866
REMARK  6 active torsions:
REMARK  status: ('A' for Active; 'I' for Inactive)
REMARK    1  A    between atoms: C2_7  and  C3_8 
REMARK    2  A    between atoms: C3_8  and  O1_9 
REMARK    3  A    between atoms: C4_14  and  C5_15 
REMARK    4  A    between atoms: C5_15  and  N4_16 
REMARK    5  A    between atoms: C5_15  and  C6_20 
REMARK    6  A    between atoms: C10_30  and  O4_31 
ROOT
HETATM    1  C3  UNL     1      20.293  31.495  26.428  1.00  0.00     0.301 C 
HETATM    2  N3  UNL     1      21.177  31.569  25.285  1.00  0.00    -0.023 N 
ATOM      3  H31 UNL     1      22.024  32.099  25.488  1.00  0.00     0.282 HD
ATOM      4  H32 UNL     1      20.803  32.168  24.548  1.00  0.00     0.282 HD
HETATM    5  C4  UNL     1      21.471  30.230  24.805  1.00  0.00     0.285 C 
HETATM    6  C7  UNL     1      22.028  29.300  25.817  1.00  0.00     0.355 C 
HETATM    7  N6  UNL     1      20.952  28.855  26.705  1.00  0.00    -0.038 N 
ATOM      8  H61 UNL     1      20.902  27.847  26.855  1.00  0.00     0.281 HD
ATOM      9  H62 UNL     1      20.011  28.938  26.321  1.00  0.00     0.281 HD
HETATM   10  C8  UNL     1      21.208  29.649  27.900  1.00  0.00     0.246 C 
HETATM   11  C9  UNL     1      22.733  29.402  27.948  1.00  0.00     0.206 C 
HETATM   12  O3  UNL     1      23.030  29.770  26.620  1.00  0.00    -0.355 OA
HETATM   13  C10 UNL     1      21.050  31.136  27.686  1.00  0.00     0.221 C 
ENDROOT
BRANCH   1  14
HETATM   14  C2  UNL     1      19.500  32.711  26.679  1.00  0.00     0.149 A 
HETATM   15  N2  UNL     1      19.660  33.333  27.872  1.00  0.00    -0.316 N 
HETATM   16  C1  UNL     1      19.036  34.453  28.253  1.00  0.00     0.241 A 
ATOM     17  H2  UNL     1      20.310  32.911  28.535  1.00  0.00     0.169 HD
HETATM   18  N1  UNL     1      19.223  35.004  29.398  1.00  0.00    -0.364 N 
HETATM   19  O6  UNL     1      18.203  34.973  27.374  1.00  0.00    -0.198 OA
ATOM     20  H12 UNL     1      19.867  34.602  30.078  1.00  0.00     0.159 HD
ATOM     21  H11 UNL     1      18.747  35.859  29.689  1.00  0.00     0.159 HD
HETATM   22  N7  UNL     1      18.002  34.437  26.224  1.00  0.00    -0.220 N 
HETATM   23  C11 UNL     1      18.620  33.303  25.814  1.00  0.00     0.293 A 
ATOM     24  H7  UNL     1      17.345  34.888  25.588  1.00  0.00     0.198 HD
HETATM   25  O5  UNL     1      18.407  32.810  24.706  1.00  0.00    -0.264 OA
ENDBRANCH   1  14
BRANCH   1  26
HETATM   26  O1  UNL     1      19.332  30.478  26.157  1.00  0.00    -0.358 OA
ATOM     27  H1  UNL     1      19.340  30.378  25.212  1.00  0.00     0.213 HD
ENDBRANCH   1  26
BRANCH  13  28
HETATM   28  O4  UNL     1      22.304  31.762  27.625  1.00  0.00    -0.388 OA
ATOM     29  H4  UNL     1      22.687  31.730  28.493  1.00  0.00     0.210 HD
ENDBRANCH  13  28
BRANCH   5  30
HETATM   30  C5  UNL     1      22.193  30.243  23.489  1.00  0.00     0.306 C 
BRANCH  30  31
HETATM   31  N4  UNL     1      23.574  30.610  23.729  1.00  0.00    -0.065 N 
ATOM     32  H43 UNL     1      23.980  30.112  24.520  1.00  0.00     0.275 HD
ATOM     33  H42 UNL     1      24.203  30.261  23.006  1.00  0.00     0.275 HD
ATOM     34  H41 UNL     1      23.624  31.623  23.836  1.00  0.00     0.275 HD
ENDBRANCH  30  31
BRANCH  30  35
HETATM   35  C6  UNL     1      21.564  31.050  22.439  1.00  0.00     0.264 C 
HETATM   36  N5  UNL     1      20.954  30.346  21.359  1.00  0.00    -0.060 NA
HETATM   37  O2  UNL     1      21.503  32.281  22.389  1.00  0.00    -0.275 OA
ENDBRANCH  30  35
ENDBRANCH   5  30
TORSDOF 6
ENDMDL
