MODEL 1
REMARK VINA RESULT: -9.885861302      0.000      0.000
REMARK  10 active torsions:
REMARK  status: ('A' for Active; 'I' for Inactive)
REMARK    1  A    between atoms: C2_2  and  O1_3 
REMARK    2  A    between atoms: O1_3  and  C3_4 
REMARK       I    between atoms: C3_4  and  N1_6 
REMARK    3  A    between atoms: N1_6  and  S1_8 
REMARK    4  A    between atoms: S1_8  and  C4_10 
REMARK    5  A    between atoms: S1_8  and  C15_38 
REMARK    6  A    between atoms: C4_10  and  C5_11 
REMARK    7  A    between atoms: C5_11  and  N2_12 
REMARK    8  A    between atoms: C7_20  and  N6_21 
REMARK    9  A    between atoms: C10_24  and  N7_25 
REMARK   10  A    between atoms: C13_34  and  N10_35 
ROOT
HETATM    1  N2  UNL     1      37.240   2.388 138.274  1.00  0.00    -0.106 N 
HETATM    2  N3  UNL     1      37.810   1.575 137.411  1.00  0.00    -0.212 N 
ATOM      3  H3  UNL     1      37.319   0.717 137.159  1.00  0.00     0.209 HD
HETATM    4  N4  UNL     1      38.978   1.809 136.859  1.00  0.00    -0.114 N 
ATOM      5  H4  UNL     1      39.383   1.151 136.193  1.00  0.00     0.207 HD
HETATM    6  C6  UNL     1      39.634   2.954 137.198  1.00  0.00     0.749 A 
HETATM    7  N5  UNL     1      40.802   3.480 136.834  1.00  0.00    -0.017 N 
ATOM      8  H5  UNL     1      41.454   3.058 136.172  1.00  0.00     0.203 HD
HETATM    9  C7  UNL     1      40.996   4.646 137.465  1.00  0.00     0.710 A 
HETATM   10  N8  UNL     1      39.914   4.826 138.230  1.00  0.00    -0.095 N 
ATOM     11  H8  UNL     1      39.752   5.627 138.841  1.00  0.00     0.207 HD
HETATM   12  N9  UNL     1      39.091   3.813 138.074  1.00  0.00     0.107 N 
HETATM   13  C13 UNL     1      37.910   3.536 138.606  1.00  0.00     0.732 A 
ENDROOT
BRANCH   1  14
HETATM   14  C5  UNL     1      35.946   2.107 138.848  1.00  0.00     0.183 C 
BRANCH  14  15
HETATM   15  C4  UNL     1      35.075   1.199 138.014  1.00  0.00     0.147 C 
BRANCH  15  16
HETATM   16  S1  UNL     1      34.631  -0.336 139.018  1.00  0.00     0.080 S 
HETATM   17  O3  UNL     1      35.317  -0.576 140.679  1.00  0.00    -0.243 OA
BRANCH  16  18
HETATM   18  N1  UNL     1      33.267  -1.490 138.346  1.00  0.00    -0.257 N 
HETATM   19  C3  UNL     1      32.306  -1.999 139.210  1.00  0.00     0.372 C 
HETATM   20  O2  UNL     1      32.311  -1.713 140.452  1.00  0.00    -0.238 OA
ATOM     21  H1  UNL     1      33.244  -1.732 137.356  1.00  0.00     0.181 HD
BRANCH  19  22
HETATM   22  O1  UNL     1      31.290  -2.840 138.778  1.00  0.00    -0.304 OA
BRANCH  22  23
HETATM   23  C2  UNL     1      30.081  -2.394 138.243  1.00  0.00     0.176 C 
HETATM   24  C1  UNL     1      30.019  -2.537 136.739  1.00  0.00     0.034 C 
ENDBRANCH  22  23
ENDBRANCH  19  22
ENDBRANCH  16  18
BRANCH  16  25
HETATM   25  C15 UNL     1      35.982  -1.574 138.280  1.00  0.00     0.138 A 
HETATM   26  N11 UNL     1      36.773  -2.495 138.835  1.00  0.00    -0.348 N 
HETATM   27  C16 UNL     1      37.557  -3.148 138.030  1.00  0.00     0.036 A 
ATOM     28  H11 UNL     1      36.763  -2.676 139.839  1.00  0.00     0.166 HD
HETATM   29  C17 UNL     1      38.511  -4.212 138.448  1.00  0.00     0.070 C 
HETATM   30  C18 UNL     1      37.308  -2.651 136.767  1.00  0.00     0.092 A 
HETATM   31  N12 UNL     1      37.759  -2.882 135.520  1.00  0.00    -0.309 N 
HETATM   32  C19 UNL     1      36.315  -1.656 136.903  1.00  0.00     0.106 A 
HETATM   33  S2  UNL     1      36.890  -1.813 134.567  1.00  0.00     0.068 SA
ATOM     34  H12 UNL     1      38.467  -3.554 135.223  1.00  0.00     0.176 HD
HETATM   35  N13 UNL     1      35.944  -1.058 135.729  1.00  0.00    -0.308 N 
ATOM     36  H13 UNL     1      35.251  -0.322 135.592  1.00  0.00     0.176 HD
ENDBRANCH  16  25
ENDBRANCH  15  16
ENDBRANCH  14  15
ENDBRANCH   1  14
BRANCH  13  37
HETATM   37  N10 UNL     1      37.306   4.292 139.453  1.00  0.00    -0.227 N 
HETATM   38  C14 UNL     1      37.618   4.321 140.861  1.00  0.00     0.165 C 
ATOM     39  H10 UNL     1      36.565   4.905 139.110  1.00  0.00     0.177 HD
ENDBRANCH  13  37
BRANCH   9  40
HETATM   40  N6  UNL     1      42.134   5.485 137.320  1.00  0.00    -0.216 N 
HETATM   41  C8  UNL     1      41.979   6.865 136.952  1.00  0.00     0.143 C 
HETATM   42  C9  UNL     1      42.929   7.655 137.844  1.00  0.00     0.053 C 
HETATM   43  C10 UNL     1      44.336   7.340 137.413  1.00  0.00     0.186 C 
HETATM   44  C11 UNL     1      44.528   5.911 137.035  1.00  0.00     0.053 C 
HETATM   45  C12 UNL     1      43.475   4.971 137.537  1.00  0.00     0.143 C 
BRANCH  43  46
HETATM   46  N7  UNL     1      45.241   7.734 138.481  1.00  0.00    -0.075 N 
ATOM     47  H73 UNL     1      45.490   8.722 138.440  1.00  0.00     0.274 HD
ATOM     48  H72 UNL     1      44.788   7.743 139.396  1.00  0.00     0.274 HD
ATOM     49  H71 UNL     1      46.056   7.122 138.453  1.00  0.00     0.274 HD
ENDBRANCH  43  46
ENDBRANCH   9  40
TORSDOF 10
ENDMDL
MODEL 2
REMARK VINA RESULT: -9.516397412      1.013      1.528
REMARK  10 active torsions:
REMARK  status: ('A' for Active; 'I' for Inactive)
REMARK    1  A    between atoms: C2_2  and  O1_3 
REMARK    2  A    between atoms: O1_3  and  C3_4 
REMARK       I    between atoms: C3_4  and  N1_6 
REMARK    3  A    between atoms: N1_6  and  S1_8 
REMARK    4  A    between atoms: S1_8  and  C4_10 
REMARK    5  A    between atoms: S1_8  and  C15_38 
REMARK    6  A    between atoms: C4_10  and  C5_11 
REMARK    7  A    between atoms: C5_11  and  N2_12 
REMARK    8  A    between atoms: C7_20  and  N6_21 
REMARK    9  A    between atoms: C10_24  and  N7_25 
REMARK   10  A    between atoms: C13_34  and  N10_35 
ROOT
HETATM    1  N2  UNL     1      37.119   2.419 138.316  1.00  0.00    -0.106 N 
HETATM    2  N3  UNL     1      37.636   1.661 137.373  1.00  0.00    -0.212 N 
ATOM      3  H3  UNL     1      37.126   0.821 137.096  1.00  0.00     0.209 HD
HETATM    4  N4  UNL     1      38.771   1.927 136.771  1.00  0.00    -0.114 N 
ATOM      5  H4  UNL     1      39.135   1.311 136.044  1.00  0.00     0.207 HD
HETATM    6  C6  UNL     1      39.452   3.048 137.144  1.00  0.00     0.749 A 
HETATM    7  N5  UNL     1      40.600   3.593 136.747  1.00  0.00    -0.017 N 
ATOM      8  H5  UNL     1      41.211   3.212 136.024  1.00  0.00     0.203 HD
HETATM    9  C7  UNL     1      40.835   4.717 137.438  1.00  0.00     0.710 A 
HETATM   10  N8  UNL     1      39.799   4.851 138.273  1.00  0.00    -0.095 N 
ATOM     11  H8  UNL     1      39.676   5.611 138.941  1.00  0.00     0.207 HD
HETATM   12  N9  UNL     1      38.963   3.850 138.101  1.00  0.00     0.107 N 
HETATM   13  C13 UNL     1      37.813   3.543 138.681  1.00  0.00     0.732 A 
ENDROOT
BRANCH   1  14
HETATM   14  C5  UNL     1      35.858   2.105 138.944  1.00  0.00     0.183 C 
BRANCH  14  15
HETATM   15  C4  UNL     1      34.910   1.309 138.080  1.00  0.00     0.147 C 
BRANCH  15  16
HETATM   16  S1  UNL     1      34.758  -0.442 138.767  1.00  0.00     0.080 S 
HETATM   17  O3  UNL     1      35.850  -1.002 140.102  1.00  0.00    -0.243 OA
BRANCH  16  18
HETATM   18  N1  UNL     1      33.282  -1.510 138.196  1.00  0.00    -0.257 N 
HETATM   19  C3  UNL     1      32.389  -2.010 139.135  1.00  0.00     0.372 C 
HETATM   20  O2  UNL     1      32.529  -1.772 140.378  1.00  0.00    -0.238 OA
ATOM     21  H1  UNL     1      33.150  -1.712 137.206  1.00  0.00     0.181 HD
BRANCH  19  22
HETATM   22  O1  UNL     1      31.297  -2.789 138.778  1.00  0.00    -0.304 OA
BRANCH  22  23
HETATM   23  C2  UNL     1      30.127  -2.283 138.212  1.00  0.00     0.176 C 
HETATM   24  C1  UNL     1      30.015  -2.584 136.734  1.00  0.00     0.034 C 
ENDBRANCH  22  23
ENDBRANCH  19  22
ENDBRANCH  16  18
BRANCH  16  25
HETATM   25  C15 UNL     1      35.890  -1.378 137.446  1.00  0.00     0.138 A 
HETATM   26  N11 UNL     1      36.055  -1.240 136.129  1.00  0.00    -0.348 N 
HETATM   27  C16 UNL     1      36.909  -2.042 135.565  1.00  0.00     0.036 A 
ATOM     28  H11 UNL     1      35.538  -0.544 135.593  1.00  0.00     0.166 HD
HETATM   29  C17 UNL     1      37.238  -2.050 134.113  1.00  0.00     0.070 C 
HETATM   30  C18 UNL     1      37.412  -2.837 136.574  1.00  0.00     0.092 A 
HETATM   31  N12 UNL     1      38.306  -3.838 136.676  1.00  0.00    -0.309 N 
HETATM   32  C19 UNL     1      36.782  -2.433 137.771  1.00  0.00     0.106 A 
HETATM   33  S2  UNL     1      38.305  -4.223 138.305  1.00  0.00     0.068 SA
ATOM     34  H12 UNL     1      38.858  -4.264 135.931  1.00  0.00     0.176 HD
HETATM   35  N13 UNL     1      37.175  -3.126 138.884  1.00  0.00    -0.308 N 
ATOM     36  H13 UNL     1      36.855  -3.003 139.845  1.00  0.00     0.176 HD
ENDBRANCH  16  25
ENDBRANCH  15  16
ENDBRANCH  14  15
ENDBRANCH   1  14
BRANCH  13  37
HETATM   37  N10 UNL     1      37.261   4.245 139.606  1.00  0.00    -0.227 N 
HETATM   38  C14 UNL     1      37.680   4.216 140.986  1.00  0.00     0.165 C 
ATOM     39  H10 UNL     1      36.485   4.857 139.350  1.00  0.00     0.177 HD
ENDBRANCH  13  37
BRANCH   9  40
HETATM   40  N6  UNL     1      41.967   5.562 137.282  1.00  0.00    -0.216 N 
HETATM   41  C8  UNL     1      41.800   6.952 136.959  1.00  0.00     0.143 C 
HETATM   42  C9  UNL     1      42.778   7.716 137.843  1.00  0.00     0.053 C 
HETATM   43  C10 UNL     1      44.170   7.416 137.359  1.00  0.00     0.186 C 
HETATM   44  C11 UNL     1      44.351   5.999 136.933  1.00  0.00     0.053 C 
HETATM   45  C12 UNL     1      43.315   5.043 137.441  1.00  0.00     0.143 C 
BRANCH  43  46
HETATM   46  N7  UNL     1      45.109   7.780 138.409  1.00  0.00    -0.075 N 
ATOM     47  H73 UNL     1      44.664   8.286 139.174  1.00  0.00     0.274 HD
ATOM     48  H72 UNL     1      45.430   6.973 138.944  1.00  0.00     0.274 HD
ATOM     49  H71 UNL     1      45.876   8.302 137.987  1.00  0.00     0.274 HD
ENDBRANCH  43  46
ENDBRANCH   9  40
TORSDOF 10
ENDMDL
MODEL 3
REMARK VINA RESULT: -9.382865661      3.795      5.071
REMARK  10 active torsions:
REMARK  status: ('A' for Active; 'I' for Inactive)
REMARK    1  A    between atoms: C2_2  and  O1_3 
REMARK    2  A    between atoms: O1_3  and  C3_4 
REMARK       I    between atoms: C3_4  and  N1_6 
REMARK    3  A    between atoms: N1_6  and  S1_8 
REMARK    4  A    between atoms: S1_8  and  C4_10 
REMARK    5  A    between atoms: S1_8  and  C15_38 
REMARK    6  A    between atoms: C4_10  and  C5_11 
REMARK    7  A    between atoms: C5_11  and  N2_12 
REMARK    8  A    between atoms: C7_20  and  N6_21 
REMARK    9  A    between atoms: C10_24  and  N7_25 
REMARK   10  A    between atoms: C13_34  and  N10_35 
ROOT
HETATM    1  N2  UNL     1      40.747   0.334 134.991  1.00  0.00    -0.106 N 
HETATM    2  N3  UNL     1      41.908  -0.208 134.693  1.00  0.00    -0.212 N 
ATOM      3  H3  UNL     1      41.915  -1.154 134.312  1.00  0.00     0.209 HD
HETATM    4  N4  UNL     1      43.057   0.404 134.860  1.00  0.00    -0.114 N 
ATOM      5  H4  UNL     1      43.934  -0.054 134.615  1.00  0.00     0.207 HD
HETATM    6  C6  UNL     1      43.046   1.667 135.372  1.00  0.00     0.749 A 
HETATM    7  N5  UNL     1      44.007   2.544 135.661  1.00  0.00    -0.017 N 
ATOM      8  H5  UNL     1      45.006   2.383 135.527  1.00  0.00     0.203 HD
HETATM    9  C7  UNL     1      43.468   3.668 136.152  1.00  0.00     0.710 A 
HETATM   10  N8  UNL     1      42.146   3.461 136.159  1.00  0.00    -0.095 N 
ATOM     11  H8  UNL     1      41.447   4.131 136.478  1.00  0.00     0.207 HD
HETATM   12  N9  UNL     1      41.886   2.260 135.690  1.00  0.00     0.107 N 
HETATM   13  C13 UNL     1      40.751   1.605 135.504  1.00  0.00     0.732 A 
ENDROOT
BRANCH   1  14
HETATM   14  C5  UNL     1      39.501  -0.361 134.777  1.00  0.00     0.183 C 
BRANCH  14  15
HETATM   15  C4  UNL     1      39.274  -1.536 135.697  1.00  0.00     0.147 C 
BRANCH  15  16
HETATM   16  S1  UNL     1      37.585  -2.296 135.337  1.00  0.00     0.080 S 
HETATM   17  O3  UNL     1      36.777  -3.360 136.564  1.00  0.00    -0.243 OA
BRANCH  16  18
HETATM   18  N1  UNL     1      36.652  -1.723 133.773  1.00  0.00    -0.257 N 
HETATM   19  C3  UNL     1      35.640  -0.778 133.881  1.00  0.00     0.372 C 
HETATM   20  O2  UNL     1      35.315  -0.278 135.007  1.00  0.00    -0.238 OA
ATOM     21  H1  UNL     1      36.896  -2.110 132.862  1.00  0.00     0.181 HD
BRANCH  19  22
HETATM   22  O1  UNL     1      34.930  -0.322 132.779  1.00  0.00    -0.304 OA
BRANCH  22  23
HETATM   23  C2  UNL     1      35.307  -0.552 131.456  1.00  0.00     0.176 C 
HETATM   24  C1  UNL     1      35.120   0.662 130.575  1.00  0.00     0.034 C 
ENDBRANCH  22  23
ENDBRANCH  19  22
ENDBRANCH  16  18
BRANCH  16  25
HETATM   25  C15 UNL     1      38.184  -3.894 134.343  1.00  0.00     0.138 A 
HETATM   26  N11 UNL     1      38.137  -4.233 133.053  1.00  0.00    -0.348 N 
HETATM   27  C16 UNL     1      38.643  -5.389 132.739  1.00  0.00     0.036 A 
ATOM     28  H11 UNL     1      37.726  -3.619 132.351  1.00  0.00     0.166 HD
HETATM   29  C17 UNL     1      38.690  -5.951 131.361  1.00  0.00     0.070 C 
HETATM   30  C18 UNL     1      39.101  -5.940 133.918  1.00  0.00     0.092 A 
HETATM   31  N12 UNL     1      39.715  -7.078 134.291  1.00  0.00    -0.309 N 
HETATM   32  C19 UNL     1      38.821  -5.010 134.943  1.00  0.00     0.106 A 
HETATM   33  S2  UNL     1      39.911  -6.912 135.946  1.00  0.00     0.068 SA
ATOM     34  H12 UNL     1      39.996  -7.862 133.702  1.00  0.00     0.176 HD
HETATM   35  N13 UNL     1      39.220  -5.403 136.192  1.00  0.00    -0.308 N 
ATOM     36  H13 UNL     1      39.121  -4.894 137.071  1.00  0.00     0.176 HD
ENDBRANCH  16  25
ENDBRANCH  15  16
ENDBRANCH  14  15
ENDBRANCH   1  14
BRANCH  13  37
HETATM   37  N10 UNL     1      39.588   2.084 135.777  1.00  0.00    -0.227 N 
HETATM   38  C14 UNL     1      39.111   2.300 137.120  1.00  0.00     0.165 C 
ATOM     39  H10 UNL     1      38.971   2.325 135.000  1.00  0.00     0.177 HD
ENDBRANCH  13  37
BRANCH   9  40
HETATM   40  N6  UNL     1      44.191   4.818 136.568  1.00  0.00    -0.216 N 
HETATM   41  C8  UNL     1      43.632   6.130 136.399  1.00  0.00     0.143 C 
HETATM   42  C9  UNL     1      43.919   6.887 137.691  1.00  0.00     0.053 C 
HETATM   43  C10 UNL     1      45.399   7.149 137.753  1.00  0.00     0.186 C 
HETATM   44  C11 UNL     1      46.218   6.013 137.244  1.00  0.00     0.053 C 
HETATM   45  C12 UNL     1      45.508   4.696 137.169  1.00  0.00     0.143 C 
BRANCH  43  46
HETATM   46  N7  UNL     1      45.747   7.482 139.126  1.00  0.00    -0.075 N 
ATOM     47  H73 UNL     1      44.936   7.494 139.744  1.00  0.00     0.274 HD
ATOM     48  H72 UNL     1      46.265   6.735 139.591  1.00  0.00     0.274 HD
ATOM     49  H71 UNL     1      46.252   8.367 139.124  1.00  0.00     0.274 HD
ENDBRANCH  43  46
ENDBRANCH   9  40
TORSDOF 10
ENDMDL
MODEL 4
REMARK VINA RESULT: -9.298534947      4.349      6.059
REMARK  10 active torsions:
REMARK  status: ('A' for Active; 'I' for Inactive)
REMARK    1  A    between atoms: C2_2  and  O1_3 
REMARK    2  A    between atoms: O1_3  and  C3_4 
REMARK       I    between atoms: C3_4  and  N1_6 
REMARK    3  A    between atoms: N1_6  and  S1_8 
REMARK    4  A    between atoms: S1_8  and  C4_10 
REMARK    5  A    between atoms: S1_8  and  C15_38 
REMARK    6  A    between atoms: C4_10  and  C5_11 
REMARK    7  A    between atoms: C5_11  and  N2_12 
REMARK    8  A    between atoms: C7_20  and  N6_21 
REMARK    9  A    between atoms: C10_24  and  N7_25 
REMARK   10  A    between atoms: C13_34  and  N10_35 
ROOT
HETATM    1  N2  UNL     1      41.065   0.109 135.344  1.00  0.00    -0.106 N 
HETATM    2  N3  UNL     1      42.240  -0.451 135.149  1.00  0.00    -0.212 N 
ATOM      3  H3  UNL     1      42.266  -1.431 134.865  1.00  0.00     0.209 HD
HETATM    4  N4  UNL     1      43.379   0.183 135.300  1.00  0.00    -0.114 N 
ATOM      5  H4  UNL     1      44.267  -0.289 135.137  1.00  0.00     0.207 HD
HETATM    6  C6  UNL     1      43.342   1.492 135.682  1.00  0.00     0.749 A 
HETATM    7  N5  UNL     1      44.286   2.400 135.920  1.00  0.00    -0.017 N 
ATOM      8  H5  UNL     1      45.290   2.236 135.843  1.00  0.00     0.203 HD
HETATM    9  C7  UNL     1      43.723   3.563 136.275  1.00  0.00     0.710 A 
HETATM   10  N8  UNL     1      42.403   3.347 136.249  1.00  0.00    -0.095 N 
ATOM     11  H8  UNL     1      41.689   4.041 136.472  1.00  0.00     0.207 HD
HETATM   12  N9  UNL     1      42.168   2.104 135.893  1.00  0.00     0.107 N 
HETATM   13  C13 UNL     1      41.043   1.424 135.727  1.00  0.00     0.732 A 
ENDROOT
BRANCH   1  14
HETATM   14  C5  UNL     1      39.832  -0.615 135.151  1.00  0.00     0.183 C 
BRANCH  14  15
HETATM   15  C4  UNL     1      39.482  -0.879 133.706  1.00  0.00     0.147 C 
BRANCH  15  16
HETATM   16  S1  UNL     1      37.731  -0.264 133.365  1.00  0.00     0.080 S 
HETATM   17  O3  UNL     1      36.600  -1.239 132.336  1.00  0.00    -0.243 OA
BRANCH  16  18
HETATM   18  N1  UNL     1      37.110   1.267 134.321  1.00  0.00    -0.257 N 
HETATM   19  C3  UNL     1      36.008   1.157 135.160  1.00  0.00     0.372 C 
HETATM   20  O2  UNL     1      35.395   0.050 135.309  1.00  0.00    -0.238 OA
ATOM     21  H1  UNL     1      37.585   2.163 134.217  1.00  0.00     0.181 HD
BRANCH  19  22
HETATM   22  O1  UNL     1      35.514   2.235 135.881  1.00  0.00    -0.304 OA
BRANCH  22  23
HETATM   23  C2  UNL     1      35.845   2.505 137.209  1.00  0.00     0.176 C 
HETATM   24  C1  UNL     1      34.858   1.913 138.190  1.00  0.00     0.034 C 
ENDBRANCH  22  23
ENDBRANCH  19  22
ENDBRANCH  16  18
BRANCH  16  25
HETATM   25  C15 UNL     1      38.123   0.910 131.826  1.00  0.00     0.138 A 
HETATM   26  N11 UNL     1      37.504   1.123 130.663  1.00  0.00    -0.348 N 
HETATM   27  C16 UNL     1      38.051   1.993 129.866  1.00  0.00     0.036 A 
ATOM     28  H11 UNL     1      36.648   0.630 130.412  1.00  0.00     0.166 HD
HETATM   29  C17 UNL     1      37.519   2.374 128.528  1.00  0.00     0.070 C 
HETATM   30  C18 UNL     1      39.177   2.454 130.517  1.00  0.00     0.092 A 
HETATM   31  N12 UNL     1      40.159   3.338 130.263  1.00  0.00    -0.309 N 
HETATM   32  C19 UNL     1      39.240   1.783 131.757  1.00  0.00     0.106 A 
HETATM   33  S2  UNL     1      41.128   3.275 131.627  1.00  0.00     0.068 SA
ATOM     34  H12 UNL     1      40.285   3.914 129.430  1.00  0.00     0.176 HD
HETATM   35  N13 UNL     1      40.307   2.131 132.540  1.00  0.00    -0.308 N 
ATOM     36  H13 UNL     1      40.549   1.777 133.466  1.00  0.00     0.176 HD
ENDBRANCH  16  25
ENDBRANCH  15  16
ENDBRANCH  14  15
ENDBRANCH   1  14
BRANCH  13  37
HETATM   37  N10 UNL     1      39.869   1.919 135.904  1.00  0.00    -0.227 N 
HETATM   38  C14 UNL     1      39.395   2.414 137.173  1.00  0.00     0.165 C 
ATOM     39  H10 UNL     1      39.238   1.963 135.103  1.00  0.00     0.177 HD
ENDBRANCH  13  37
BRANCH   9  40
HETATM   40  N6  UNL     1      44.424   4.755 136.602  1.00  0.00    -0.216 N 
HETATM   41  C8  UNL     1      43.913   6.035 136.198  1.00  0.00     0.143 C 
HETATM   42  C9  UNL     1      44.082   6.961 137.396  1.00  0.00     0.053 C 
HETATM   43  C10 UNL     1      45.553   7.220 137.576  1.00  0.00     0.186 C 
HETATM   44  C11 UNL     1      46.396   6.019 137.315  1.00  0.00     0.053 C 
HETATM   45  C12 UNL     1      45.669   4.709 137.349  1.00  0.00     0.143 C 
BRANCH  43  46
HETATM   46  N7  UNL     1      45.765   7.737 138.920  1.00  0.00    -0.075 N 
ATOM     47  H73 UNL     1      45.251   8.601 139.093  1.00  0.00     0.274 HD
ATOM     48  H72 UNL     1      45.319   7.163 139.636  1.00  0.00     0.274 HD
ATOM     49  H71 UNL     1      46.768   7.840 139.069  1.00  0.00     0.274 HD
ENDBRANCH  43  46
ENDBRANCH   9  40
TORSDOF 10
ENDMDL
MODEL 5
REMARK VINA RESULT: -9.215805487      3.679      9.320
REMARK  10 active torsions:
REMARK  status: ('A' for Active; 'I' for Inactive)
REMARK    1  A    between atoms: C2_2  and  O1_3 
REMARK    2  A    between atoms: O1_3  and  C3_4 
REMARK       I    between atoms: C3_4  and  N1_6 
REMARK    3  A    between atoms: N1_6  and  S1_8 
REMARK    4  A    between atoms: S1_8  and  C4_10 
REMARK    5  A    between atoms: S1_8  and  C15_38 
REMARK    6  A    between atoms: C4_10  and  C5_11 
REMARK    7  A    between atoms: C5_11  and  N2_12 
REMARK    8  A    between atoms: C7_20  and  N6_21 
REMARK    9  A    between atoms: C10_24  and  N7_25 
REMARK   10  A    between atoms: C13_34  and  N10_35 
ROOT
HETATM    1  N2  UNL     1      37.911  -2.367 136.407  1.00  0.00    -0.106 N 
HETATM    2  N3  UNL     1      37.584  -2.607 137.659  1.00  0.00    -0.212 N 
ATOM      3  H3  UNL     1      37.099  -1.876 138.180  1.00  0.00     0.209 HD
HETATM    4  N4  UNL     1      37.849  -3.737 138.272  1.00  0.00    -0.114 N 
ATOM      5  H4  UNL     1      37.576  -3.881 139.244  1.00  0.00     0.207 HD
HETATM    6  C6  UNL     1      38.499  -4.712 137.576  1.00  0.00     0.749 A 
HETATM    7  N5  UNL     1      38.909  -5.940 137.890  1.00  0.00    -0.017 N 
ATOM      8  H5  UNL     1      38.784  -6.384 138.800  1.00  0.00     0.203 HD
HETATM    9  C7  UNL     1      39.510  -6.505 136.834  1.00  0.00     0.710 A 
HETATM   10  N8  UNL     1      39.459  -5.592 135.858  1.00  0.00    -0.095 N 
ATOM     11  H8  UNL     1      39.834  -5.714 134.918  1.00  0.00     0.207 HD
HETATM   12  N9  UNL     1      38.852  -4.511 136.298  1.00  0.00     0.107 N 
HETATM   13  C13 UNL     1      38.563  -3.356 135.719  1.00  0.00     0.732 A 
ENDROOT
BRANCH   1  14
HETATM   14  C5  UNL     1      37.588  -1.119 135.759  1.00  0.00     0.183 C 
BRANCH  14  15
HETATM   15  C4  UNL     1      37.757   0.101 136.632  1.00  0.00     0.147 C 
BRANCH  15  16
HETATM   16  S1  UNL     1      36.059   0.806 137.057  1.00  0.00     0.080 S 
HETATM   17  O3  UNL     1      35.324   2.110 136.034  1.00  0.00    -0.243 OA
BRANCH  16  18
HETATM   18  N1  UNL     1      35.044  -0.051 138.428  1.00  0.00    -0.257 N 
HETATM   19  C3  UNL     1      34.429  -1.269 138.172  1.00  0.00     0.372 C 
HETATM   20  O2  UNL     1      34.524  -1.836 137.035  1.00  0.00    -0.238 OA
ATOM     21  H1  UNL     1      34.954   0.384 139.346  1.00  0.00     0.181 HD
BRANCH  19  22
HETATM   22  O1  UNL     1      33.681  -1.940 139.130  1.00  0.00    -0.304 OA
BRANCH  22  23
HETATM   23  C2  UNL     1      32.620  -1.369 139.833  1.00  0.00     0.176 C 
HETATM   24  C1  UNL     1      31.558  -2.378 140.209  1.00  0.00     0.034 C 
ENDBRANCH  22  23
ENDBRANCH  19  22
ENDBRANCH  16  18
BRANCH  16  25
HETATM   25  C15 UNL     1      36.623   2.159 138.380  1.00  0.00     0.138 A 
HETATM   26  N11 UNL     1      36.399   2.302 139.689  1.00  0.00    -0.348 N 
HETATM   27  C16 UNL     1      36.944   3.334 140.261  1.00  0.00     0.036 A 
ATOM     28  H11 UNL     1      35.831   1.636 140.212  1.00  0.00     0.166 HD
HETATM   29  C17 UNL     1      36.817   3.672 141.706  1.00  0.00     0.070 C 
HETATM   30  C18 UNL     1      37.629   4.005 139.269  1.00  0.00     0.092 A 
HETATM   31  N12 UNL     1      38.387   5.114 139.183  1.00  0.00    -0.309 N 
HETATM   32  C19 UNL     1      37.439   3.279 138.073  1.00  0.00     0.106 A 
HETATM   33  S2  UNL     1      38.830   5.182 137.570  1.00  0.00     0.068 SA
ATOM     34  H12 UNL     1      38.635   5.764 139.930  1.00  0.00     0.176 HD
HETATM   35  N13 UNL     1      38.064   3.811 136.978  1.00  0.00    -0.308 N 
ATOM     36  H13 UNL     1      38.064   3.456 136.021  1.00  0.00     0.176 HD
ENDBRANCH  16  25
ENDBRANCH  15  16
ENDBRANCH  14  15
ENDBRANCH   1  14
BRANCH  13  37
HETATM   37  N10 UNL     1      38.858  -3.066 134.501  1.00  0.00    -0.227 N 
HETATM   38  C14 UNL     1      38.244  -3.699 133.360  1.00  0.00     0.165 C 
ATOM     39  H10 UNL     1      39.565  -2.349 134.333  1.00  0.00     0.177 HD
ENDBRANCH  13  37
BRANCH   9  40
HETATM   40  N6  UNL     1      40.071  -7.811 136.804  1.00  0.00    -0.216 N 
HETATM   41  C8  UNL     1      39.226  -8.963 136.656  1.00  0.00     0.143 C 
HETATM   42  C9  UNL     1      39.922  -9.877 135.655  1.00  0.00     0.053 C 
HETATM   43  C10 UNL     1      41.152 -10.436 136.317  1.00  0.00     0.186 C 
HETATM   44  C11 UNL     1      41.854  -9.445 137.181  1.00  0.00     0.053 C 
HETATM   45  C12 UNL     1      41.504  -8.011 136.923  1.00  0.00     0.143 C 
BRANCH  43  46
HETATM   46  N7  UNL     1      42.032 -10.956 135.282  1.00  0.00    -0.075 N 
ATOM     47  H73 UNL     1      41.522 -11.284 134.462  1.00  0.00     0.274 HD
ATOM     48  H72 UNL     1      42.576 -10.224 134.825  1.00  0.00     0.274 HD
ATOM     49  H71 UNL     1      42.619 -11.681 135.695  1.00  0.00     0.274 HD
ENDBRANCH  43  46
ENDBRANCH   9  40
TORSDOF 10
ENDMDL
