MODEL 1
REMARK VINA RESULT: -8.929156803      0.000      0.000
REMARK  2 active torsions:
REMARK  status: ('A' for Active; 'I' for Inactive)
REMARK    1  A    between atoms: C15_21  and  C16_22 
REMARK    2  A    between atoms: C16_22  and  N5_23 
ROOT
HETATM    1  C1  UNL     1       8.979  -9.494  26.489  1.00  0.00     0.015 C 
HETATM    2  C2  UNL     1       9.546  -8.113  26.331  1.00  0.00     0.013 C 
HETATM    3  C3  UNL     1      10.090  -7.749  27.693  1.00  0.00     0.009 C 
HETATM    4  C4  UNL     1      11.117  -6.678  27.680  1.00  0.00     0.007 C 
HETATM    5  C5  UNL     1      10.671  -5.432  26.965  1.00  0.00     0.013 C 
HETATM    6  C6  UNL     1      11.648  -4.350  27.369  1.00  0.00     0.023 C 
HETATM    7  C7  UNL     1      11.089  -3.045  26.843  1.00  0.00     0.013 C 
HETATM    8  C8  UNL     1       9.753  -2.713  27.412  1.00  0.00     0.023 C 
HETATM    9  C9  UNL     1      12.074  -1.957  27.280  1.00  0.00     0.023 C 
HETATM   10  C10 UNL     1      11.062  -3.174  25.366  1.00  0.00     0.107 A 
HETATM   11  N1  UNL     1      11.323  -2.291  24.388  1.00  0.00    -0.339 N 
ATOM     12  H1  UNL     1      11.601  -1.318  24.518  1.00  0.00     0.168 HD
HETATM   13  C11 UNL     1      11.153  -2.916  23.196  1.00  0.00     0.199 A 
HETATM   14  N2  UNL     1      10.793  -4.160  23.500  1.00  0.00    -0.292 N 
ATOM     15  H2  UNL     1      10.590  -4.883  22.810  1.00  0.00     0.188 HD
HETATM   16  N3  UNL     1      10.730  -4.343  24.825  1.00  0.00    -0.272 N 
HETATM   17  C12 UNL     1      10.375  -5.549  25.542  1.00  0.00     0.135 C 
HETATM   18  C13 UNL     1      10.992  -6.703  24.797  1.00  0.00     0.148 C 
HETATM   19  C14 UNL     1      12.472  -6.499  24.810  1.00  0.00     0.070 C 
HETATM   20  N4  UNL     1      13.629  -6.361  24.820  1.00  0.00    -0.197 NA
HETATM   21  C15 UNL     1      10.620  -8.041  25.279  1.00  0.00    -0.041 C 
ENDROOT
BRANCH  21  22
HETATM   22  C16 UNL     1      10.495  -9.076  24.216  1.00  0.00     0.090 C 
BRANCH  22  23
HETATM   23  N5  UNL     1       9.935  -8.734  22.980  1.00  0.00    -0.390 N 
HETATM   24  C17 UNL     1       8.662  -9.380  22.792  1.00  0.00     0.122 C 
HETATM   25  C18 UNL     1       8.533  -9.959  21.385  1.00  0.00     0.020 C 
HETATM   26  C19 UNL     1       8.617  -8.832  20.403  1.00  0.00     0.003 C 
HETATM   27  C20 UNL     1       9.892  -8.067  20.638  1.00  0.00     0.020 C 
HETATM   28  C21 UNL     1      10.686  -8.678  21.804  1.00  0.00     0.122 C 
ENDBRANCH  22  23
ENDBRANCH  21  22
TORSDOF 2
ENDMDL
MODEL 2
REMARK VINA RESULT: -8.808086027      1.268      1.469
REMARK  2 active torsions:
REMARK  status: ('A' for Active; 'I' for Inactive)
REMARK    1  A    between atoms: C15_21  and  C16_22 
REMARK    2  A    between atoms: C16_22  and  N5_23 
ROOT
HETATM    1  C1  UNL     1       8.815  -8.459  26.810  1.00  0.00     0.015 C 
HETATM    2  C2  UNL     1       9.573  -7.331  26.174  1.00  0.00     0.013 C 
HETATM    3  C3  UNL     1      10.228  -6.596  27.322  1.00  0.00     0.009 C 
HETATM    4  C4  UNL     1      11.402  -5.774  26.937  1.00  0.00     0.007 C 
HETATM    5  C5  UNL     1      11.114  -4.809  25.819  1.00  0.00     0.013 C 
HETATM    6  C6  UNL     1      12.260  -3.821  25.819  1.00  0.00     0.023 C 
HETATM    7  C7  UNL     1      11.877  -2.718  24.855  1.00  0.00     0.013 C 
HETATM    8  C8  UNL     1      10.634  -2.001  25.254  1.00  0.00     0.023 C 
HETATM    9  C9  UNL     1      13.033  -1.713  24.884  1.00  0.00     0.023 C 
HETATM   10  C10 UNL     1      11.763  -3.356  23.522  1.00  0.00     0.107 A 
HETATM   11  N1  UNL     1      12.108  -2.930  22.295  1.00  0.00    -0.339 N 
ATOM     12  H1  UNL     1      12.533  -2.030  22.072  1.00  0.00     0.168 HD
HETATM   13  C11 UNL     1      11.791  -3.902  21.405  1.00  0.00     0.199 A 
HETATM   14  N2  UNL     1      11.264  -4.885  22.129  1.00  0.00    -0.292 N 
ATOM     15  H2  UNL     1      10.923  -5.765  21.742  1.00  0.00     0.188 HD
HETATM   16  N3  UNL     1      11.236  -4.574  23.432  1.00  0.00    -0.272 N 
HETATM   17  C12 UNL     1      10.738  -5.376  24.529  1.00  0.00     0.135 C 
HETATM   18  C13 UNL     1      11.141  -6.800  24.253  1.00  0.00     0.148 C 
HETATM   19  C14 UNL     1      12.633  -6.838  24.206  1.00  0.00     0.070 C 
HETATM   20  N4  UNL     1      13.797  -6.888  24.179  1.00  0.00    -0.197 NA
HETATM   21  C15 UNL     1      10.596  -7.804  25.177  1.00  0.00    -0.041 C 
ENDROOT
BRANCH  21  22
HETATM   22  C16 UNL     1      10.269  -9.116  24.554  1.00  0.00     0.090 C 
BRANCH  22  23
HETATM   23  N5  UNL     1      10.017  -9.185  23.179  1.00  0.00    -0.390 N 
HETATM   24  C17 UNL     1       8.603  -9.168  22.909  1.00  0.00     0.122 C 
HETATM   25  C18 UNL     1       8.222 -10.208  21.857  1.00  0.00     0.020 C 
HETATM   26  C19 UNL     1       8.929  -9.866  20.582  1.00  0.00     0.003 C 
HETATM   27  C20 UNL     1      10.409  -9.773  20.848  1.00  0.00     0.020 C 
HETATM   28  C21 UNL     1      10.714 -10.048  22.329  1.00  0.00     0.122 C 
ENDBRANCH  22  23
ENDBRANCH  21  22
TORSDOF 2
ENDMDL
MODEL 3
REMARK VINA RESULT: -8.527363093      1.305      1.520
REMARK  2 active torsions:
REMARK  status: ('A' for Active; 'I' for Inactive)
REMARK    1  A    between atoms: C15_21  and  C16_22 
REMARK    2  A    between atoms: C16_22  and  N5_23 
ROOT
HETATM    1  C1  UNL     1       8.973  -8.921  25.595  1.00  0.00     0.015 C 
HETATM    2  C2  UNL     1       9.706  -7.663  25.961  1.00  0.00     0.013 C 
HETATM    3  C3  UNL     1       9.807  -7.687  27.469  1.00  0.00     0.009 C 
HETATM    4  C4  UNL     1      10.892  -6.841  28.026  1.00  0.00     0.007 C 
HETATM    5  C5  UNL     1      10.843  -5.417  27.547  1.00  0.00     0.013 C 
HETATM    6  C6  UNL     1      11.745  -4.635  28.477  1.00  0.00     0.023 C 
HETATM    7  C7  UNL     1      11.535  -3.171  28.152  1.00  0.00     0.013 C 
HETATM    8  C8  UNL     1      10.131  -2.723  28.366  1.00  0.00     0.023 C 
HETATM    9  C9  UNL     1      12.434  -2.392  29.117  1.00  0.00     0.023 C 
HETATM   10  C10 UNL     1      11.982  -2.992  26.750  1.00  0.00     0.107 A 
HETATM   11  N1  UNL     1      12.645  -1.992  26.145  1.00  0.00    -0.339 N 
ATOM     12  H1  UNL     1      12.968  -1.133  26.590  1.00  0.00     0.168 HD
HETATM   13  C11 UNL     1      12.809  -2.321  24.840  1.00  0.00     0.199 A 
HETATM   14  N2  UNL     1      12.236  -3.514  24.703  1.00  0.00    -0.292 N 
ATOM     15  H2  UNL     1      12.194  -4.034  23.827  1.00  0.00     0.188 HD
HETATM   16  N3  UNL     1      11.721  -3.947  25.862  1.00  0.00    -0.272 N 
HETATM   17  C12 UNL     1      11.021  -5.188  26.117  1.00  0.00     0.135 C 
HETATM   18  C13 UNL     1      11.720  -6.260  25.324  1.00  0.00     0.148 C 
HETATM   19  C14 UNL     1      13.126  -6.336  25.823  1.00  0.00     0.070 C 
HETATM   20  N4  UNL     1      14.223  -6.416  26.208  1.00  0.00    -0.197 NA
HETATM   21  C15 UNL     1      11.067  -7.577  25.325  1.00  0.00    -0.041 C 
ENDROOT
BRANCH  21  22
HETATM   22  C16 UNL     1      11.187  -8.335  24.050  1.00  0.00     0.090 C 
BRANCH  22  23
HETATM   23  N5  UNL     1      10.898  -7.700  22.837  1.00  0.00    -0.390 N 
HETATM   24  C17 UNL     1       9.767  -8.312  22.189  1.00  0.00     0.122 C 
HETATM   25  C18 UNL     1      10.018  -8.508  20.695  1.00  0.00     0.020 C 
HETATM   26  C19 UNL     1      10.222  -7.161  20.073  1.00  0.00     0.003 C 
HETATM   27  C20 UNL     1      11.334  -6.447  20.795  1.00  0.00     0.020 C 
HETATM   28  C21 UNL     1      11.891  -7.317  21.932  1.00  0.00     0.122 C 
ENDBRANCH  22  23
ENDBRANCH  21  22
TORSDOF 2
ENDMDL
MODEL 4
REMARK VINA RESULT: -8.315619951      2.928      6.598
REMARK  2 active torsions:
REMARK  status: ('A' for Active; 'I' for Inactive)
REMARK    1  A    between atoms: C15_21  and  C16_22 
REMARK    2  A    between atoms: C16_22  and  N5_23 
ROOT
HETATM    1  C1  UNL     1      13.452  -6.409  26.953  1.00  0.00     0.015 C 
HETATM    2  C2  UNL     1      12.733  -7.079  25.818  1.00  0.00     0.013 C 
HETATM    3  C3  UNL     1      11.295  -6.630  25.939  1.00  0.00     0.009 C 
HETATM    4  C4  UNL     1      10.508  -6.743  24.686  1.00  0.00     0.007 C 
HETATM    5  C5  UNL     1      10.557  -8.116  24.073  1.00  0.00     0.013 C 
HETATM    6  C6  UNL     1       9.433  -8.158  23.061  1.00  0.00     0.023 C 
HETATM    7  C7  UNL     1       9.324  -9.595  22.597  1.00  0.00     0.013 C 
HETATM    8  C8  UNL     1       9.003 -10.541  23.702  1.00  0.00     0.023 C 
HETATM    9  C9  UNL     1       8.168  -9.629  21.594  1.00  0.00     0.023 C 
HETATM   10  C10 UNL     1      10.611  -9.912  21.933  1.00  0.00     0.107 A 
HETATM   11  N1  UNL     1      10.897 -10.640  20.840  1.00  0.00    -0.339 N 
ATOM     12  H1  UNL     1      10.221 -11.126  20.251  1.00  0.00     0.168 HD
HETATM   13  C11 UNL     1      12.240 -10.617  20.655  1.00  0.00     0.199 A 
HETATM   14  N2  UNL     1      12.719  -9.873  21.648  1.00  0.00    -0.292 N 
ATOM     15  H2  UNL     1      13.709  -9.667  21.785  1.00  0.00     0.188 HD
HETATM   16  N3  UNL     1      11.740  -9.429  22.446  1.00  0.00    -0.272 N 
HETATM   17  C12 UNL     1      11.859  -8.600  23.626  1.00  0.00     0.135 C 
HETATM   18  C13 UNL     1      12.920  -7.572  23.338  1.00  0.00     0.148 C 
HETATM   19  C14 UNL     1      12.452  -6.765  22.172  1.00  0.00     0.070 C 
HETATM   20  N4  UNL     1      12.096  -6.118  21.270  1.00  0.00    -0.197 NA
HETATM   21  C15 UNL     1      13.304  -6.721  24.474  1.00  0.00    -0.041 C 
ENDROOT
BRANCH  21  22
HETATM   22  C16 UNL     1      14.743  -6.340  24.510  1.00  0.00     0.090 C 
BRANCH  22  23
HETATM   23  N5  UNL     1      15.719  -7.290  24.190  1.00  0.00    -0.390 N 
HETATM   24  C17 UNL     1      16.545  -7.590  25.330  1.00  0.00     0.122 C 
HETATM   25  C18 UNL     1      18.023  -7.642  24.952  1.00  0.00     0.020 C 
HETATM   26  C19 UNL     1      18.214  -8.742  23.954  1.00  0.00     0.003 C 
HETATM   27  C20 UNL     1      17.288  -8.517  22.788  1.00  0.00     0.020 C 
HETATM   28  C21 UNL     1      16.447  -7.248  22.999  1.00  0.00     0.122 C 
ENDBRANCH  22  23
ENDBRANCH  21  22
TORSDOF 2
ENDMDL
MODEL 5
REMARK VINA RESULT: -8.292626915      3.856      6.178
REMARK  2 active torsions:
REMARK  status: ('A' for Active; 'I' for Inactive)
REMARK    1  A    between atoms: C15_21  and  C16_22 
REMARK    2  A    between atoms: C16_22  and  N5_23 
ROOT
HETATM    1  C1  UNL     1      13.877 -10.066  21.123  1.00  0.00     0.015 C 
HETATM    2  C2  UNL     1      14.636  -9.308  22.173  1.00  0.00     0.013 C 
HETATM    3  C3  UNL     1      16.001  -9.058  21.574  1.00  0.00     0.009 C 
HETATM    4  C4  UNL     1      16.744  -7.930  22.186  1.00  0.00     0.007 C 
HETATM    5  C5  UNL     1      16.863  -8.035  23.682  1.00  0.00     0.013 C 
HETATM    6  C6  UNL     1      17.939  -7.051  24.083  1.00  0.00     0.023 C 
HETATM    7  C7  UNL     1      18.229  -7.303  25.548  1.00  0.00     0.013 C 
HETATM    8  C8  UNL     1      18.724  -8.682  25.816  1.00  0.00     0.023 C 
HETATM    9  C9  UNL     1      19.337  -6.319  25.934  1.00  0.00     0.023 C 
HETATM   10  C10 UNL     1      16.973  -6.998  26.274  1.00  0.00     0.107 A 
HETATM   11  N1  UNL     1      16.748  -6.406  27.460  1.00  0.00    -0.339 N 
ATOM     12  H1  UNL     1      17.461  -6.045  28.094  1.00  0.00     0.168 HD
HETATM   13  C11 UNL     1      15.409  -6.369  27.667  1.00  0.00     0.199 A 
HETATM   14  N2  UNL     1      14.871  -6.944  26.595  1.00  0.00    -0.292 N 
ATOM     15  H2  UNL     1      13.869  -7.069  26.453  1.00  0.00     0.188 HD
HETATM   16  N3  UNL     1      15.810  -7.339  25.726  1.00  0.00    -0.272 N 
HETATM   17  C12 UNL     1      15.625  -8.001  24.453  1.00  0.00     0.135 C 
HETATM   18  C13 UNL     1      14.419  -7.377  23.802  1.00  0.00     0.148 C 
HETATM   19  C14 UNL     1      14.722  -5.928  23.603  1.00  0.00     0.070 C 
HETATM   20  N4  UNL     1      14.947  -4.798  23.429  1.00  0.00    -0.197 NA
HETATM   21  C15 UNL     1      13.966  -8.018  22.559  1.00  0.00    -0.041 C 
ENDROOT
BRANCH  21  22
HETATM   22  C16 UNL     1      12.491  -8.019  22.358  1.00  0.00     0.090 C 
BRANCH  22  23
HETATM   23  N5  UNL     1      11.647  -8.337  23.428  1.00  0.00    -0.390 N 
HETATM   24  C17 UNL     1      10.775  -9.432  23.093  1.00  0.00     0.122 C 
HETATM   25  C18 UNL     1       9.342  -9.166  23.550  1.00  0.00     0.020 C 
HETATM   26  C19 UNL     1       9.343  -9.030  25.041  1.00  0.00     0.003 C 
HETATM   27  C20 UNL     1      10.325  -7.959  25.439  1.00  0.00     0.020 C 
HETATM   28  C21 UNL     1      11.009  -7.362  24.199  1.00  0.00     0.122 C 
ENDBRANCH  22  23
ENDBRANCH  21  22
TORSDOF 2
ENDMDL
