MODEL 1
REMARK VINA RESULT: -9.266100041      0.000      0.000
REMARK  3 active torsions:
REMARK  status: ('A' for Active; 'I' for Inactive)
REMARK    1  A    between atoms: C2_2  and  C3_3 
REMARK    2  A    between atoms: C4_5  and  C5_6 
REMARK    3  A    between atoms: C5_6  and  C6_7 
ROOT
HETATM    1  C6  UNL     1      10.175  -8.368  23.332  1.00  0.00     0.077 C 
HETATM    2  C7  UNL     1      11.337  -9.305  23.230  1.00  0.00     0.040 C 
HETATM    3  C8  UNL     1      12.393  -8.639  22.378  1.00  0.00     0.010 C 
HETATM    4  C9  UNL     1      12.897  -7.459  23.130  1.00  0.00     0.017 C 
HETATM    5  C10 UNL     1      13.667  -7.960  24.358  1.00  0.00     0.013 C 
HETATM    6  C11 UNL     1      11.840  -6.468  23.517  1.00  0.00     0.081 C 
HETATM    7  C12 UNL     1      12.448  -5.682  24.680  1.00  0.00     0.040 C 
HETATM    8  C13 UNL     1      11.791  -4.367  24.918  1.00  0.00     0.013 C 
HETATM    9  C14 UNL     1      12.250  -3.410  23.810  1.00  0.00     0.111 C 
HETATM   10  C15 UNL     1      12.335  -4.239  22.576  1.00  0.00     0.259 C 
HETATM   11  O2  UNL     1      12.942  -3.726  21.591  1.00  0.00    -0.265 OA
HETATM   12  O3  UNL     1      11.803  -5.498  22.454  1.00  0.00    -0.309 OA
HETATM   13  C16 UNL     1      10.482  -6.981  23.744  1.00  0.00     0.062 C 
HETATM   14  C17 UNL     1       9.975  -6.887  25.160  1.00  0.00     0.075 C 
HETATM   15  C18 UNL     1       9.529  -8.257  25.527  1.00  0.00     0.049 C 
HETATM   16  C19 UNL     1       9.377  -8.715  26.751  1.00  0.00    -0.058 C 
HETATM   17  C20 UNL     1       9.666  -7.816  27.894  1.00  0.00     0.045 C 
HETATM   18  C21 UNL     1       8.927 -10.100  27.048  1.00  0.00     0.045 C 
HETATM   19  O4  UNL     1       9.315  -8.926  24.341  1.00  0.00    -0.343 OA
ENDROOT
BRANCH   1  20
HETATM   20  C5  UNL     1       9.382  -8.500  22.048  1.00  0.00     0.067 C 
BRANCH  20  21
HETATM   21  C4  UNL     1       8.231  -9.402  22.148  1.00  0.00    -0.014 C 
HETATM   22  C2  UNL     1       8.047 -10.358  21.259  1.00  0.00    -0.028 C 
HETATM   23  C1  UNL     1       9.021 -10.523  20.143  1.00  0.00     0.051 C 
BRANCH  22  24
HETATM   24  C3  UNL     1       6.915 -11.262  21.335  1.00  0.00     0.265 C 
HETATM   25  O1  UNL     1       6.344 -11.600  20.278  1.00  0.00    -0.302 OA
ENDBRANCH  22  24
ENDBRANCH  20  21
ENDBRANCH   1  20
TORSDOF 3
ENDMDL
MODEL 2
REMARK VINA RESULT: -9.147122382      1.574      2.005
REMARK  3 active torsions:
REMARK  status: ('A' for Active; 'I' for Inactive)
REMARK    1  A    between atoms: C2_2  and  C3_3 
REMARK    2  A    between atoms: C4_5  and  C5_6 
REMARK    3  A    between atoms: C5_6  and  C6_7 
ROOT
HETATM    1  C6  UNL     1      10.717  -7.555  24.513  1.00  0.00     0.077 C 
HETATM    2  C7  UNL     1      11.987  -8.344  24.555  1.00  0.00     0.040 C 
HETATM    3  C8  UNL     1      13.113  -7.427  24.136  1.00  0.00     0.010 C 
HETATM    4  C9  UNL     1      13.256  -6.384  25.186  1.00  0.00     0.017 C 
HETATM    5  C10 UNL     1      13.773  -7.052  26.466  1.00  0.00     0.013 C 
HETATM    6  C11 UNL     1      12.011  -5.590  25.451  1.00  0.00     0.081 C 
HETATM    7  C12 UNL     1      12.211  -5.005  26.849  1.00  0.00     0.040 C 
HETATM    8  C13 UNL     1      11.342  -3.830  27.133  1.00  0.00     0.013 C 
HETATM    9  C14 UNL     1      11.915  -2.631  26.365  1.00  0.00     0.111 C 
HETATM   10  C15 UNL     1      12.405  -3.182  25.072  1.00  0.00     0.259 C 
HETATM   11  O2  UNL     1      13.152  -2.428  24.383  1.00  0.00    -0.265 OA
HETATM   12  O3  UNL     1      12.095  -4.433  24.599  1.00  0.00    -0.309 OA
HETATM   13  C16 UNL     1      10.723  -6.258  25.224  1.00  0.00     0.062 C 
HETATM   14  C17 UNL     1       9.885  -6.499  26.453  1.00  0.00     0.075 C 
HETATM   15  C18 UNL     1       9.557  -7.949  26.448  1.00  0.00     0.049 C 
HETATM   16  C19 UNL     1       9.183  -8.657  27.492  1.00  0.00    -0.058 C 
HETATM   17  C20 UNL     1       9.064  -7.986  28.808  1.00  0.00     0.045 C 
HETATM   18  C21 UNL     1       8.870 -10.108  27.417  1.00  0.00     0.045 C 
HETATM   19  O4  UNL     1       9.726  -8.380  25.150  1.00  0.00    -0.343 OA
ENDROOT
BRANCH   1  20
HETATM   20  C5  UNL     1      10.278  -7.494  23.064  1.00  0.00     0.067 C 
BRANCH  20  21
HETATM   21  C4  UNL     1       9.377  -8.580  22.667  1.00  0.00    -0.014 C 
HETATM   22  C2  UNL     1       9.137  -8.824  21.394  1.00  0.00    -0.028 C 
HETATM   23  C1  UNL     1       9.791  -7.987  20.348  1.00  0.00     0.051 C 
BRANCH  22  24
HETATM   24  C3  UNL     1       8.248  -9.892  20.976  1.00  0.00     0.265 C 
HETATM   25  O1  UNL     1       8.514 -10.523  19.933  1.00  0.00    -0.302 OA
ENDBRANCH  22  24
ENDBRANCH  20  21
ENDBRANCH   1  20
TORSDOF 3
ENDMDL
MODEL 3
REMARK VINA RESULT: -8.854124397      1.699      2.444
REMARK  3 active torsions:
REMARK  status: ('A' for Active; 'I' for Inactive)
REMARK    1  A    between atoms: C2_2  and  C3_3 
REMARK    2  A    between atoms: C4_5  and  C5_6 
REMARK    3  A    between atoms: C5_6  and  C6_7 
ROOT
HETATM    1  C6  UNL     1      10.694  -7.510  25.516  1.00  0.00     0.077 C 
HETATM    2  C7  UNL     1      12.064  -8.055  25.769  1.00  0.00     0.040 C 
HETATM    3  C8  UNL     1      12.904  -7.778  24.542  1.00  0.00     0.010 C 
HETATM    4  C9  UNL     1      13.073  -6.304  24.439  1.00  0.00     0.017 C 
HETATM    5  C10 UNL     1      13.948  -5.833  25.607  1.00  0.00     0.013 C 
HETATM    6  C11 UNL     1      11.788  -5.532  24.375  1.00  0.00     0.081 C 
HETATM    7  C12 UNL     1      12.164  -4.114  24.808  1.00  0.00     0.040 C 
HETATM    8  C13 UNL     1      11.178  -3.081  24.384  1.00  0.00     0.013 C 
HETATM    9  C14 UNL     1      11.365  -2.851  22.878  1.00  0.00     0.111 C 
HETATM   10  C15 UNL     1      11.670  -4.191  22.304  1.00  0.00     0.259 C 
HETATM   11  O2  UNL     1      12.117  -4.210  21.121  1.00  0.00    -0.265 OA
HETATM   12  O3  UNL     1      11.494  -5.376  22.974  1.00  0.00    -0.309 OA
HETATM   13  C16 UNL     1      10.618  -6.109  25.049  1.00  0.00     0.062 C 
HETATM   14  C17 UNL     1      10.103  -5.342  26.239  1.00  0.00     0.075 C 
HETATM   15  C18 UNL     1      10.040  -6.318  27.359  1.00  0.00     0.049 C 
HETATM   16  C19 UNL     1      10.016  -6.019  28.640  1.00  0.00    -0.058 C 
HETATM   17  C20 UNL     1      10.052  -4.593  29.044  1.00  0.00     0.045 C 
HETATM   18  C21 UNL     1       9.953  -7.047  29.711  1.00  0.00     0.045 C 
HETATM   19  O4  UNL     1      10.014  -7.569  26.782  1.00  0.00    -0.343 OA
ENDROOT
BRANCH   1  20
HETATM   20  C5  UNL     1       9.966  -8.519  24.652  1.00  0.00     0.067 C 
BRANCH  20  21
HETATM   21  C4  UNL     1       9.882  -8.144  23.237  1.00  0.00    -0.014 C 
HETATM   22  C2  UNL     1       9.254  -8.915  22.372  1.00  0.00    -0.028 C 
HETATM   23  C1  UNL     1       8.620 -10.181  22.839  1.00  0.00     0.051 C 
BRANCH  22  24
HETATM   24  C3  UNL     1       9.159  -8.566  20.967  1.00  0.00     0.265 C 
HETATM   25  O1  UNL     1       8.273  -9.105  20.273  1.00  0.00    -0.302 OA
ENDBRANCH  22  24
ENDBRANCH  20  21
ENDBRANCH   1  20
TORSDOF 3
ENDMDL
MODEL 4
REMARK VINA RESULT: -8.807745859      3.210      7.101
REMARK  3 active torsions:
REMARK  status: ('A' for Active; 'I' for Inactive)
REMARK    1  A    between atoms: C2_2  and  C3_3 
REMARK    2  A    between atoms: C4_5  and  C5_6 
REMARK    3  A    between atoms: C5_6  and  C6_7 
ROOT
HETATM    1  C6  UNL     1      11.256  -4.823  27.412  1.00  0.00     0.077 C 
HETATM    2  C7  UNL     1      12.716  -5.058  27.640  1.00  0.00     0.040 C 
HETATM    3  C8  UNL     1      12.887  -6.491  28.091  1.00  0.00     0.010 C 
HETATM    4  C9  UNL     1      12.516  -7.367  26.948  1.00  0.00     0.017 C 
HETATM    5  C10 UNL     1      13.566  -7.192  25.843  1.00  0.00     0.013 C 
HETATM    6  C11 UNL     1      11.129  -7.150  26.420  1.00  0.00     0.081 C 
HETATM    7  C12 UNL     1      11.159  -7.716  24.999  1.00  0.00     0.040 C 
HETATM    8  C13 UNL     1       9.809  -8.034  24.456  1.00  0.00     0.013 C 
HETATM    9  C14 UNL     1       9.324  -9.319  25.138  1.00  0.00     0.111 C 
HETATM   10  C15 UNL     1       9.805  -9.231  26.545  1.00  0.00     0.259 C 
HETATM   11  O2  UNL     1       9.749 -10.295  27.229  1.00  0.00    -0.265 OA
HETATM   12  O3  UNL     1      10.291  -8.086  27.124  1.00  0.00    -0.309 OA
HETATM   13  C16 UNL     1      10.558  -5.804  26.551  1.00  0.00     0.062 C 
HETATM   14  C17 UNL     1      10.315  -5.066  25.260  1.00  0.00     0.075 C 
HETATM   15  C18 UNL     1      11.003  -3.755  25.402  1.00  0.00     0.049 C 
HETATM   16  C19 UNL     1      11.372  -2.969  24.414  1.00  0.00    -0.058 C 
HETATM   17  C20 UNL     1      11.094  -3.391  23.020  1.00  0.00     0.045 C 
HETATM   18  C21 UNL     1      12.057  -1.668  24.626  1.00  0.00     0.045 C 
HETATM   19  O4  UNL     1      11.167  -3.547  26.754  1.00  0.00    -0.343 OA
ENDROOT
BRANCH   1  20
HETATM   20  C5  UNL     1      10.624  -4.591  28.769  1.00  0.00     0.067 C 
BRANCH  20  21
HETATM   21  C4  UNL     1      10.000  -5.784  29.349  1.00  0.00    -0.014 C 
HETATM   22  C2  UNL     1       9.340  -5.712  30.488  1.00  0.00    -0.028 C 
HETATM   23  C1  UNL     1       9.227  -4.402  31.192  1.00  0.00     0.051 C 
BRANCH  22  24
HETATM   24  C3  UNL     1       8.714  -6.878  31.083  1.00  0.00     0.265 C 
HETATM   25  O1  UNL     1       9.152  -8.009  30.791  1.00  0.00    -0.302 OA
ENDBRANCH  22  24
ENDBRANCH  20  21
ENDBRANCH   1  20
TORSDOF 3
ENDMDL
MODEL 5
REMARK VINA RESULT: -8.759373180      2.226      5.987
REMARK  3 active torsions:
REMARK  status: ('A' for Active; 'I' for Inactive)
REMARK    1  A    between atoms: C2_2  and  C3_3 
REMARK    2  A    between atoms: C4_5  and  C5_6 
REMARK    3  A    between atoms: C5_6  and  C6_7 
ROOT
HETATM    1  C6  UNL     1      12.511  -7.760  23.338  1.00  0.00     0.077 C 
HETATM    2  C7  UNL     1      11.864  -8.440  22.173  1.00  0.00     0.040 C 
HETATM    3  C8  UNL     1      11.183  -9.688  22.688  1.00  0.00     0.010 C 
HETATM    4  C9  UNL     1      10.065  -9.256  23.569  1.00  0.00     0.017 C 
HETATM    5  C10 UNL     1       8.998  -8.577  22.701  1.00  0.00     0.013 C 
HETATM    6  C11 UNL     1      10.476  -8.378  24.714  1.00  0.00     0.081 C 
HETATM    7  C12 UNL     1       9.196  -7.649  25.126  1.00  0.00     0.040 C 
HETATM    8  C13 UNL     1       9.247  -7.091  26.505  1.00  0.00     0.013 C 
HETATM    9  C14 UNL     1       9.097  -8.261  27.487  1.00  0.00     0.111 C 
HETATM   10  C15 UNL     1       9.844  -9.394  26.874  1.00  0.00     0.259 C 
HETATM   11  O2  UNL     1       9.644 -10.539  27.375  1.00  0.00    -0.265 OA
HETATM   12  O3  UNL     1      10.716  -9.265  25.822  1.00  0.00    -0.309 OA
HETATM   13  C16 UNL     1      11.655  -7.523  24.521  1.00  0.00     0.062 C 
HETATM   14  C17 UNL     1      11.393  -6.040  24.506  1.00  0.00     0.075 C 
HETATM   15  C18 UNL     1      11.997  -5.530  23.247  1.00  0.00     0.049 C 
HETATM   16  C19 UNL     1      11.690  -4.399  22.647  1.00  0.00    -0.058 C 
HETATM   17  C20 UNL     1      10.653  -3.528  23.250  1.00  0.00     0.045 C 
HETATM   18  C21 UNL     1      12.335  -3.949  21.387  1.00  0.00     0.045 C 
HETATM   19  O4  UNL     1      12.924  -6.470  22.853  1.00  0.00    -0.343 OA
ENDROOT
BRANCH   1  20
HETATM   20  C5  UNL     1      13.809  -8.490  23.616  1.00  0.00     0.067 C 
BRANCH  20  21
HETATM   21  C4  UNL     1      14.487  -8.981  22.413  1.00  0.00    -0.014 C 
HETATM   22  C2  UNL     1      15.801  -8.942  22.318  1.00  0.00    -0.028 C 
HETATM   23  C1  UNL     1      16.605  -8.394  23.447  1.00  0.00     0.051 C 
BRANCH  22  24
HETATM   24  C3  UNL     1      16.495  -9.420  21.137  1.00  0.00     0.265 C 
HETATM   25  O1  UNL     1      15.931 -10.261  20.407  1.00  0.00    -0.302 OA
ENDBRANCH  22  24
ENDBRANCH  20  21
ENDBRANCH   1  20
TORSDOF 3
ENDMDL
