MODEL 1
REMARK VINA RESULT: -7.864010409      0.000      0.000
REMARK  4 active torsions:
REMARK  status: ('A' for Active; 'I' for Inactive)
REMARK    1  A    between atoms: C2_3  and  C3_4 
REMARK    2  A    between atoms: C7_13  and  N4_14 
REMARK    3  A    between atoms: N4_14  and  N5_16 
REMARK    4  A    between atoms: C8_19  and  O3_20 
ROOT
HETATM    1  C3  UNL     1      45.268   5.884  10.819  1.00  0.00     0.102 A 
HETATM    2  N2  UNL     1      45.847   5.580   9.616  1.00  0.00    -0.304 N 
ATOM      3  H2  UNL     1      46.459   6.273   9.185  1.00  0.00     0.171 HD
HETATM    4  C4  UNL     1      45.650   4.418   8.974  1.00  0.00     0.329 A 
HETATM    5  O1  UNL     1      46.214   4.187   7.853  1.00  0.00    -0.246 OA
HETATM    6  N3  UNL     1      44.867   3.446   9.454  1.00  0.00    -0.269 N 
HETATM    7  C5  UNL     1      44.698   2.206   8.718  1.00  0.00     0.164 C 
HETATM    8  C6  UNL     1      44.279   3.693  10.624  1.00  0.00     0.281 A 
HETATM    9  O2  UNL     1      43.520   2.813  11.142  1.00  0.00    -0.265 OA
HETATM   10  C7  UNL     1      44.464   4.908  11.329  1.00  0.00     0.145 A 
ENDROOT
BRANCH   1  11
HETATM   11  C2  UNL     1      45.470   7.225  11.400  1.00  0.00     0.127 A 
HETATM   12  N1  UNL     1      46.646   7.630  11.944  1.00  0.00    -0.291 N 
HETATM   13  C1  UNL     1      47.872   6.873  12.118  1.00  0.00     0.162 C 
HETATM   14  C9  UNL     1      46.476   8.940  12.272  1.00  0.00     0.374 A 
HETATM   15  O4  UNL     1      45.292   9.325  11.961  1.00  0.00    -0.235 OA
HETATM   16  O5  UNL     1      47.398   9.623  12.809  1.00  0.00    -0.237 OA
HETATM   17  C8  UNL     1      44.643   8.315  11.427  1.00  0.00     0.217 A 
BRANCH  17  18
HETATM   18  O3  UNL     1      43.310   8.380  10.974  1.00  0.00    -0.339 OA
ATOM     19  H3  UNL     1      42.742   9.142  10.977  1.00  0.00     0.220 HD
ENDBRANCH  17  18
ENDBRANCH   1  11
BRANCH  10  20
HETATM   20  N4  UNL     1      43.743   5.061  12.540  1.00  0.00    -0.300 N 
ATOM     21  H4  UNL     1      44.179   4.786  13.421  1.00  0.00     0.186 HD
BRANCH  20  22
HETATM   22  N5  UNL     1      42.452   5.580  12.547  1.00  0.00    -0.344 N 
ATOM     23  H52 UNL     1      41.801   5.274  11.824  1.00  0.00     0.176 HD
ATOM     24  H51 UNL     1      42.159   6.252  13.256  1.00  0.00     0.176 HD
ENDBRANCH  20  22
ENDBRANCH  10  20
TORSDOF 4
ENDMDL
MODEL 2
REMARK VINA RESULT: -7.575267808      1.818      5.405
REMARK  4 active torsions:
REMARK  status: ('A' for Active; 'I' for Inactive)
REMARK    1  A    between atoms: C2_3  and  C3_4 
REMARK    2  A    between atoms: C7_13  and  N4_14 
REMARK    3  A    between atoms: N4_14  and  N5_16 
REMARK    4  A    between atoms: C8_19  and  O3_20 
ROOT
HETATM    1  C3  UNL     1      44.738   7.013  11.649  1.00  0.00     0.102 A 
HETATM    2  N2  UNL     1      44.270   8.046  10.882  1.00  0.00    -0.304 N 
ATOM      3  H2  UNL     1      43.518   7.855  10.220  1.00  0.00     0.171 HD
HETATM    4  C4  UNL     1      44.750   9.297  10.956  1.00  0.00     0.329 A 
HETATM    5  O1  UNL     1      44.278  10.222  10.216  1.00  0.00    -0.246 OA
HETATM    6  N3  UNL     1      45.734   9.649  11.791  1.00  0.00    -0.269 N 
HETATM    7  C5  UNL     1      46.207  11.021  11.832  1.00  0.00     0.164 C 
HETATM    8  C6  UNL     1      46.225   8.678  12.560  1.00  0.00     0.281 A 
HETATM    9  O2  UNL     1      47.162   8.941  13.379  1.00  0.00    -0.265 OA
HETATM   10  C7  UNL     1      45.743   7.347  12.509  1.00  0.00     0.145 A 
ENDROOT
BRANCH   1  11
HETATM   11  C2  UNL     1      44.211   5.652  11.428  1.00  0.00     0.127 A 
HETATM   12  N1  UNL     1      44.718   4.800  10.501  1.00  0.00    -0.291 N 
HETATM   13  C1  UNL     1      45.784   5.033   9.543  1.00  0.00     0.162 C 
HETATM   14  C9  UNL     1      44.050   3.626  10.665  1.00  0.00     0.374 A 
HETATM   15  O4  UNL     1      43.194   3.731  11.616  1.00  0.00    -0.235 OA
HETATM   16  O5  UNL     1      44.288   2.610   9.945  1.00  0.00    -0.237 OA
HETATM   17  C8  UNL     1      43.256   4.947  12.110  1.00  0.00     0.217 A 
BRANCH  17  18
HETATM   18  O3  UNL     1      42.448   5.416  13.166  1.00  0.00    -0.339 OA
ATOM     19  H3  UNL     1      42.678   5.455  14.087  1.00  0.00     0.220 HD
ENDBRANCH  17  18
ENDBRANCH   1  11
BRANCH  10  20
HETATM   20  N4  UNL     1      46.384   6.401  13.347  1.00  0.00    -0.300 N 
ATOM     21  H4  UNL     1      45.900   6.058  14.177  1.00  0.00     0.186 HD
BRANCH  20  22
HETATM   22  N5  UNL     1      47.663   5.934  13.056  1.00  0.00    -0.344 N 
ATOM     23  H52 UNL     1      48.031   6.079  12.116  1.00  0.00     0.176 HD
ATOM     24  H51 UNL     1      48.222   5.457  13.763  1.00  0.00     0.176 HD
ENDBRANCH  20  22
ENDBRANCH  10  20
TORSDOF 4
ENDMDL
MODEL 3
REMARK VINA RESULT: -7.533827264      1.557      5.262
REMARK  4 active torsions:
REMARK  status: ('A' for Active; 'I' for Inactive)
REMARK    1  A    between atoms: C2_3  and  C3_4 
REMARK    2  A    between atoms: C7_13  and  N4_14 
REMARK    3  A    between atoms: N4_14  and  N5_16 
REMARK    4  A    between atoms: C8_19  and  O3_20 
ROOT
HETATM    1  C3  UNL     1      45.623   6.228  11.170  1.00  0.00     0.102 A 
HETATM    2  N2  UNL     1      46.981   6.299  11.323  1.00  0.00    -0.304 N 
ATOM      3  H2  UNL     1      47.536   5.470  11.112  1.00  0.00     0.171 HD
HETATM    4  C4  UNL     1      47.622   7.404  11.735  1.00  0.00     0.329 A 
HETATM    5  O1  UNL     1      48.891   7.415  11.862  1.00  0.00    -0.246 OA
HETATM    6  N3  UNL     1      46.986   8.542  12.037  1.00  0.00    -0.269 N 
HETATM    7  C5  UNL     1      47.733   9.709  12.472  1.00  0.00     0.164 C 
HETATM    8  C6  UNL     1      45.660   8.524  11.905  1.00  0.00     0.281 A 
HETATM    9  O2  UNL     1      44.991   9.572  12.174  1.00  0.00    -0.265 OA
HETATM   10  C7  UNL     1      44.952   7.377  11.472  1.00  0.00     0.145 A 
ENDROOT
BRANCH   1  11
HETATM   11  C2  UNL     1      45.003   4.940  10.802  1.00  0.00     0.127 A 
HETATM   12  N1  UNL     1      44.333   4.158  11.686  1.00  0.00    -0.291 N 
HETATM   13  C1  UNL     1      44.132   4.365  13.109  1.00  0.00     0.162 C 
HETATM   14  C9  UNL     1      43.826   3.123  10.962  1.00  0.00     0.374 A 
HETATM   15  O4  UNL     1      44.151   3.245   9.726  1.00  0.00    -0.235 OA
HETATM   16  O5  UNL     1      43.139   2.202  11.496  1.00  0.00    -0.237 OA
HETATM   17  C8  UNL     1      44.868   4.336   9.581  1.00  0.00     0.217 A 
BRANCH  17  18
HETATM   18  O3  UNL     1      45.401   4.777   8.353  1.00  0.00    -0.339 OA
ATOM     19  H3  UNL     1      45.272   4.381   7.499  1.00  0.00     0.220 HD
ENDBRANCH  17  18
ENDBRANCH   1  11
BRANCH  10  20
HETATM   20  N4  UNL     1      43.539   7.478  11.420  1.00  0.00    -0.300 N 
ATOM     21  H4  UNL     1      42.969   6.820  11.951  1.00  0.00     0.186 HD
BRANCH  20  22
HETATM   22  N5  UNL     1      42.918   8.462  10.655  1.00  0.00    -0.344 N 
ATOM     23  H52 UNL     1      42.376   8.174   9.840  1.00  0.00     0.176 HD
ATOM     24  H51 UNL     1      42.999   9.448  10.900  1.00  0.00     0.176 HD
ENDBRANCH  20  22
ENDBRANCH  10  20
TORSDOF 4
ENDMDL
MODEL 4
REMARK VINA RESULT: -7.513596499      1.209      1.396
REMARK  4 active torsions:
REMARK  status: ('A' for Active; 'I' for Inactive)
REMARK    1  A    between atoms: C2_3  and  C3_4 
REMARK    2  A    between atoms: C7_13  and  N4_14 
REMARK    3  A    between atoms: N4_14  and  N5_16 
REMARK    4  A    between atoms: C8_19  and  O3_20 
ROOT
HETATM    1  C3  UNL     1      45.851   6.158  11.166  1.00  0.00     0.102 A 
HETATM    2  N2  UNL     1      45.862   5.861   9.830  1.00  0.00    -0.304 N 
ATOM      3  H2  UNL     1      46.068   6.611   9.170  1.00  0.00     0.171 HD
HETATM    4  C4  UNL     1      45.616   4.635   9.343  1.00  0.00     0.329 A 
HETATM    5  O1  UNL     1      45.637   4.414   8.087  1.00  0.00    -0.246 OA
HETATM    6  N3  UNL     1      45.336   3.586  10.125  1.00  0.00    -0.269 N 
HETATM    7  C5  UNL     1      45.085   2.280   9.541  1.00  0.00     0.164 C 
HETATM    8  C6  UNL     1      45.313   3.823  11.436  1.00  0.00     0.281 A 
HETATM    9  O2  UNL     1      45.054   2.871  12.239  1.00  0.00    -0.265 OA
HETATM   10  C7  UNL     1      45.568   5.104  11.984  1.00  0.00     0.145 A 
ENDROOT
BRANCH   1  11
HETATM   11  C2  UNL     1      46.042   7.557  11.598  1.00  0.00     0.127 A 
HETATM   12  N1  UNL     1      47.228   8.042  12.045  1.00  0.00    -0.291 N 
HETATM   13  C1  UNL     1      48.480   7.334  12.241  1.00  0.00     0.162 C 
HETATM   14  C9  UNL     1      47.036   9.374  12.245  1.00  0.00     0.374 A 
HETATM   15  O4  UNL     1      45.831   9.699  11.948  1.00  0.00    -0.235 OA
HETATM   16  O5  UNL     1      47.962  10.129  12.668  1.00  0.00    -0.237 OA
HETATM   17  C8  UNL     1      45.188   8.625  11.550  1.00  0.00     0.217 A 
BRANCH  17  18
HETATM   18  O3  UNL     1      43.835   8.613  11.153  1.00  0.00    -0.339 OA
ATOM     19  H3  UNL     1      43.412   9.212  10.550  1.00  0.00     0.220 HD
ENDBRANCH  17  18
ENDBRANCH   1  11
BRANCH  10  20
HETATM   20  N4  UNL     1      45.466   5.229  13.392  1.00  0.00    -0.300 N 
ATOM     21  H4  UNL     1      44.650   5.689  13.797  1.00  0.00     0.186 HD
BRANCH  20  22
HETATM   22  N5  UNL     1      46.461   4.735  14.231  1.00  0.00    -0.344 N 
ATOM     23  H52 UNL     1      46.770   3.772  14.104  1.00  0.00     0.176 HD
ATOM     24  H51 UNL     1      46.874   5.319  14.958  1.00  0.00     0.176 HD
ENDBRANCH  20  22
ENDBRANCH  10  20
TORSDOF 4
ENDMDL
MODEL 5
REMARK VINA RESULT: -7.335018113      2.425      3.446
REMARK  4 active torsions:
REMARK  status: ('A' for Active; 'I' for Inactive)
REMARK    1  A    between atoms: C2_3  and  C3_4 
REMARK    2  A    between atoms: C7_13  and  N4_14 
REMARK    3  A    between atoms: N4_14  and  N5_16 
REMARK    4  A    between atoms: C8_19  and  O3_20 
ROOT
HETATM    1  C3  UNL     1      47.203   6.962  12.116  1.00  0.00     0.102 A 
HETATM    2  N2  UNL     1      46.515   6.503  11.025  1.00  0.00    -0.304 N 
ATOM      3  H2  UNL     1      46.509   7.075  10.181  1.00  0.00     0.171 HD
HETATM    4  C4  UNL     1      45.847   5.339  11.008  1.00  0.00     0.329 A 
HETATM    5  O1  UNL     1      45.220   4.960   9.964  1.00  0.00    -0.246 OA
HETATM    6  N3  UNL     1      45.793   4.518  12.062  1.00  0.00    -0.269 N 
HETATM    7  C5  UNL     1      45.061   3.266  11.984  1.00  0.00     0.164 C 
HETATM    8  C6  UNL     1      46.448   4.919  13.151  1.00  0.00     0.281 A 
HETATM    9  O2  UNL     1      46.441   4.187  14.192  1.00  0.00    -0.265 OA
HETATM   10  C7  UNL     1      47.163   6.141  13.204  1.00  0.00     0.145 A 
ENDROOT
BRANCH   1  11
HETATM   11  C2  UNL     1      47.827   8.298  12.067  1.00  0.00     0.127 A 
HETATM   12  N1  UNL     1      49.130   8.499  11.743  1.00  0.00    -0.291 N 
HETATM   13  C1  UNL     1      50.152   7.512  11.446  1.00  0.00     0.162 C 
HETATM   14  C9  UNL     1      49.303   9.848  11.706  1.00  0.00     0.374 A 
HETATM   15  O4  UNL     1      48.202  10.445  11.982  1.00  0.00    -0.235 OA
HETATM   16  O5  UNL     1      50.423  10.374  11.429  1.00  0.00    -0.237 OA
HETATM   17  C8  UNL     1      47.275   9.542  12.210  1.00  0.00     0.217 A 
BRANCH  17  18
HETATM   18  O3  UNL     1      45.941   9.844  12.551  1.00  0.00    -0.339 OA
ATOM     19  H3  UNL     1      45.471   9.561  13.326  1.00  0.00     0.220 HD
ENDBRANCH  17  18
ENDBRANCH   1  11
BRANCH  10  20
HETATM   20  N4  UNL     1      47.776   6.471  14.439  1.00  0.00    -0.300 N 
ATOM     21  H4  UNL     1      47.458   7.293  14.953  1.00  0.00     0.186 HD
BRANCH  20  22
HETATM   22  N5  UNL     1      48.805   5.691  14.961  1.00  0.00    -0.344 N 
ATOM     23  H52 UNL     1      49.363   5.129  14.318  1.00  0.00     0.176 HD
ATOM     24  H51 UNL     1      49.000   5.679  15.961  1.00  0.00     0.176 HD
ENDBRANCH  20  22
ENDBRANCH  10  20
TORSDOF 4
ENDMDL
