MODEL 1
REMARK VINA RESULT: -7.798825718      0.000      0.000
REMARK  9 active torsions:
REMARK  status: ('A' for Active; 'I' for Inactive)
REMARK    1  A    between atoms: C2_2  and  C3_3 
REMARK    2  A    between atoms: C2_2  and  C12_18 
REMARK    3  A    between atoms: C3_3  and  C4_4 
REMARK    4  A    between atoms: C5_7  and  C6_8 
REMARK    5  A    between atoms: C6_8  and  S1_9 
REMARK    6  A    between atoms: S1_9  and  C7_10 
REMARK    7  A    between atoms: C11_14  and  O3_15 
REMARK    8  A    between atoms: C14_20  and  O5_21 
REMARK    9  A    between atoms: C20_28  and  C21_29 
ROOT
HETATM    1  C12 UNL     1      14.043  47.907  64.282  1.00  0.00     0.002 A 
HETATM    2  C13 UNL     1      15.434  47.536  64.755  1.00  0.00     0.024 A 
HETATM    3  C14 UNL     1      16.418  48.587  65.090  1.00  0.00     0.123 C 
HETATM    4  C15 UNL     1      16.710  48.544  66.549  1.00  0.00     0.038 C 
HETATM    5  C16 UNL     1      15.520  48.579  67.455  1.00  0.00     0.001 C 
HETATM    6  C17 UNL     1      15.574  49.859  68.240  1.00  0.00    -0.005 C 
HETATM    7  C18 UNL     1      15.239  49.655  69.710  1.00  0.00     0.006 C 
HETATM    8  C19 UNL     1      14.915  51.028  70.219  1.00  0.00     0.016 C 
HETATM    9  C20 UNL     1      14.768  51.923  68.995  1.00  0.00     0.091 C 
HETATM   10  C22 UNL     1      14.678  50.948  67.828  1.00  0.00     0.004 C 
HETATM   11  C23 UNL     1      13.266  50.407  67.745  1.00  0.00     0.007 C 
HETATM   12  C24 UNL     1      13.284  49.410  66.605  1.00  0.00     0.010 C 
HETATM   13  C25 UNL     1      14.207  48.247  66.862  1.00  0.00    -0.035 C 
HETATM   14  C26 UNL     1      13.434  47.424  67.921  1.00  0.00     0.016 C 
HETATM   15  C27 UNL     1      14.260  47.384  65.626  1.00  0.00     0.006 A 
ENDROOT
BRANCH   1  16
HETATM   16  C2  UNL     1      13.457  47.075  63.154  1.00  0.00    -0.009 C 
HETATM   17  C1  UNL     1      12.054  46.639  63.373  1.00  0.00     0.010 C 
BRANCH  16  18
HETATM   18  C3  UNL     1      13.585  47.822  61.865  1.00  0.00     0.068 C 
BRANCH  18  19
HETATM   19  C4  UNL     1      14.939  48.429  61.666  1.00  0.00     0.300 C 
HETATM   20  O1  UNL     1      14.986  49.796  61.723  1.00  0.00    -0.207 OA
HETATM   21  O2  UNL     1      16.153  50.342  61.635  1.00  0.00    -0.227 OA
HETATM   22  C5  UNL     1      17.047  49.656  60.796  1.00  0.00     0.224 C 
HETATM   23  C11 UNL     1      16.160  48.919  59.791  1.00  0.00     0.292 C 
HETATM   24  O4  UNL     1      15.448  47.924  60.460  1.00  0.00    -0.326 OA
BRANCH  22  25
HETATM   25  C6  UNL     1      17.813  50.671  60.024  1.00  0.00     0.114 C 
BRANCH  25  26
HETATM   26  S1  UNL     1      17.232  52.360  60.153  1.00  0.00    -0.157 SA
BRANCH  26  27
HETATM   27  C7  UNL     1      18.260  53.403  61.182  1.00  0.00    -0.003 C 
HETATM   28  C8  UNL     1      19.725  53.162  60.834  1.00  0.00     0.026 C 
HETATM   29  C9  UNL     1      17.921  54.871  60.896  1.00  0.00     0.026 C 
HETATM   30  C10 UNL     1      18.051  53.095  62.636  1.00  0.00     0.026 C 
ENDBRANCH  26  27
ENDBRANCH  25  26
ENDBRANCH  22  25
BRANCH  23  31
HETATM   31  O3  UNL     1      16.876  48.422  58.735  1.00  0.00    -0.368 OA
ATOM     32  H3  UNL     1      16.317  48.029  58.074  1.00  0.00     0.212 HD
ENDBRANCH  23  31
ENDBRANCH  18  19
ENDBRANCH  16  18
ENDBRANCH   1  16
BRANCH   3  33
HETATM   33  O5  UNL     1      16.105  49.860  64.612  1.00  0.00    -0.395 OA
ATOM     34  H5  UNL     1      15.546  49.873  63.844  1.00  0.00     0.210 HD
ENDBRANCH   3  33
BRANCH   9  35
HETATM   35  C21 UNL     1      13.577  52.764  69.118  1.00  0.00     0.177 C 
HETATM   36  O6  UNL     1      13.347  53.676  68.288  1.00  0.00    -0.648 OA
HETATM   37  O7  UNL     1      12.683  52.562  70.157  1.00  0.00    -0.648 OA
ENDBRANCH   9  35
TORSDOF 9
ENDMDL
MODEL 2
REMARK VINA RESULT: -7.613460117      1.403      1.943
REMARK  9 active torsions:
REMARK  status: ('A' for Active; 'I' for Inactive)
REMARK    1  A    between atoms: C2_2  and  C3_3 
REMARK    2  A    between atoms: C2_2  and  C12_18 
REMARK    3  A    between atoms: C3_3  and  C4_4 
REMARK    4  A    between atoms: C5_7  and  C6_8 
REMARK    5  A    between atoms: C6_8  and  S1_9 
REMARK    6  A    between atoms: S1_9  and  C7_10 
REMARK    7  A    between atoms: C11_14  and  O3_15 
REMARK    8  A    between atoms: C14_20  and  O5_21 
REMARK    9  A    between atoms: C20_28  and  C21_29 
ROOT
HETATM    1  C12 UNL     1      13.938  47.891  64.438  1.00  0.00     0.002 A 
HETATM    2  C13 UNL     1      15.369  47.556  64.811  1.00  0.00     0.024 A 
HETATM    3  C14 UNL     1      16.348  48.632  65.067  1.00  0.00     0.123 C 
HETATM    4  C15 UNL     1      16.746  48.608  66.501  1.00  0.00     0.038 C 
HETATM    5  C16 UNL     1      15.625  48.623  67.491  1.00  0.00     0.001 C 
HETATM    6  C17 UNL     1      15.705  49.910  68.262  1.00  0.00    -0.005 C 
HETATM    7  C18 UNL     1      15.482  49.711  69.753  1.00  0.00     0.006 C 
HETATM    8  C19 UNL     1      15.163  51.080  70.275  1.00  0.00     0.016 C 
HETATM    9  C20 UNL     1      14.906  51.961  69.059  1.00  0.00     0.091 C 
HETATM   10  C22 UNL     1      14.755  50.974  67.909  1.00  0.00     0.004 C 
HETATM   11  C23 UNL     1      13.355  50.400  67.932  1.00  0.00     0.007 C 
HETATM   12  C24 UNL     1      13.313  49.394  66.800  1.00  0.00     0.010 C 
HETATM   13  C25 UNL     1      14.281  48.255  66.997  1.00  0.00    -0.035 C 
HETATM   14  C26 UNL     1      13.606  47.423  68.115  1.00  0.00     0.016 C 
HETATM   15  C27 UNL     1      14.265  47.384  65.767  1.00  0.00     0.006 A 
ENDROOT
BRANCH   1  16
HETATM   16  C2  UNL     1      13.292  47.035  63.361  1.00  0.00    -0.009 C 
HETATM   17  C1  UNL     1      11.916  46.576  63.681  1.00  0.00     0.010 C 
BRANCH  16  18
HETATM   18  C3  UNL     1      13.317  47.771  62.059  1.00  0.00     0.068 C 
BRANCH  18  19
HETATM   19  C4  UNL     1      14.662  48.339  61.727  1.00  0.00     0.300 C 
HETATM   20  O1  UNL     1      14.737  49.705  61.712  1.00  0.00    -0.207 OA
HETATM   21  O2  UNL     1      15.903  50.221  61.508  1.00  0.00    -0.227 OA
HETATM   22  C5  UNL     1      16.717  49.476  60.638  1.00  0.00     0.224 C 
HETATM   23  C11 UNL     1      15.742  48.709  59.742  1.00  0.00     0.292 C 
HETATM   24  O4  UNL     1      15.067  47.765  60.513  1.00  0.00    -0.326 OA
BRANCH  22  25
HETATM   25  C6  UNL     1      17.439  50.435  59.760  1.00  0.00     0.114 C 
BRANCH  25  26
HETATM   26  S1  UNL     1      19.133  50.795  60.215  1.00  0.00    -0.157 SA
BRANCH  26  27
HETATM   27  C7  UNL     1      20.350  49.996  59.172  1.00  0.00    -0.003 C 
HETATM   28  C8  UNL     1      21.028  48.879  59.958  1.00  0.00     0.026 C 
HETATM   29  C9  UNL     1      19.639  49.383  57.960  1.00  0.00     0.026 C 
HETATM   30  C10 UNL     1      21.395  50.976  58.722  1.00  0.00     0.026 C 
ENDBRANCH  26  27
ENDBRANCH  25  26
ENDBRANCH  22  25
BRANCH  23  31
HETATM   31  O3  UNL     1      16.366  48.147  58.660  1.00  0.00    -0.368 OA
ATOM     32  H3  UNL     1      16.703  48.802  58.060  1.00  0.00     0.212 HD
ENDBRANCH  23  31
ENDBRANCH  18  19
ENDBRANCH  16  18
ENDBRANCH   1  16
BRANCH   3  33
HETATM   33  O5  UNL     1      15.971  49.893  64.605  1.00  0.00    -0.395 OA
ATOM     34  H5  UNL     1      15.612  50.472  65.267  1.00  0.00     0.210 HD
ENDBRANCH   3  33
BRANCH   9  35
HETATM   35  C21 UNL     1      13.708  52.775  69.263  1.00  0.00     0.177 C 
HETATM   36  O6  UNL     1      13.013  52.645  70.300  1.00  0.00    -0.648 OA
HETATM   37  O7  UNL     1      13.324  53.705  68.311  1.00  0.00    -0.648 OA
ENDBRANCH   9  35
TORSDOF 9
ENDMDL
MODEL 3
REMARK VINA RESULT: -7.569424813      3.262      7.773
REMARK  9 active torsions:
REMARK  status: ('A' for Active; 'I' for Inactive)
REMARK    1  A    between atoms: C2_2  and  C3_3 
REMARK    2  A    between atoms: C2_2  and  C12_18 
REMARK    3  A    between atoms: C3_3  and  C4_4 
REMARK    4  A    between atoms: C5_7  and  C6_8 
REMARK    5  A    between atoms: C6_8  and  S1_9 
REMARK    6  A    between atoms: S1_9  and  C7_10 
REMARK    7  A    between atoms: C11_14  and  O3_15 
REMARK    8  A    between atoms: C14_20  and  O5_21 
REMARK    9  A    between atoms: C20_28  and  C21_29 
ROOT
HETATM    1  C12 UNL     1      16.868  50.255  63.482  1.00  0.00     0.002 A 
HETATM    2  C13 UNL     1      17.313  49.601  62.189  1.00  0.00     0.024 A 
HETATM    3  C14 UNL     1      16.864  50.134  60.886  1.00  0.00     0.123 C 
HETATM    4  C15 UNL     1      18.033  50.686  60.149  1.00  0.00     0.038 C 
HETATM    5  C16 UNL     1      18.872  51.671  60.898  1.00  0.00     0.001 C 
HETATM    6  C17 UNL     1      18.755  53.000  60.208  1.00  0.00    -0.005 C 
HETATM    7  C18 UNL     1      20.095  53.708  60.075  1.00  0.00     0.006 C 
HETATM    8  C19 UNL     1      19.742  55.137  59.787  1.00  0.00     0.016 C 
HETATM    9  C20 UNL     1      18.251  55.282  60.065  1.00  0.00     0.091 C 
HETATM   10  C22 UNL     1      17.888  54.013  60.825  1.00  0.00     0.004 C 
HETATM   11  C23 UNL     1      18.290  54.175  62.276  1.00  0.00     0.007 C 
HETATM   12  C24 UNL     1      17.950  52.856  62.937  1.00  0.00     0.010 C 
HETATM   13  C25 UNL     1      18.732  51.699  62.369  1.00  0.00    -0.035 C 
HETATM   14  C26 UNL     1      20.149  51.928  62.950  1.00  0.00     0.016 C 
HETATM   15  C27 UNL     1      18.232  50.420  62.992  1.00  0.00     0.006 A 
ENDROOT
BRANCH   1  16
HETATM   16  C2  UNL     1      16.508  49.328  64.631  1.00  0.00    -0.009 C 
HETATM   17  C1  UNL     1      17.183  49.646  65.916  1.00  0.00     0.010 C 
BRANCH  16  18
HETATM   18  C3  UNL     1      15.022  49.304  64.804  1.00  0.00     0.068 C 
BRANCH  18  19
HETATM   19  C4  UNL     1      14.329  48.404  63.828  1.00  0.00     0.300 C 
HETATM   20  O1  UNL     1      14.059  48.959  62.607  1.00  0.00    -0.207 OA
HETATM   21  O2  UNL     1      13.534  48.181  61.719  1.00  0.00    -0.227 OA
HETATM   22  C5  UNL     1      12.661  47.214  62.245  1.00  0.00     0.224 C 
HETATM   23  C11 UNL     1      12.131  47.824  63.545  1.00  0.00     0.292 C 
HETATM   24  O4  UNL     1      13.177  47.913  64.462  1.00  0.00    -0.326 OA
BRANCH  22  25
HETATM   25  C6  UNL     1      11.500  47.101  61.323  1.00  0.00     0.114 C 
BRANCH  25  26
HETATM   26  S1  UNL     1      11.555  48.134  59.861  1.00  0.00    -0.157 SA
BRANCH  26  27
HETATM   27  C7  UNL     1      11.044  47.296  58.363  1.00  0.00    -0.003 C 
HETATM   28  C8  UNL     1      10.216  46.070  58.732  1.00  0.00     0.026 C 
HETATM   29  C9  UNL     1      10.172  48.248  57.535  1.00  0.00     0.026 C 
HETATM   30  C10 UNL     1      12.235  46.855  57.563  1.00  0.00     0.026 C 
ENDBRANCH  26  27
ENDBRANCH  25  26
ENDBRANCH  22  25
BRANCH  23  31
HETATM   31  O3  UNL     1      11.061  47.130  64.044  1.00  0.00    -0.368 OA
ATOM     32  H3  UNL     1      11.327  46.347  64.511  1.00  0.00     0.212 HD
ENDBRANCH  23  31
ENDBRANCH  18  19
ENDBRANCH  16  18
ENDBRANCH   1  16
BRANCH   3  33
HETATM   33  O5  UNL     1      15.772  51.001  60.950  1.00  0.00    -0.395 OA
ATOM     34  H5  UNL     1      15.164  50.933  60.223  1.00  0.00     0.210 HD
ENDBRANCH   3  33
BRANCH   9  35
HETATM   35  C21 UNL     1      17.992  56.495  60.839  1.00  0.00     0.177 C 
HETATM   36  O6  UNL     1      16.819  56.900  61.024  1.00  0.00    -0.648 OA
HETATM   37  O7  UNL     1      19.043  57.216  61.382  1.00  0.00    -0.648 OA
ENDBRANCH   9  35
TORSDOF 9
ENDMDL
MODEL 4
REMARK VINA RESULT: -7.549062066      1.635      2.198
REMARK  9 active torsions:
REMARK  status: ('A' for Active; 'I' for Inactive)
REMARK    1  A    between atoms: C2_2  and  C3_3 
REMARK    2  A    between atoms: C2_2  and  C12_18 
REMARK    3  A    between atoms: C3_3  and  C4_4 
REMARK    4  A    between atoms: C5_7  and  C6_8 
REMARK    5  A    between atoms: C6_8  and  S1_9 
REMARK    6  A    between atoms: S1_9  and  C7_10 
REMARK    7  A    between atoms: C11_14  and  O3_15 
REMARK    8  A    between atoms: C14_20  and  O5_21 
REMARK    9  A    between atoms: C20_28  and  C21_29 
ROOT
HETATM    1  C12 UNL     1      14.189  48.118  64.480  1.00  0.00     0.002 A 
HETATM    2  C13 UNL     1      15.620  47.806  64.868  1.00  0.00     0.024 A 
HETATM    3  C14 UNL     1      16.566  48.897  65.180  1.00  0.00     0.123 C 
HETATM    4  C15 UNL     1      16.939  48.833  66.620  1.00  0.00     0.038 C 
HETATM    5  C16 UNL     1      15.800  48.784  67.588  1.00  0.00     0.001 C 
HETATM    6  C17 UNL     1      15.831  50.045  68.404  1.00  0.00    -0.005 C 
HETATM    7  C18 UNL     1      15.587  49.787  69.884  1.00  0.00     0.006 C 
HETATM    8  C19 UNL     1      15.223  51.129  70.447  1.00  0.00     0.016 C 
HETATM    9  C20 UNL     1      14.965  52.045  69.257  1.00  0.00     0.091 C 
HETATM   10  C22 UNL     1      14.861  51.096  68.071  1.00  0.00     0.004 C 
HETATM   11  C23 UNL     1      13.476  50.486  68.047  1.00  0.00     0.007 C 
HETATM   12  C24 UNL     1      13.482  49.520  66.880  1.00  0.00     0.010 C 
HETATM   13  C25 UNL     1      14.475  48.400  67.056  1.00  0.00    -0.035 C 
HETATM   14  C26 UNL     1      13.801  47.512  68.131  1.00  0.00     0.016 C 
HETATM   15  C27 UNL     1      14.504  47.572  65.796  1.00  0.00     0.006 A 
ENDROOT
BRANCH   1  16
HETATM   16  C2  UNL     1      13.585  47.284  63.361  1.00  0.00    -0.009 C 
HETATM   17  C1  UNL     1      12.441  46.432  63.775  1.00  0.00     0.010 C 
BRANCH  16  18
HETATM   18  C3  UNL     1      13.196  48.179  62.227  1.00  0.00     0.068 C 
BRANCH  18  19
HETATM   19  C4  UNL     1      14.330  48.476  61.295  1.00  0.00     0.300 C 
HETATM   20  O1  UNL     1      15.489  47.793  61.542  1.00  0.00    -0.207 OA
HETATM   21  O2  UNL     1      16.458  47.970  60.706  1.00  0.00    -0.227 OA
HETATM   22  C5  UNL     1      16.522  49.265  60.166  1.00  0.00     0.224 C 
HETATM   23  C11 UNL     1      15.874  50.166  61.220  1.00  0.00     0.292 C 
HETATM   24  O4  UNL     1      14.515  49.867  61.296  1.00  0.00    -0.326 OA
BRANCH  22  25
HETATM   25  C6  UNL     1      17.956  49.656  60.096  1.00  0.00     0.114 C 
BRANCH  25  26
HETATM   26  S1  UNL     1      18.925  49.356  61.571  1.00  0.00    -0.157 SA
BRANCH  26  27
HETATM   27  C7  UNL     1      20.694  49.366  61.292  1.00  0.00    -0.003 C 
HETATM   28  C8  UNL     1      20.969  49.100  59.816  1.00  0.00     0.026 C 
HETATM   29  C9  UNL     1      21.246  50.750  61.654  1.00  0.00     0.026 C 
HETATM   30  C10 UNL     1      21.371  48.306  62.110  1.00  0.00     0.026 C 
ENDBRANCH  26  27
ENDBRANCH  25  26
ENDBRANCH  22  25
BRANCH  23  31
HETATM   31  O3  UNL     1      16.101  51.494  60.976  1.00  0.00    -0.368 OA
ATOM     32  H3  UNL     1      16.549  51.636  60.150  1.00  0.00     0.212 HD
ENDBRANCH  23  31
ENDBRANCH  18  19
ENDBRANCH  16  18
ENDBRANCH   1  16
BRANCH   3  33
HETATM   33  O5  UNL     1      16.165  50.164  64.755  1.00  0.00    -0.395 OA
ATOM     34  H5  UNL     1      15.605  50.632  65.363  1.00  0.00     0.210 HD
ENDBRANCH   3  33
BRANCH   9  35
HETATM   35  C21 UNL     1      13.743  52.821  69.467  1.00  0.00     0.177 C 
HETATM   36  O6  UNL     1      13.048  52.656  70.498  1.00  0.00    -0.648 OA
HETATM   37  O7  UNL     1      13.336  53.752  68.526  1.00  0.00    -0.648 OA
ENDBRANCH   9  35
TORSDOF 9
ENDMDL
MODEL 5
REMARK VINA RESULT: -7.528331180      1.229      1.899
REMARK  9 active torsions:
REMARK  status: ('A' for Active; 'I' for Inactive)
REMARK    1  A    between atoms: C2_2  and  C3_3 
REMARK    2  A    between atoms: C2_2  and  C12_18 
REMARK    3  A    between atoms: C3_3  and  C4_4 
REMARK    4  A    between atoms: C5_7  and  C6_8 
REMARK    5  A    between atoms: C6_8  and  S1_9 
REMARK    6  A    between atoms: S1_9  and  C7_10 
REMARK    7  A    between atoms: C11_14  and  O3_15 
REMARK    8  A    between atoms: C14_20  and  O5_21 
REMARK    9  A    between atoms: C20_28  and  C21_29 
ROOT
HETATM    1  C12 UNL     1      14.033  48.026  64.352  1.00  0.00     0.002 A 
HETATM    2  C13 UNL     1      15.446  47.666  64.764  1.00  0.00     0.024 A 
HETATM    3  C14 UNL     1      16.419  48.724  65.109  1.00  0.00     0.123 C 
HETATM    4  C15 UNL     1      16.760  48.629  66.555  1.00  0.00     0.038 C 
HETATM    5  C16 UNL     1      15.601  48.603  67.499  1.00  0.00     0.001 C 
HETATM    6  C17 UNL     1      15.655  49.852  68.334  1.00  0.00    -0.005 C 
HETATM    7  C18 UNL     1      15.374  49.582  69.804  1.00  0.00     0.006 C 
HETATM    8  C19 UNL     1      15.040  50.927  70.378  1.00  0.00     0.016 C 
HETATM    9  C20 UNL     1      14.834  51.866  69.197  1.00  0.00     0.091 C 
HETATM   10  C22 UNL     1      14.724  50.937  67.995  1.00  0.00     0.004 C 
HETATM   11  C23 UNL     1      13.322  50.369  67.936  1.00  0.00     0.007 C 
HETATM   12  C24 UNL     1      13.321  49.419  66.758  1.00  0.00     0.010 C 
HETATM   13  C25 UNL     1      14.276  48.267  66.937  1.00  0.00    -0.035 C 
HETATM   14  C26 UNL     1      13.555  47.386  67.987  1.00  0.00     0.016 C 
HETATM   15  C27 UNL     1      14.305  47.455  65.667  1.00  0.00     0.006 A 
ENDROOT
BRANCH   1  16
HETATM   16  C2  UNL     1      13.426  47.227  63.211  1.00  0.00    -0.009 C 
HETATM   17  C1  UNL     1      12.284  46.361  63.603  1.00  0.00     0.010 C 
BRANCH  16  18
HETATM   18  C3  UNL     1      13.033  48.155  62.106  1.00  0.00     0.068 C 
BRANCH  18  19
HETATM   19  C4  UNL     1      14.175  48.518  61.207  1.00  0.00     0.300 C 
HETATM   20  O1  UNL     1      15.324  47.800  61.395  1.00  0.00    -0.207 OA
HETATM   21  O2  UNL     1      16.297  48.037  60.581  1.00  0.00    -0.227 OA
HETATM   22  C5  UNL     1      16.382  49.375  60.160  1.00  0.00     0.224 C 
HETATM   23  C11 UNL     1      15.742  50.186  61.288  1.00  0.00     0.292 C 
HETATM   24  O4  UNL     1      14.378  49.900  61.333  1.00  0.00    -0.326 OA
BRANCH  22  25
HETATM   25  C6  UNL     1      17.821  49.750  60.128  1.00  0.00     0.114 C 
BRANCH  25  26
HETATM   26  S1  UNL     1      18.776  49.324  61.582  1.00  0.00    -0.157 SA
BRANCH  26  27
HETATM   27  C7  UNL     1      19.717  50.690  62.257  1.00  0.00    -0.003 C 
HETATM   28  C8  UNL     1      19.348  50.876  63.725  1.00  0.00     0.026 C 
HETATM   29  C9  UNL     1      21.211  50.358  62.162  1.00  0.00     0.026 C 
HETATM   30  C10 UNL     1      19.419  51.962  61.517  1.00  0.00     0.026 C 
ENDBRANCH  26  27
ENDBRANCH  25  26
ENDBRANCH  22  25
BRANCH  23  31
HETATM   31  O3  UNL     1      15.988  51.528  61.164  1.00  0.00    -0.368 OA
ATOM     32  H3  UNL     1      15.663  51.878  60.343  1.00  0.00     0.212 HD
ENDBRANCH  23  31
ENDBRANCH  18  19
ENDBRANCH  16  18
ENDBRANCH   1  16
BRANCH   3  33
HETATM   33  O5  UNL     1      16.065  50.007  64.693  1.00  0.00    -0.395 OA
ATOM     34  H5  UNL     1      15.135  50.201  64.737  1.00  0.00     0.210 HD
ENDBRANCH   3  33
BRANCH   9  35
HETATM   35  C21 UNL     1      13.631  52.676  69.393  1.00  0.00     0.177 C 
HETATM   36  O6  UNL     1      12.904  52.511  70.401  1.00  0.00    -0.648 OA
HETATM   37  O7  UNL     1      13.279  53.641  68.464  1.00  0.00    -0.648 OA
ENDBRANCH   9  35
TORSDOF 9
ENDMDL
