MODEL 1
REMARK VINA RESULT: -8.448849649      0.000      0.000
REMARK  8 active torsions:
REMARK  status: ('A' for Active; 'I' for Inactive)
REMARK    1  A    between atoms: C2_2  and  C4_4 
REMARK    2  A    between atoms: C4_4  and  O1_5 
REMARK    3  A    between atoms: O1_5  and  C5_6 
REMARK    4  A    between atoms: C7_8  and  C8_9 
REMARK    5  A    between atoms: C9_12  and  O4_13 
REMARK    6  A    between atoms: O4_13  and  C10_14 
REMARK    7  A    between atoms: C25_29  and  O5_30 
REMARK    8  A    between atoms: C29_36  and  O7_37 
ROOT
HETATM    1  C10 UNL     1      14.944  48.048  66.208  1.00  0.00     0.133 C 
HETATM    2  C11 UNL     1      16.409  48.363  65.909  1.00  0.00     0.034 C 
HETATM    3  C12 UNL     1      17.005  49.485  66.635  1.00  0.00     0.012 C 
HETATM    4  C13 UNL     1      16.078  50.584  67.115  1.00  0.00    -0.034 C 
HETATM    5  C14 UNL     1      16.101  51.625  65.985  1.00  0.00     0.010 C 
HETATM    6  C15 UNL     1      15.614  52.965  66.335  1.00  0.00     0.008 C 
HETATM    7  C16 UNL     1      15.566  53.314  67.773  1.00  0.00     0.018 C 
HETATM    8  C17 UNL     1      14.170  53.266  68.378  1.00  0.00    -0.012 C 
HETATM    9  C18 UNL     1      13.433  54.575  68.155  1.00  0.00     0.010 C 
HETATM   10  C19 UNL     1      13.347  52.128  67.911  1.00  0.00     0.005 C 
HETATM   11  C20 UNL     1      13.969  50.845  68.474  1.00  0.00     0.006 C 
HETATM   12  C21 UNL     1      14.676  50.145  67.368  1.00  0.00     0.004 C 
HETATM   13  C22 UNL     1      14.500  48.648  67.484  1.00  0.00    -0.017 C 
HETATM   14  C23 UNL     1      15.148  48.066  68.707  1.00  0.00     0.018 C 
HETATM   15  C24 UNL     1      13.023  48.386  67.656  1.00  0.00     0.018 C 
HETATM   16  C25 UNL     1      16.567  52.585  68.617  1.00  0.00     0.123 C 
HETATM   17  C26 UNL     1      16.754  51.154  68.350  1.00  0.00     0.042 C 
ENDROOT
BRANCH   1  18
HETATM   18  O4  UNL     1      14.264  48.604  65.131  1.00  0.00    -0.354 OA
BRANCH  18  19
HETATM   19  C9  UNL     1      14.889  48.581  63.929  1.00  0.00     0.275 C 
HETATM   20  C7  UNL     1      14.489  47.401  63.085  1.00  0.00     0.144 C 
HETATM   21  C6  UNL     1      15.493  47.240  62.006  1.00  0.00     0.055 C 
HETATM   22  C5  UNL     1      15.320  47.992  60.742  1.00  0.00     0.153 C 
HETATM   23  C29 UNL     1      15.393  49.473  60.870  1.00  0.00     0.175 C 
HETATM   24  C27 UNL     1      15.601  49.951  62.286  1.00  0.00     0.151 C 
HETATM   25  O6  UNL     1      14.539  49.710  63.138  1.00  0.00    -0.353 OA
HETATM   26  C28 UNL     1      15.794  51.471  62.202  1.00  0.00     0.042 C 
BRANCH  20  27
HETATM   27  C8  UNL     1      13.077  47.491  62.647  1.00  0.00     0.181 C 
HETATM   28  O2  UNL     1      12.390  46.444  62.527  1.00  0.00    -0.648 OA
HETATM   29  O3  UNL     1      12.411  48.666  62.341  1.00  0.00    -0.648 OA
ENDBRANCH  20  27
BRANCH  22  30
HETATM   30  O1  UNL     1      14.258  47.586  59.974  1.00  0.00    -0.383 OA
BRANCH  30  31
HETATM   31  C4  UNL     1      14.448  47.527  58.628  1.00  0.00     0.172 C 
BRANCH  31  32
HETATM   32  C2  UNL     1      13.435  46.807  57.814  1.00  0.00     0.001 C 
HETATM   33  C1  UNL     1      13.720  47.016  56.337  1.00  0.00     0.011 C 
HETATM   34  C3  UNL     1      12.082  47.464  58.081  1.00  0.00     0.011 C 
ENDBRANCH  31  32
ENDBRANCH  30  31
ENDBRANCH  22  30
BRANCH  23  35
HETATM   35  O7  UNL     1      16.505  50.016  60.166  1.00  0.00    -0.390 OA
ATOM     36  H7  UNL     1      16.249  50.728  59.590  1.00  0.00     0.210 HD
ENDBRANCH  23  35
ENDBRANCH  18  19
ENDBRANCH   1  18
BRANCH  16  37
HETATM   37  O5  UNL     1      17.781  53.316  68.585  1.00  0.00    -0.395 OA
ATOM     38  H5  UNL     1      18.277  53.095  69.365  1.00  0.00     0.210 HD
ENDBRANCH  16  37
TORSDOF 8
ENDMDL
MODEL 2
REMARK VINA RESULT: -7.910500561      1.521      1.825
REMARK  8 active torsions:
REMARK  status: ('A' for Active; 'I' for Inactive)
REMARK    1  A    between atoms: C2_2  and  C4_4 
REMARK    2  A    between atoms: C4_4  and  O1_5 
REMARK    3  A    between atoms: O1_5  and  C5_6 
REMARK    4  A    between atoms: C7_8  and  C8_9 
REMARK    5  A    between atoms: C9_12  and  O4_13 
REMARK    6  A    between atoms: O4_13  and  C10_14 
REMARK    7  A    between atoms: C25_29  and  O5_30 
REMARK    8  A    between atoms: C29_36  and  O7_37 
ROOT
HETATM    1  C10 UNL     1      16.181  48.531  67.419  1.00  0.00     0.133 C 
HETATM    2  C11 UNL     1      17.354  49.239  66.743  1.00  0.00     0.034 C 
HETATM    3  C12 UNL     1      17.676  50.585  67.219  1.00  0.00     0.012 C 
HETATM    4  C13 UNL     1      16.557  51.399  67.838  1.00  0.00    -0.034 C 
HETATM    5  C14 UNL     1      15.987  52.217  66.669  1.00  0.00     0.010 C 
HETATM    6  C15 UNL     1      15.163  53.374  67.036  1.00  0.00     0.008 C 
HETATM    7  C16 UNL     1      15.306  53.898  68.413  1.00  0.00     0.018 C 
HETATM    8  C17 UNL     1      14.171  53.508  69.349  1.00  0.00    -0.012 C 
HETATM    9  C18 UNL     1      13.006  54.474  69.227  1.00  0.00     0.010 C 
HETATM   10  C19 UNL     1      13.701  52.114  69.181  1.00  0.00     0.005 C 
HETATM   11  C20 UNL     1      14.824  51.186  69.658  1.00  0.00     0.006 C 
HETATM   12  C21 UNL     1      15.474  50.587  68.462  1.00  0.00     0.004 C 
HETATM   13  C22 UNL     1      15.842  49.144  68.721  1.00  0.00    -0.017 C 
HETATM   14  C23 UNL     1      16.893  48.979  69.780  1.00  0.00     0.018 C 
HETATM   15  C24 UNL     1      14.613  48.463  69.273  1.00  0.00     0.018 C 
HETATM   16  C25 UNL     1      16.649  53.650  69.029  1.00  0.00     0.123 C 
HETATM   17  C26 UNL     1      17.248  52.326  68.823  1.00  0.00     0.042 C 
ENDROOT
BRANCH   1  18
HETATM   18  O4  UNL     1      15.141  48.682  66.510  1.00  0.00    -0.354 OA
BRANCH  18  19
HETATM   19  C9  UNL     1      15.458  48.620  65.193  1.00  0.00     0.275 C 
HETATM   20  C7  UNL     1      14.940  47.373  64.527  1.00  0.00     0.144 C 
HETATM   21  C6  UNL     1      15.663  47.198  63.244  1.00  0.00     0.055 C 
HETATM   22  C5  UNL     1      15.144  47.865  62.028  1.00  0.00     0.153 C 
HETATM   23  C29 UNL     1      15.154  49.353  62.067  1.00  0.00     0.175 C 
HETATM   24  C27 UNL     1      15.667  49.923  63.366  1.00  0.00     0.151 C 
HETATM   25  O6  UNL     1      14.859  49.681  64.461  1.00  0.00    -0.353 OA
HETATM   26  C28 UNL     1      15.740  51.443  63.169  1.00  0.00     0.042 C 
BRANCH  20  27
HETATM   27  C8  UNL     1      13.462  47.368  64.443  1.00  0.00     0.181 C 
HETATM   28  O2  UNL     1      12.839  46.275  64.417  1.00  0.00    -0.648 OA
HETATM   29  O3  UNL     1      12.663  48.497  64.385  1.00  0.00    -0.648 OA
ENDBRANCH  20  27
BRANCH  22  30
HETATM   30  O1  UNL     1      13.955  47.363  61.562  1.00  0.00    -0.383 OA
BRANCH  30  31
HETATM   31  C4  UNL     1      13.340  48.047  60.559  1.00  0.00     0.172 C 
BRANCH  31  32
HETATM   32  C2  UNL     1      11.856  48.123  60.579  1.00  0.00     0.001 C 
HETATM   33  C1  UNL     1      11.293  46.960  61.380  1.00  0.00     0.011 C 
HETATM   34  C3  UNL     1      11.368  47.923  59.146  1.00  0.00     0.011 C 
ENDBRANCH  31  32
ENDBRANCH  30  31
ENDBRANCH  22  30
BRANCH  23  35
HETATM   35  O7  UNL     1      16.028  49.907  61.089  1.00  0.00    -0.390 OA
ATOM     36  H7  UNL     1      16.501  50.661  61.421  1.00  0.00     0.210 HD
ENDBRANCH  23  35
ENDBRANCH  18  19
ENDBRANCH   1  18
BRANCH  16  37
HETATM   37  O5  UNL     1      17.509  54.710  68.645  1.00  0.00    -0.395 OA
ATOM     38  H5  UNL     1      18.401  54.449  68.839  1.00  0.00     0.210 HD
ENDBRANCH  16  37
TORSDOF 8
ENDMDL
MODEL 3
REMARK VINA RESULT: -7.797287648      2.332      4.626
REMARK  8 active torsions:
REMARK  status: ('A' for Active; 'I' for Inactive)
REMARK    1  A    between atoms: C2_2  and  C4_4 
REMARK    2  A    between atoms: C4_4  and  O1_5 
REMARK    3  A    between atoms: O1_5  and  C5_6 
REMARK    4  A    between atoms: C7_8  and  C8_9 
REMARK    5  A    between atoms: C9_12  and  O4_13 
REMARK    6  A    between atoms: O4_13  and  C10_14 
REMARK    7  A    between atoms: C25_29  and  O5_30 
REMARK    8  A    between atoms: C29_36  and  O7_37 
ROOT
HETATM    1  C10 UNL     1      17.789  51.951  63.943  1.00  0.00     0.133 C 
HETATM    2  C11 UNL     1      16.307  52.169  63.643  1.00  0.00     0.034 C 
HETATM    3  C12 UNL     1      15.373  51.973  64.753  1.00  0.00     0.012 C 
HETATM    4  C13 UNL     1      15.790  51.030  65.865  1.00  0.00    -0.034 C 
HETATM    5  C14 UNL     1      15.201  49.671  65.456  1.00  0.00     0.010 C 
HETATM    6  C15 UNL     1      15.106  48.665  66.519  1.00  0.00     0.008 C 
HETATM    7  C16 UNL     1      15.159  49.150  67.917  1.00  0.00     0.018 C 
HETATM    8  C17 UNL     1      16.499  48.927  68.604  1.00  0.00    -0.012 C 
HETATM    9  C18 UNL     1      16.578  47.535  69.207  1.00  0.00     0.010 C 
HETATM   10  C19 UNL     1      17.671  49.178  67.736  1.00  0.00     0.005 C 
HETATM   11  C20 UNL     1      17.722  50.683  67.449  1.00  0.00     0.006 C 
HETATM   12  C21 UNL     1      17.263  50.906  66.051  1.00  0.00     0.004 C 
HETATM   13  C22 UNL     1      18.072  52.001  65.393  1.00  0.00    -0.017 C 
HETATM   14  C23 UNL     1      17.872  53.349  66.022  1.00  0.00     0.018 C 
HETATM   15  C24 UNL     1      19.529  51.672  65.614  1.00  0.00     0.018 C 
HETATM   16  C25 UNL     1      14.663  50.552  68.101  1.00  0.00     0.123 C 
HETATM   17  C26 UNL     1      15.075  51.545  67.102  1.00  0.00     0.042 C 
ENDROOT
BRANCH   1  18
HETATM   18  O4  UNL     1      18.045  50.686  63.427  1.00  0.00    -0.354 OA
BRANCH  18  19
HETATM   19  C9  UNL     1      17.290  50.286  62.374  1.00  0.00     0.275 C 
HETATM   20  C7  UNL     1      17.955  50.545  61.048  1.00  0.00     0.144 C 
HETATM   21  C6  UNL     1      16.923  50.461  59.988  1.00  0.00     0.055 C 
HETATM   22  C5  UNL     1      16.611  49.144  59.387  1.00  0.00     0.153 C 
HETATM   23  C29 UNL     1      16.026  48.143  60.321  1.00  0.00     0.175 C 
HETATM   24  C27 UNL     1      15.883  48.645  61.737  1.00  0.00     0.151 C 
HETATM   25  O6  UNL     1      17.079  48.880  62.389  1.00  0.00    -0.353 OA
HETATM   26  C28 UNL     1      15.141  47.545  62.508  1.00  0.00     0.042 C 
BRANCH  20  27
HETATM   27  C8  UNL     1      19.151  49.693  60.856  1.00  0.00     0.181 C 
HETATM   28  O2  UNL     1      19.947  49.934  59.912  1.00  0.00    -0.648 OA
HETATM   29  O3  UNL     1      19.492  48.608  61.647  1.00  0.00    -0.648 OA
ENDBRANCH  20  27
BRANCH  22  30
HETATM   30  O1  UNL     1      17.614  48.614  58.615  1.00  0.00    -0.383 OA
BRANCH  30  31
HETATM   31  C4  UNL     1      17.435  48.625  57.266  1.00  0.00     0.172 C 
BRANCH  31  32
HETATM   32  C2  UNL     1      17.157  47.331  56.592  1.00  0.00     0.001 C 
HETATM   33  C1  UNL     1      17.532  47.427  55.122  1.00  0.00     0.011 C 
HETATM   34  C3  UNL     1      15.646  47.111  56.629  1.00  0.00     0.011 C 
ENDBRANCH  31  32
ENDBRANCH  30  31
ENDBRANCH  22  30
BRANCH  23  35
HETATM   35  O7  UNL     1      14.698  47.784  59.956  1.00  0.00    -0.390 OA
ATOM     36  H7  UNL     1      14.063  48.055  60.609  1.00  0.00     0.210 HD
ENDBRANCH  23  35
ENDBRANCH  18  19
ENDBRANCH   1  18
BRANCH  16  37
HETATM   37  O5  UNL     1      13.257  50.499  68.280  1.00  0.00    -0.395 OA
ATOM     38  H5  UNL     1      12.967  51.355  68.575  1.00  0.00     0.210 HD
ENDBRANCH  16  37
TORSDOF 8
ENDMDL
MODEL 4
REMARK VINA RESULT: -7.482405990      1.391      2.450
REMARK  8 active torsions:
REMARK  status: ('A' for Active; 'I' for Inactive)
REMARK    1  A    between atoms: C2_2  and  C4_4 
REMARK    2  A    between atoms: C4_4  and  O1_5 
REMARK    3  A    between atoms: O1_5  and  C5_6 
REMARK    4  A    between atoms: C7_8  and  C8_9 
REMARK    5  A    between atoms: C9_12  and  O4_13 
REMARK    6  A    between atoms: O4_13  and  C10_14 
REMARK    7  A    between atoms: C25_29  and  O5_30 
REMARK    8  A    between atoms: C29_36  and  O7_37 
ROOT
HETATM    1  C10 UNL     1      14.936  48.417  65.822  1.00  0.00     0.133 C 
HETATM    2  C11 UNL     1      16.412  48.323  66.203  1.00  0.00     0.034 C 
HETATM    3  C12 UNL     1      16.811  48.955  67.461  1.00  0.00     0.012 C 
HETATM    4  C13 UNL     1      15.972  50.114  67.964  1.00  0.00    -0.034 C 
HETATM    5  C14 UNL     1      16.670  51.363  67.403  1.00  0.00     0.010 C 
HETATM    6  C15 UNL     1      16.318  52.637  68.040  1.00  0.00     0.008 C 
HETATM    7  C16 UNL     1      15.702  52.573  69.385  1.00  0.00     0.018 C 
HETATM    8  C17 UNL     1      14.197  52.804  69.392  1.00  0.00    -0.012 C 
HETATM    9  C18 UNL     1      13.872  54.286  69.441  1.00  0.00     0.010 C 
HETATM   10  C19 UNL     1      13.482  52.158  68.269  1.00  0.00     0.005 C 
HETATM   11  C20 UNL     1      13.560  50.641  68.480  1.00  0.00     0.006 C 
HETATM   12  C21 UNL     1      14.550  50.088  67.517  1.00  0.00     0.004 C 
HETATM   13  C22 UNL     1      14.086  48.751  66.984  1.00  0.00    -0.017 C 
HETATM   14  C23 UNL     1      14.018  47.682  68.036  1.00  0.00     0.018 C 
HETATM   15  C24 UNL     1      12.664  48.932  66.509  1.00  0.00     0.018 C 
HETATM   16  C25 UNL     1      16.087  51.364  70.182  1.00  0.00     0.123 C 
HETATM   17  C26 UNL     1      16.122  50.079  69.474  1.00  0.00     0.042 C 
ENDROOT
BRANCH   1  18
HETATM   18  O4  UNL     1      14.907  49.433  64.873  1.00  0.00    -0.354 OA
BRANCH  18  19
HETATM   19  C9  UNL     1      14.247  49.178  63.717  1.00  0.00     0.275 C 
HETATM   20  C7  UNL     1      15.123  49.323  62.501  1.00  0.00     0.144 C 
HETATM   21  C6  UNL     1      14.247  49.429  61.309  1.00  0.00     0.055 C 
HETATM   22  C5  UNL     1      13.797  48.190  60.633  1.00  0.00     0.153 C 
HETATM   23  C29 UNL     1      12.924  47.303  61.450  1.00  0.00     0.175 C 
HETATM   24  C27 UNL     1      12.677  47.815  62.847  1.00  0.00     0.151 C 
HETATM   25  O6  UNL     1      13.793  47.831  63.662  1.00  0.00    -0.353 OA
HETATM   26  C28 UNL     1      11.655  46.859  63.479  1.00  0.00     0.042 C 
BRANCH  20  27
HETATM   27  C8  UNL     1      16.166  48.274  62.446  1.00  0.00     0.181 C 
HETATM   28  O2  UNL     1      17.270  48.516  61.892  1.00  0.00    -0.648 OA
HETATM   29  O3  UNL     1      16.041  46.997  62.967  1.00  0.00    -0.648 OA
ENDBRANCH  20  27
BRANCH  22  30
HETATM   30  O1  UNL     1      14.789  47.496  59.988  1.00  0.00    -0.383 OA
BRANCH  30  31
HETATM   31  C4  UNL     1      15.057  47.843  58.700  1.00  0.00     0.172 C 
BRANCH  31  32
HETATM   32  C2  UNL     1      14.809  46.831  57.642  1.00  0.00     0.001 C 
HETATM   33  C1  UNL     1      15.770  47.050  56.485  1.00  0.00     0.011 C 
HETATM   34  C3  UNL     1      13.411  47.086  57.083  1.00  0.00     0.011 C 
ENDBRANCH  31  32
ENDBRANCH  30  31
ENDBRANCH  22  30
BRANCH  23  35
HETATM   35  O7  UNL     1      11.616  47.186  60.899  1.00  0.00    -0.390 OA
ATOM     36  H7  UNL     1      11.023  47.841  61.248  1.00  0.00     0.210 HD
ENDBRANCH  23  35
ENDBRANCH  18  19
ENDBRANCH   1  18
BRANCH  16  37
HETATM   37  O5  UNL     1      17.296  51.654  70.862  1.00  0.00    -0.395 OA
ATOM     38  H5  UNL     1      17.614  52.493  70.548  1.00  0.00     0.210 HD
ENDBRANCH  16  37
TORSDOF 8
ENDMDL
MODEL 5
REMARK VINA RESULT: -7.420099276      2.066      4.014
REMARK  8 active torsions:
REMARK  status: ('A' for Active; 'I' for Inactive)
REMARK    1  A    between atoms: C2_2  and  C4_4 
REMARK    2  A    between atoms: C4_4  and  O1_5 
REMARK    3  A    between atoms: O1_5  and  C5_6 
REMARK    4  A    between atoms: C7_8  and  C8_9 
REMARK    5  A    between atoms: C9_12  and  O4_13 
REMARK    6  A    between atoms: O4_13  and  C10_14 
REMARK    7  A    between atoms: C25_29  and  O5_30 
REMARK    8  A    between atoms: C29_36  and  O7_37 
ROOT
HETATM    1  C10 UNL     1      13.907  49.637  66.596  1.00  0.00     0.133 C 
HETATM    2  C11 UNL     1      13.706  48.475  67.568  1.00  0.00     0.034 C 
HETATM    3  C12 UNL     1      14.481  48.511  68.808  1.00  0.00     0.012 C 
HETATM    4  C13 UNL     1      15.794  49.269  68.796  1.00  0.00    -0.034 C 
HETATM    5  C14 UNL     1      16.849  48.203  68.460  1.00  0.00     0.010 C 
HETATM    6  C15 UNL     1      18.240  48.556  68.762  1.00  0.00     0.008 C 
HETATM    7  C16 UNL     1      18.464  49.659  69.724  1.00  0.00     0.018 C 
HETATM    8  C17 UNL     1      18.864  50.978  69.077  1.00  0.00    -0.012 C 
HETATM    9  C18 UNL     1      20.363  51.037  68.839  1.00  0.00     0.010 C 
HETATM   10  C19 UNL     1      18.134  51.284  67.827  1.00  0.00     0.005 C 
HETATM   11  C20 UNL     1      16.671  51.557  68.200  1.00  0.00     0.006 C 
HETATM   12  C21 UNL     1      15.861  50.376  67.801  1.00  0.00     0.004 C 
HETATM   13  C22 UNL     1      14.518  50.810  67.256  1.00  0.00    -0.017 C 
HETATM   14  C23 UNL     1      13.646  51.474  68.283  1.00  0.00     0.018 C 
HETATM   15  C24 UNL     1      14.782  51.870  66.215  1.00  0.00     0.018 C 
HETATM   16  C25 UNL     1      17.362  49.838  70.724  1.00  0.00     0.123 C 
HETATM   17  C26 UNL     1      15.985  49.743  70.227  1.00  0.00     0.042 C 
ENDROOT
BRANCH   1  18
HETATM   18  O4  UNL     1      14.754  49.111  65.628  1.00  0.00    -0.354 OA
BRANCH  18  19
HETATM   19  C9  UNL     1      14.267  49.022  64.365  1.00  0.00     0.275 C 
HETATM   20  C7  UNL     1      15.292  49.368  63.319  1.00  0.00     0.144 C 
HETATM   21  C6  UNL     1      14.582  49.636  62.045  1.00  0.00     0.055 C 
HETATM   22  C5  UNL     1      14.279  48.506  61.137  1.00  0.00     0.153 C 
HETATM   23  C29 UNL     1      13.340  47.488  61.684  1.00  0.00     0.175 C 
HETATM   24  C27 UNL     1      12.886  47.776  63.093  1.00  0.00     0.151 C 
HETATM   25  O6  UNL     1      13.880  47.690  64.049  1.00  0.00    -0.353 OA
HETATM   26  C28 UNL     1      11.828  46.715  63.427  1.00  0.00     0.042 C 
BRANCH  20  27
HETATM   27  C8  UNL     1      16.376  48.361  63.256  1.00  0.00     0.181 C 
HETATM   28  O2  UNL     1      17.508  48.685  62.814  1.00  0.00    -0.648 OA
HETATM   29  O3  UNL     1      16.259  47.039  63.652  1.00  0.00    -0.648 OA
ENDBRANCH  20  27
BRANCH  22  30
HETATM   30  O1  UNL     1      15.377  47.939  60.542  1.00  0.00    -0.383 OA
BRANCH  30  31
HETATM   31  C4  UNL     1      15.838  48.520  59.401  1.00  0.00     0.172 C 
BRANCH  31  32
HETATM   32  C2  UNL     1      17.201  49.110  59.424  1.00  0.00     0.001 C 
HETATM   33  C1  UNL     1      17.106  50.617  59.599  1.00  0.00     0.011 C 
HETATM   34  C3  UNL     1      17.821  48.883  58.047  1.00  0.00     0.011 C 
ENDBRANCH  31  32
ENDBRANCH  30  31
ENDBRANCH  22  30
BRANCH  23  35
HETATM   35  O7  UNL     1      12.125  47.430  60.944  1.00  0.00    -0.390 OA
ATOM     36  H7  UNL     1      11.569  46.713  61.227  1.00  0.00     0.210 HD
ENDBRANCH  23  35
ENDBRANCH  18  19
ENDBRANCH   1  18
BRANCH  16  37
HETATM   37  O5  UNL     1      17.617  48.970  71.815  1.00  0.00    -0.395 OA
ATOM     38  H5  UNL     1      17.080  49.253  72.546  1.00  0.00     0.210 HD
ENDBRANCH  16  37
TORSDOF 8
ENDMDL
