MODEL 1
REMARK VINA RESULT: -5.818110654      0.000      0.000
REMARK  3 active torsions:
REMARK  status: ('A' for Active; 'I' for Inactive)
REMARK    1  A    between atoms: N1_3  and  O1_4 
REMARK    2  A    between atoms: N1_3  and  C3_6 
REMARK    3  A    between atoms: C6_9  and  N2_10 
ROOT
HETATM    1  C1  UNL     1      31.842  32.000  47.724  1.00  0.00     0.039 C 
HETATM    2  C2  UNL     1      32.711  32.739  48.121  1.00  0.00     0.032 C 
HETATM    3  N1  UNL     1      33.707  33.582  48.585  1.00  0.00    -0.157 N 
ENDROOT
BRANCH   3   4
HETATM    4  O1  UNL     1      34.914  33.554  48.003  1.00  0.00    -0.273 OA
ATOM      5  H1  UNL     1      35.054  34.043  47.200  1.00  0.00     0.246 HD
ENDBRANCH   3   4
BRANCH   3   6
HETATM    6  C3  UNL     1      33.469  34.465  49.657  1.00  0.00     0.185 A 
HETATM    7  C4  UNL     1      33.388  34.082  50.980  1.00  0.00     0.064 A 
HETATM    8  C5  UNL     1      33.148  35.232  51.698  1.00  0.00     0.067 A 
HETATM    9  C6  UNL     1      33.088  36.269  50.794  1.00  0.00     0.216 A 
HETATM   10  O4  UNL     1      33.284  35.769  49.597  1.00  0.00    -0.268 OA
BRANCH   9  11
HETATM   11  N2  UNL     1      32.854  37.650  51.118  1.00  0.00    -0.090 N 
HETATM   12  O2  UNL     1      32.315  37.946  52.197  1.00  0.00    -0.530 OA
HETATM   13  O3  UNL     1      33.214  38.641  50.260  1.00  0.00    -0.530 OA
ENDBRANCH   9  11
ENDBRANCH   3   6
TORSDOF 3
ENDMDL
MODEL 2
REMARK VINA RESULT: -5.816179390      2.676      5.122
REMARK  3 active torsions:
REMARK  status: ('A' for Active; 'I' for Inactive)
REMARK    1  A    between atoms: N1_3  and  O1_4 
REMARK    2  A    between atoms: N1_3  and  C3_6 
REMARK    3  A    between atoms: C6_9  and  N2_10 
ROOT
HETATM    1  C1  UNL     1      32.168  36.327  52.233  1.00  0.00     0.039 C 
HETATM    2  C2  UNL     1      32.957  35.487  51.871  1.00  0.00     0.032 C 
HETATM    3  N1  UNL     1      33.864  34.529  51.449  1.00  0.00    -0.157 N 
ENDROOT
BRANCH   3   4
HETATM    4  O1  UNL     1      34.910  34.225  52.231  1.00  0.00    -0.273 OA
ATOM      5  H1  UNL     1      34.868  33.453  52.782  1.00  0.00     0.246 HD
ENDBRANCH   3   4
BRANCH   3   6
HETATM    6  C3  UNL     1      33.703  33.874  50.212  1.00  0.00     0.185 A 
HETATM    7  C4  UNL     1      34.631  33.893  49.192  1.00  0.00     0.064 A 
HETATM    8  C5  UNL     1      34.095  33.139  48.171  1.00  0.00     0.067 A 
HETATM    9  C6  UNL     1      32.866  32.691  48.601  1.00  0.00     0.216 A 
HETATM   10  O4  UNL     1      32.675  33.149  49.816  1.00  0.00    -0.268 OA
BRANCH   9  11
HETATM   11  N2  UNL     1      31.964  31.866  47.845  1.00  0.00    -0.090 N 
HETATM   12  O2  UNL     1      31.864  32.029  46.618  1.00  0.00    -0.530 OA
HETATM   13  O3  UNL     1      31.216  30.908  48.452  1.00  0.00    -0.530 OA
ENDBRANCH   9  11
ENDBRANCH   3   6
TORSDOF 3
ENDMDL
MODEL 3
REMARK VINA RESULT: -5.749044968      2.439      3.064
REMARK  3 active torsions:
REMARK  status: ('A' for Active; 'I' for Inactive)
REMARK    1  A    between atoms: N1_3  and  O1_4 
REMARK    2  A    between atoms: N1_3  and  C3_6 
REMARK    3  A    between atoms: C6_9  and  N2_10 
ROOT
HETATM    1  C1  UNL     1      29.208  33.163  48.439  1.00  0.00     0.039 C 
HETATM    2  C2  UNL     1      30.367  32.973  48.154  1.00  0.00     0.032 C 
HETATM    3  N1  UNL     1      31.696  32.750  47.834  1.00  0.00    -0.157 N 
ENDROOT
BRANCH   3   4
HETATM    4  O1  UNL     1      31.998  32.078  46.715  1.00  0.00    -0.273 OA
ATOM      5  H1  UNL     1      32.903  32.027  46.433  1.00  0.00     0.246 HD
ENDBRANCH   3   4
BRANCH   3   6
HETATM    6  C3  UNL     1      32.730  33.219  48.669  1.00  0.00     0.185 A 
HETATM    7  C4  UNL     1      34.055  33.307  48.294  1.00  0.00     0.064 A 
HETATM    8  C5  UNL     1      34.729  33.808  49.386  1.00  0.00     0.067 A 
HETATM    9  C6  UNL     1      33.798  34.005  50.382  1.00  0.00     0.216 A 
HETATM   10  O4  UNL     1      32.627  33.643  49.913  1.00  0.00    -0.268 OA
BRANCH   9  11
HETATM   11  N2  UNL     1      34.074  34.518  51.696  1.00  0.00    -0.090 N 
HETATM   12  O2  UNL     1      35.118  34.185  52.280  1.00  0.00    -0.530 OA
HETATM   13  O3  UNL     1      33.207  35.363  52.313  1.00  0.00    -0.530 OA
ENDBRANCH   9  11
ENDBRANCH   3   6
TORSDOF 3
ENDMDL
MODEL 4
REMARK VINA RESULT: -5.741446632      2.318      5.308
REMARK  3 active torsions:
REMARK  status: ('A' for Active; 'I' for Inactive)
REMARK    1  A    between atoms: N1_3  and  O1_4 
REMARK    2  A    between atoms: N1_3  and  C3_6 
REMARK    3  A    between atoms: C6_9  and  N2_10 
ROOT
HETATM    1  C1  UNL     1      33.871  34.834  52.190  1.00  0.00     0.039 C 
HETATM    2  C2  UNL     1      32.969  34.665  51.404  1.00  0.00     0.032 C 
HETATM    3  N1  UNL     1      31.935  34.463  50.505  1.00  0.00    -0.157 N 
ENDROOT
BRANCH   3   4
HETATM    4  O1  UNL     1      30.764  35.087  50.701  1.00  0.00    -0.273 OA
ATOM      5  H1  UNL     1      30.299  35.446  49.955  1.00  0.00     0.246 HD
ENDBRANCH   3   4
BRANCH   3   6
HETATM    6  C3  UNL     1      32.097  33.614  49.393  1.00  0.00     0.185 A 
HETATM    7  C4  UNL     1      31.189  32.648  49.010  1.00  0.00     0.064 A 
HETATM    8  C5  UNL     1      31.718  32.048  47.889  1.00  0.00     0.067 A 
HETATM    9  C6  UNL     1      32.922  32.663  47.630  1.00  0.00     0.216 A 
HETATM   10  O4  UNL     1      33.107  33.585  48.545  1.00  0.00    -0.268 OA
BRANCH   9  11
HETATM   11  N2  UNL     1      33.810  32.343  46.545  1.00  0.00    -0.090 N 
HETATM   12  O2  UNL     1      35.004  32.677  46.609  1.00  0.00    -0.530 OA
HETATM   13  O3  UNL     1      33.361  31.681  45.447  1.00  0.00    -0.530 OA
ENDBRANCH   9  11
ENDBRANCH   3   6
TORSDOF 3
ENDMDL
MODEL 5
REMARK VINA RESULT: -5.665608281      2.529      5.012
REMARK  3 active torsions:
REMARK  status: ('A' for Active; 'I' for Inactive)
REMARK    1  A    between atoms: N1_3  and  O1_4 
REMARK    2  A    between atoms: N1_3  and  C3_6 
REMARK    3  A    between atoms: C6_9  and  N2_10 
ROOT
HETATM    1  C1  UNL     1      32.607  36.581  52.836  1.00  0.00     0.039 C 
HETATM    2  C2  UNL     1      33.186  35.677  52.282  1.00  0.00     0.032 C 
HETATM    3  N1  UNL     1      33.851  34.646  51.639  1.00  0.00    -0.157 N 
ENDROOT
BRANCH   3   4
HETATM    4  O1  UNL     1      34.958  34.132  52.195  1.00  0.00    -0.273 OA
ATOM      5  H1  UNL     1      34.884  33.634  53.001  1.00  0.00     0.246 HD
ENDBRANCH   3   4
BRANCH   3   6
HETATM    6  C3  UNL     1      33.382  34.134  50.413  1.00  0.00     0.185 A 
HETATM    7  C4  UNL     1      32.053  34.080  50.048  1.00  0.00     0.064 A 
HETATM    8  C5  UNL     1      32.024  33.517  48.791  1.00  0.00     0.067 A 
HETATM    9  C6  UNL     1      33.327  33.248  48.437  1.00  0.00     0.216 A 
HETATM   10  O4  UNL     1      34.098  33.630  49.427  1.00  0.00    -0.268 OA
BRANCH   9  11
HETATM   11  N2  UNL     1      33.753  32.655  47.199  1.00  0.00    -0.090 N 
HETATM   12  O2  UNL     1      34.920  32.820  46.807  1.00  0.00    -0.530 OA
HETATM   13  O3  UNL     1      32.896  31.915  46.446  1.00  0.00    -0.530 OA
ENDBRANCH   9  11
ENDBRANCH   3   6
TORSDOF 3
ENDMDL
