MODEL 1
REMARK VINA RESULT: -7.851879281      0.000      0.000
REMARK  11 active torsions:
REMARK  status: ('A' for Active; 'I' for Inactive)
REMARK    1  A    between atoms: O1_2  and  C2_3 
REMARK    2  A    between atoms: C2_3  and  C3_5 
REMARK    3  A    between atoms: C4_7  and  S2_8 
REMARK    4  A    between atoms: S2_8  and  C5_9 
REMARK    5  A    between atoms: C6_14  and  C7_15 
REMARK    6  A    between atoms: C11_26  and  S3_27 
REMARK    7  A    between atoms: S3_27  and  N7_30 
REMARK    8  A    between atoms: N7_30  and  N8_32 
REMARK    9  A    between atoms: C12_34  and  C13_35 
REMARK   10  A    between atoms: C12_34  and  C19_41 
REMARK   11  A    between atoms: N10_46  and  O6_47 
ROOT
HETATM    1  C3  UNL     1      23.197   3.139  28.744  1.00  0.00     0.122 A 
HETATM    2  S1  UNL     1      21.576   2.508  28.767  1.00  0.00    -0.056 SA
HETATM    3  C4  UNL     1      20.756   3.895  28.205  1.00  0.00     0.121 A 
HETATM    4  N6  UNL     1      21.733   4.736  28.038  1.00  0.00    -0.333 N 
ATOM      5  H6  UNL     1      21.527   5.676  27.700  1.00  0.00     0.168 HD
HETATM    6  C11 UNL     1      22.970   4.407  28.293  1.00  0.00     0.175 A 
ENDROOT
BRANCH   6   7
HETATM    7  S3  UNL     1      24.295   5.589  28.100  1.00  0.00     0.293 S 
HETATM    8  O3  UNL     1      23.856   6.790  27.346  1.00  0.00    -0.197 OA
HETATM    9  O4  UNL     1      25.405   4.966  27.264  1.00  0.00    -0.197 OA
BRANCH   7  10
HETATM   10  N7  UNL     1      24.998   5.961  29.626  1.00  0.00    -0.221 N 
ATOM     11  H7  UNL     1      24.823   5.350  30.424  1.00  0.00     0.200 HD
BRANCH  10  12
HETATM   12  N8  UNL     1      25.793   7.073  29.784  1.00  0.00    -0.287 N 
HETATM   13  C12 UNL     1      26.601   7.225  30.852  1.00  0.00     0.103 C 
ATOM     14  H8  UNL     1      25.770   7.803  29.073  1.00  0.00     0.188 HD
BRANCH  13  15
HETATM   15  C13 UNL     1      27.341   8.468  30.807  1.00  0.00    -0.004 A 
HETATM   16  C14 UNL     1      28.222   8.887  31.773  1.00  0.00     0.014 A 
HETATM   17  C15 UNL     1      28.946  10.052  31.660  1.00  0.00     0.001 A 
HETATM   18  C16 UNL     1      28.813  10.865  30.548  1.00  0.00     0.000 A 
HETATM   19  C17 UNL     1      27.931  10.461  29.567  1.00  0.00     0.001 A 
HETATM   20  C18 UNL     1      27.212   9.305  29.677  1.00  0.00     0.014 A 
ENDBRANCH  13  15
BRANCH  13  21
HETATM   21  C19 UNL     1      26.552   6.221  31.871  1.00  0.00     0.144 A 
HETATM   22  N9  UNL     1      27.567   5.271  31.885  1.00  0.00    -0.290 N 
HETATM   23  C20 UNL     1      27.683   4.348  32.823  1.00  0.00     0.356 A 
ATOM     24  H9  UNL     1      28.257   5.288  31.133  1.00  0.00     0.172 HD
HETATM   25  O5  UNL     1      28.614   3.480  32.835  1.00  0.00    -0.244 OA
HETATM   26  N10 UNL     1      26.805   4.276  33.837  1.00  0.00    -0.118 N 
HETATM   27  C21 UNL     1      25.822   5.176  33.850  1.00  0.00     0.358 A 
HETATM   28  O7  UNL     1      24.979   5.137  34.791  1.00  0.00    -0.244 OA
HETATM   29  N11 UNL     1      25.698   6.144  32.873  1.00  0.00    -0.286 N 
HETATM   30  C22 UNL     1      24.659   7.136  33.103  1.00  0.00     0.163 C 
BRANCH  26  31
HETATM   31  O6  UNL     1      26.916   3.315  34.820  1.00  0.00    -0.275 OA
ATOM     32  H6  UNL     1      26.407   3.361  35.620  1.00  0.00     0.245 HD
ENDBRANCH  26  31
ENDBRANCH  13  21
ENDBRANCH  10  12
ENDBRANCH   7  10
ENDBRANCH   6   7
BRANCH   1  33
HETATM   33  C2  UNL     1      24.393   2.405  29.115  1.00  0.00     0.303 C 
HETATM   34  O2  UNL     1      24.565   1.259  28.570  1.00  0.00    -0.259 OA
BRANCH  33  35
HETATM   35  O1  UNL     1      25.335   2.833  29.982  1.00  0.00    -0.322 OA
HETATM   36  C1  UNL     1      26.709   2.937  29.752  1.00  0.00     0.213 C 
ENDBRANCH  33  35
ENDBRANCH   1  33
BRANCH   3  37
HETATM   37  S2  UNL     1      18.977   4.114  27.922  1.00  0.00    -0.027 SA
BRANCH  37  38
HETATM   38  C5  UNL     1      18.805   4.487  26.163  1.00  0.00     0.167 A 
HETATM   39  N1  UNL     1      18.109   3.820  25.235  1.00  0.00    -0.278 N 
HETATM   40  N2  UNL     1      18.223   4.404  24.033  1.00  0.00    -0.281 N 
ATOM     41  H1  UNL     1      17.563   2.978  25.417  1.00  0.00     0.189 HD
HETATM   42  C6  UNL     1      19.003   5.466  24.180  1.00  0.00     0.150 A 
ATOM     43  H2  UNL     1      17.789   4.090  23.165  1.00  0.00     0.188 HD
HETATM   44  N5  UNL     1      19.359   5.508  25.502  1.00  0.00    -0.319 N 
ATOM     45  H5  UNL     1      19.961   6.217  25.923  1.00  0.00     0.169 HD
BRANCH  42  46
HETATM   46  C7  UNL     1      19.413   6.407  23.156  1.00  0.00     0.096 A 
HETATM   47  C8  UNL     1      20.753   6.505  22.757  1.00  0.00     0.122 A 
HETATM   48  N3  UNL     1      20.764   7.458  21.813  1.00  0.00    -0.360 N 
HETATM   49  C9  UNL     1      19.522   7.923  21.632  1.00  0.00     0.182 A 
ATOM     50  H3  UNL     1      21.591   7.778  21.309  1.00  0.00     0.166 HD
HETATM   51  N4  UNL     1      18.663   7.268  22.473  1.00  0.00    -0.343 N 
HETATM   52  C10 UNL     1      17.233   7.513  22.551  1.00  0.00     0.157 C 
ENDBRANCH  42  46
ENDBRANCH  37  38
ENDBRANCH   3  37
TORSDOF 11
ENDMDL
MODEL 2
REMARK VINA RESULT: -7.791176542      3.378     11.173
REMARK  11 active torsions:
REMARK  status: ('A' for Active; 'I' for Inactive)
REMARK    1  A    between atoms: O1_2  and  C2_3 
REMARK    2  A    between atoms: C2_3  and  C3_5 
REMARK    3  A    between atoms: C4_7  and  S2_8 
REMARK    4  A    between atoms: S2_8  and  C5_9 
REMARK    5  A    between atoms: C6_14  and  C7_15 
REMARK    6  A    between atoms: C11_26  and  S3_27 
REMARK    7  A    between atoms: S3_27  and  N7_30 
REMARK    8  A    between atoms: N7_30  and  N8_32 
REMARK    9  A    between atoms: C12_34  and  C13_35 
REMARK   10  A    between atoms: C12_34  and  C19_41 
REMARK   11  A    between atoms: N10_46  and  O6_47 
ROOT
HETATM    1  C3  UNL     1      25.335   3.694  29.647  1.00  0.00     0.122 A 
HETATM    2  S1  UNL     1      26.379   3.474  31.022  1.00  0.00    -0.056 SA
HETATM    3  C4  UNL     1      26.047   4.939  31.829  1.00  0.00     0.121 A 
HETATM    4  N6  UNL     1      25.187   5.499  31.031  1.00  0.00    -0.333 N 
ATOM      5  H6  UNL     1      24.807   6.414  31.271  1.00  0.00     0.168 HD
HETATM    6  C11 UNL     1      24.799   4.918  29.928  1.00  0.00     0.175 A 
ENDROOT
BRANCH   6   7
HETATM    7  S3  UNL     1      23.651   5.719  28.820  1.00  0.00     0.293 S 
HETATM    8  O3  UNL     1      24.347   6.606  27.854  1.00  0.00    -0.197 OA
HETATM    9  O4  UNL     1      22.733   6.631  29.622  1.00  0.00    -0.197 OA
BRANCH   7  10
HETATM   10  N7  UNL     1      22.630   4.558  28.066  1.00  0.00    -0.221 N 
ATOM     11  H7  UNL     1      22.802   4.290  27.096  1.00  0.00     0.200 HD
BRANCH  10  12
HETATM   12  N8  UNL     1      21.584   3.986  28.752  1.00  0.00    -0.287 N 
HETATM   13  C12 UNL     1      20.424   3.662  28.146  1.00  0.00     0.103 C 
ATOM     14  H8  UNL     1      21.689   3.801  29.749  1.00  0.00     0.188 HD
BRANCH  13  15
HETATM   15  C13 UNL     1      19.471   3.075  29.062  1.00  0.00    -0.004 A 
HETATM   16  C14 UNL     1      19.796   2.207  30.074  1.00  0.00     0.014 A 
HETATM   17  C15 UNL     1      18.861   1.717  30.958  1.00  0.00     0.001 A 
HETATM   18  C16 UNL     1      17.531   2.085  30.860  1.00  0.00     0.000 A 
HETATM   19  C17 UNL     1      17.185   2.957  29.848  1.00  0.00     0.001 A 
HETATM   20  C18 UNL     1      18.111   3.444  28.970  1.00  0.00     0.014 A 
ENDBRANCH  13  15
BRANCH  13  21
HETATM   21  C19 UNL     1      20.279   4.008  26.763  1.00  0.00     0.144 A 
HETATM   22  N9  UNL     1      19.941   5.322  26.463  1.00  0.00    -0.290 N 
HETATM   23  C20 UNL     1      19.864   5.787  25.229  1.00  0.00     0.356 A 
ATOM     24  H9  UNL     1      19.743   5.960  27.234  1.00  0.00     0.172 HD
HETATM   25  O5  UNL     1      19.555   6.991  24.955  1.00  0.00    -0.244 OA
HETATM   26  N10 UNL     1      20.114   4.995  24.172  1.00  0.00    -0.118 N 
HETATM   27  C21 UNL     1      20.442   3.729  24.431  1.00  0.00     0.358 A 
HETATM   28  O7  UNL     1      20.684   2.956  23.461  1.00  0.00    -0.244 OA
HETATM   29  N11 UNL     1      20.526   3.240  25.720  1.00  0.00    -0.286 N 
HETATM   30  C22 UNL     1      21.032   1.881  25.842  1.00  0.00     0.163 C 
BRANCH  26  31
HETATM   31  O6  UNL     1      20.033   5.469  22.881  1.00  0.00    -0.275 OA
ATOM     32  H6  UNL     1      20.700   6.042  22.519  1.00  0.00     0.245 HD
ENDBRANCH  26  31
ENDBRANCH  13  21
ENDBRANCH  10  12
ENDBRANCH   7  10
ENDBRANCH   6   7
BRANCH   1  33
HETATM   33  C2  UNL     1      25.157   2.746  28.563  1.00  0.00     0.303 C 
HETATM   34  O2  UNL     1      26.143   2.581  27.764  1.00  0.00    -0.259 OA
BRANCH  33  35
HETATM   35  O1  UNL     1      24.039   2.023  28.333  1.00  0.00    -0.322 OA
HETATM   36  C1  UNL     1      23.560   0.946  29.083  1.00  0.00     0.213 C 
ENDBRANCH  33  35
ENDBRANCH   1  33
BRANCH   3  37
HETATM   37  S2  UNL     1      26.732   5.540  33.398  1.00  0.00    -0.027 SA
BRANCH  37  38
HETATM   38  C5  UNL     1      27.455   4.092  34.201  1.00  0.00     0.167 A 
HETATM   39  N1  UNL     1      26.934   3.331  35.170  1.00  0.00    -0.278 N 
HETATM   40  N2  UNL     1      27.772   2.340  35.511  1.00  0.00    -0.281 N 
ATOM     41  H1  UNL     1      26.019   3.483  35.595  1.00  0.00     0.189 HD
HETATM   42  C6  UNL     1      28.853   2.457  34.753  1.00  0.00     0.150 A 
ATOM     43  H2  UNL     1      27.608   1.628  36.222  1.00  0.00     0.188 HD
HETATM   44  N5  UNL     1      28.648   3.545  33.945  1.00  0.00    -0.319 N 
ATOM     45  H5  UNL     1      29.310   3.889  33.249  1.00  0.00     0.169 HD
BRANCH  42  46
HETATM   46  C7  UNL     1      30.032   1.613  34.763  1.00  0.00     0.096 A 
HETATM   47  C8  UNL     1      30.516   1.032  33.583  1.00  0.00     0.122 A 
HETATM   48  N3  UNL     1      31.596   0.332  33.961  1.00  0.00    -0.360 N 
HETATM   49  C9  UNL     1      31.776   0.463  35.281  1.00  0.00     0.182 A 
ATOM     50  H3  UNL     1      32.189  -0.217  33.338  1.00  0.00     0.166 HD
HETATM   51  N4  UNL     1      30.796   1.269  35.796  1.00  0.00    -0.343 N 
HETATM   52  C10 UNL     1      30.676   1.633  37.197  1.00  0.00     0.157 C 
ENDBRANCH  42  46
ENDBRANCH  37  38
ENDBRANCH   3  37
TORSDOF 11
ENDMDL
MODEL 3
REMARK VINA RESULT: -7.701457957      4.283     10.391
REMARK  11 active torsions:
REMARK  status: ('A' for Active; 'I' for Inactive)
REMARK    1  A    between atoms: O1_2  and  C2_3 
REMARK    2  A    between atoms: C2_3  and  C3_5 
REMARK    3  A    between atoms: C4_7  and  S2_8 
REMARK    4  A    between atoms: S2_8  and  C5_9 
REMARK    5  A    between atoms: C6_14  and  C7_15 
REMARK    6  A    between atoms: C11_26  and  S3_27 
REMARK    7  A    between atoms: S3_27  and  N7_30 
REMARK    8  A    between atoms: N7_30  and  N8_32 
REMARK    9  A    between atoms: C12_34  and  C13_35 
REMARK   10  A    between atoms: C12_34  and  C19_41 
REMARK   11  A    between atoms: N10_46  and  O6_47 
ROOT
HETATM    1  C3  UNL     1      26.560   4.909  32.018  1.00  0.00     0.122 A 
HETATM    2  S1  UNL     1      27.782   4.125  32.976  1.00  0.00    -0.056 SA
HETATM    3  C4  UNL     1      27.085   4.356  34.515  1.00  0.00     0.121 A 
HETATM    4  N6  UNL     1      25.994   4.999  34.224  1.00  0.00    -0.333 N 
ATOM      5  H6  UNL     1      25.363   5.277  34.976  1.00  0.00     0.168 HD
HETATM    6  C11 UNL     1      25.686   5.299  32.991  1.00  0.00     0.175 A 
ENDROOT
BRANCH   6   7
HETATM    7  S3  UNL     1      24.205   6.223  32.610  1.00  0.00     0.293 S 
HETATM    8  O3  UNL     1      24.518   7.603  32.160  1.00  0.00    -0.197 OA
HETATM    9  O4  UNL     1      23.376   6.385  33.877  1.00  0.00    -0.197 OA
BRANCH   7  10
HETATM   10  N7  UNL     1      23.219   5.351  31.502  1.00  0.00    -0.221 N 
ATOM     11  H7  UNL     1      23.040   4.359  31.659  1.00  0.00     0.200 HD
BRANCH  10  12
HETATM   12  N8  UNL     1      22.668   5.974  30.407  1.00  0.00    -0.287 N 
HETATM   13  C12 UNL     1      22.350   5.297  29.285  1.00  0.00     0.103 C 
ATOM     14  H8  UNL     1      22.494   6.978  30.444  1.00  0.00     0.188 HD
BRANCH  13  15
HETATM   15  C13 UNL     1      21.786   6.156  28.267  1.00  0.00    -0.004 A 
HETATM   16  C14 UNL     1      21.633   7.515  28.391  1.00  0.00     0.014 A 
HETATM   17  C15 UNL     1      21.142   8.300  27.371  1.00  0.00     0.001 A 
HETATM   18  C16 UNL     1      20.774   7.742  26.160  1.00  0.00     0.000 A 
HETATM   19  C17 UNL     1      20.919   6.377  26.018  1.00  0.00     0.001 A 
HETATM   20  C18 UNL     1      21.407   5.596  27.028  1.00  0.00     0.014 A 
ENDBRANCH  13  15
BRANCH  13  21
HETATM   21  C19 UNL     1      22.679   3.904  29.235  1.00  0.00     0.144 A 
HETATM   22  N9  UNL     1      23.960   3.563  28.816  1.00  0.00    -0.290 N 
HETATM   23  C20 UNL     1      24.414   2.322  28.810  1.00  0.00     0.356 A 
ATOM     24  H9  UNL     1      24.580   4.308  28.497  1.00  0.00     0.172 HD
HETATM   25  O5  UNL     1      25.587   2.012  28.426  1.00  0.00    -0.244 OA
HETATM   26  N10 UNL     1      23.645   1.300  29.218  1.00  0.00    -0.118 N 
HETATM   27  C21 UNL     1      22.411   1.599  29.628  1.00  0.00     0.358 A 
HETATM   28  O7  UNL     1      21.661   0.661  30.020  1.00  0.00    -0.244 OA
HETATM   29  N11 UNL     1      21.933   2.894  29.639  1.00  0.00    -0.286 N 
HETATM   30  C22 UNL     1      20.623   3.072  30.244  1.00  0.00     0.163 C 
BRANCH  26  31
HETATM   31  O6  UNL     1      24.108   0.002  29.213  1.00  0.00    -0.275 OA
ATOM     32  H6  UNL     1      23.880  -0.610  29.903  1.00  0.00     0.245 HD
ENDBRANCH  26  31
ENDBRANCH  13  21
ENDBRANCH  10  12
ENDBRANCH   7  10
ENDBRANCH   6   7
BRANCH   1  33
HETATM   33  C2  UNL     1      26.574   5.034  30.572  1.00  0.00     0.303 C 
HETATM   34  O2  UNL     1      27.446   4.346  29.936  1.00  0.00    -0.259 OA
BRANCH  33  35
HETATM   35  O1  UNL     1      25.742   5.813  29.847  1.00  0.00    -0.322 OA
HETATM   36  C1  UNL     1      26.063   6.994  29.174  1.00  0.00     0.213 C 
ENDBRANCH  33  35
ENDBRANCH   1  33
BRANCH   3  37
HETATM   37  S2  UNL     1      27.722   3.829  36.131  1.00  0.00    -0.027 SA
BRANCH  37  38
HETATM   38  C5  UNL     1      27.838   2.029  36.046  1.00  0.00     0.167 A 
HETATM   39  N1  UNL     1      28.819   1.281  35.529  1.00  0.00    -0.278 N 
HETATM   40  N2  UNL     1      28.547  -0.027  35.651  1.00  0.00    -0.281 N 
ATOM     41  H1  UNL     1      29.664   1.656  35.099  1.00  0.00     0.189 HD
HETATM   42  C6  UNL     1      27.372  -0.133  36.257  1.00  0.00     0.150 A 
ATOM     43  H2  UNL     1      29.135  -0.798  35.337  1.00  0.00     0.188 HD
HETATM   44  N5  UNL     1      26.941   1.146  36.497  1.00  0.00    -0.319 N 
ATOM     45  H5  UNL     1      26.061   1.389  36.954  1.00  0.00     0.169 HD
BRANCH  42  46
HETATM   46  C7  UNL     1      26.666  -1.350  36.603  1.00  0.00     0.096 A 
HETATM   47  C8  UNL     1      26.076  -2.151  35.616  1.00  0.00     0.122 A 
HETATM   48  N3  UNL     1      25.521  -3.173  36.285  1.00  0.00    -0.360 N 
HETATM   49  C9  UNL     1      25.746  -3.023  37.596  1.00  0.00     0.182 A 
ATOM     50  H3  UNL     1      25.007  -3.945  35.860  1.00  0.00     0.166 HD
HETATM   51  N4  UNL     1      26.466  -1.878  37.807  1.00  0.00    -0.343 N 
HETATM   52  C10 UNL     1      26.893  -1.398  39.110  1.00  0.00     0.157 C 
ENDBRANCH  42  46
ENDBRANCH  37  38
ENDBRANCH   3  37
TORSDOF 11
ENDMDL
MODEL 4
REMARK VINA RESULT: -7.663437753      4.542     10.780
REMARK  11 active torsions:
REMARK  status: ('A' for Active; 'I' for Inactive)
REMARK    1  A    between atoms: O1_2  and  C2_3 
REMARK    2  A    between atoms: C2_3  and  C3_5 
REMARK    3  A    between atoms: C4_7  and  S2_8 
REMARK    4  A    between atoms: S2_8  and  C5_9 
REMARK    5  A    between atoms: C6_14  and  C7_15 
REMARK    6  A    between atoms: C11_26  and  S3_27 
REMARK    7  A    between atoms: S3_27  and  N7_30 
REMARK    8  A    between atoms: N7_30  and  N8_32 
REMARK    9  A    between atoms: C12_34  and  C13_35 
REMARK   10  A    between atoms: C12_34  and  C19_41 
REMARK   11  A    between atoms: N10_46  and  O6_47 
ROOT
HETATM    1  C3  UNL     1      26.847   6.016  32.621  1.00  0.00     0.122 A 
HETATM    2  S1  UNL     1      27.596   5.807  34.177  1.00  0.00    -0.056 SA
HETATM    3  C4  UNL     1      27.883   4.128  34.097  1.00  0.00     0.121 A 
HETATM    4  N6  UNL     1      27.405   3.828  32.925  1.00  0.00    -0.333 N 
ATOM      5  H6  UNL     1      27.443   2.861  32.605  1.00  0.00     0.168 HD
HETATM    6  C11 UNL     1      26.878   4.736  32.150  1.00  0.00     0.175 A 
ENDROOT
BRANCH   6   7
HETATM    7  S3  UNL     1      26.186   4.301  30.562  1.00  0.00     0.293 S 
HETATM    8  O3  UNL     1      26.192   2.832  30.343  1.00  0.00    -0.197 OA
HETATM    9  O4  UNL     1      27.059   4.881  29.458  1.00  0.00    -0.197 OA
BRANCH   7  10
HETATM   10  N7  UNL     1      24.632   5.013  30.365  1.00  0.00    -0.221 N 
ATOM     11  H7  UNL     1      24.415   5.520  29.506  1.00  0.00     0.200 HD
BRANCH  10  12
HETATM   12  N8  UNL     1      23.678   4.909  31.351  1.00  0.00    -0.287 N 
HETATM   13  C12 UNL     1      22.646   4.047  31.256  1.00  0.00     0.103 C 
ATOM     14  H8  UNL     1      23.754   5.500  32.177  1.00  0.00     0.188 HD
BRANCH  13  15
HETATM   15  C13 UNL     1      21.771   4.110  32.406  1.00  0.00    -0.004 A 
HETATM   16  C14 UNL     1      20.401   4.039  32.348  1.00  0.00     0.014 A 
HETATM   17  C15 UNL     1      19.611   4.048  33.476  1.00  0.00     0.001 A 
HETATM   18  C16 UNL     1      20.175   4.131  34.737  1.00  0.00     0.000 A 
HETATM   19  C17 UNL     1      21.551   4.204  34.815  1.00  0.00     0.001 A 
HETATM   20  C18 UNL     1      22.337   4.196  33.697  1.00  0.00     0.014 A 
ENDBRANCH  13  15
BRANCH  13  21
HETATM   21  C19 UNL     1      22.524   3.287  30.048  1.00  0.00     0.144 A 
HETATM   22  N9  UNL     1      23.238   2.098  29.964  1.00  0.00    -0.290 N 
HETATM   23  C20 UNL     1      23.142   1.266  28.942  1.00  0.00     0.356 A 
ATOM     24  H9  UNL     1      23.868   1.856  30.729  1.00  0.00     0.172 HD
HETATM   25  O5  UNL     1      23.797   0.176  28.867  1.00  0.00    -0.244 OA
HETATM   26  N10 UNL     1      22.330   1.530  27.905  1.00  0.00    -0.118 N 
HETATM   27  C21 UNL     1      21.631   2.664  27.960  1.00  0.00     0.358 A 
HETATM   28  O7  UNL     1      20.857   2.944  27.002  1.00  0.00    -0.244 OA
HETATM   29  N11 UNL     1      21.726   3.536  29.027  1.00  0.00    -0.286 N 
HETATM   30  C22 UNL     1      20.798   4.656  29.005  1.00  0.00     0.163 C 
BRANCH  26  31
HETATM   31  O6  UNL     1      22.225   0.670  26.834  1.00  0.00    -0.275 OA
ATOM     32  H6  UNL     1      21.382   0.361  26.525  1.00  0.00     0.245 HD
ENDBRANCH  26  31
ENDBRANCH  13  21
ENDBRANCH  10  12
ENDBRANCH   7  10
ENDBRANCH   6   7
BRANCH   1  33
HETATM   33  C2  UNL     1      26.374   7.275  32.076  1.00  0.00     0.303 C 
HETATM   34  O2  UNL     1      25.128   7.539  32.215  1.00  0.00    -0.259 OA
BRANCH  33  35
HETATM   35  O1  UNL     1      27.139   8.189  31.439  1.00  0.00    -0.322 OA
HETATM   36  C1  UNL     1      27.078   8.547  30.091  1.00  0.00     0.213 C 
ENDBRANCH  33  35
ENDBRANCH   1  33
BRANCH   3  37
HETATM   37  S2  UNL     1      28.657   3.057  35.341  1.00  0.00    -0.027 SA
BRANCH  37  38
HETATM   38  C5  UNL     1      27.361   1.920  35.879  1.00  0.00     0.167 A 
HETATM   39  N1  UNL     1      26.053   2.160  36.033  1.00  0.00    -0.278 N 
HETATM   40  N2  UNL     1      25.405   1.063  36.452  1.00  0.00    -0.281 N 
ATOM     41  H1  UNL     1      25.607   3.060  35.855  1.00  0.00     0.189 HD
HETATM   42  C6  UNL     1      26.302   0.094  36.571  1.00  0.00     0.150 A 
ATOM     43  H2  UNL     1      24.406   0.987  36.642  1.00  0.00     0.188 HD
HETATM   44  N5  UNL     1      27.510   0.634  36.216  1.00  0.00    -0.319 N 
ATOM     45  H5  UNL     1      28.396   0.129  36.208  1.00  0.00     0.169 HD
BRANCH  42  46
HETATM   46  C7  UNL     1      26.072  -1.272  36.996  1.00  0.00     0.096 A 
HETATM   47  C8  UNL     1      25.792  -2.283  36.066  1.00  0.00     0.122 A 
HETATM   48  N3  UNL     1      25.638  -3.396  36.800  1.00  0.00    -0.360 N 
HETATM   49  C9  UNL     1      25.808  -3.105  38.095  1.00  0.00     0.182 A 
ATOM     50  H3  UNL     1      25.425  -4.321  36.428  1.00  0.00     0.166 HD
HETATM   51  N4  UNL     1      26.081  -1.770  38.230  1.00  0.00    -0.343 N 
HETATM   52  C10 UNL     1      26.324  -1.099  39.495  1.00  0.00     0.157 C 
ENDBRANCH  42  46
ENDBRANCH  37  38
ENDBRANCH   3  37
TORSDOF 11
ENDMDL
MODEL 5
REMARK VINA RESULT: -7.662851938      3.432      9.941
REMARK  11 active torsions:
REMARK  status: ('A' for Active; 'I' for Inactive)
REMARK    1  A    between atoms: O1_2  and  C2_3 
REMARK    2  A    between atoms: C2_3  and  C3_5 
REMARK    3  A    between atoms: C4_7  and  S2_8 
REMARK    4  A    between atoms: S2_8  and  C5_9 
REMARK    5  A    between atoms: C6_14  and  C7_15 
REMARK    6  A    between atoms: C11_26  and  S3_27 
REMARK    7  A    between atoms: S3_27  and  N7_30 
REMARK    8  A    between atoms: N7_30  and  N8_32 
REMARK    9  A    between atoms: C12_34  and  C13_35 
REMARK   10  A    between atoms: C12_34  and  C19_41 
REMARK   11  A    between atoms: N10_46  and  O6_47 
ROOT
HETATM    1  C3  UNL     1      26.107   5.923  30.390  1.00  0.00     0.122 A 
HETATM    2  S1  UNL     1      27.493   5.089  31.029  1.00  0.00    -0.056 SA
HETATM    3  C4  UNL     1      26.909   4.795  32.604  1.00  0.00     0.121 A 
HETATM    4  N6  UNL     1      25.726   5.333  32.558  1.00  0.00    -0.333 N 
ATOM      5  H6  UNL     1      25.134   5.306  33.388  1.00  0.00     0.168 HD
HETATM    6  C11 UNL     1      25.279   5.909  31.475  1.00  0.00     0.175 A 
ENDROOT
BRANCH   6   7
HETATM    7  S3  UNL     1      23.670   6.683  31.441  1.00  0.00     0.293 S 
HETATM    8  O3  UNL     1      23.753   8.107  31.031  1.00  0.00    -0.197 OA
HETATM    9  O4  UNL     1      23.090   6.697  32.849  1.00  0.00    -0.197 OA
BRANCH   7  10
HETATM   10  N7  UNL     1      22.577   5.761  30.484  1.00  0.00    -0.221 N 
ATOM     11  H7  UNL     1      22.125   4.939  30.886  1.00  0.00     0.200 HD
BRANCH  10  12
HETATM   12  N8  UNL     1      22.305   6.117  29.183  1.00  0.00    -0.287 N 
HETATM   13  C12 UNL     1      22.277   5.210  28.186  1.00  0.00     0.103 C 
ATOM     14  H8  UNL     1      22.118   7.095  28.967  1.00  0.00     0.188 HD
BRANCH  13  15
HETATM   15  C13 UNL     1      21.971   5.811  26.906  1.00  0.00    -0.004 A 
HETATM   16  C14 UNL     1      20.959   5.400  26.074  1.00  0.00     0.014 A 
HETATM   17  C15 UNL     1      20.670   6.040  24.890  1.00  0.00     0.001 A 
HETATM   18  C16 UNL     1      21.400   7.141  24.481  1.00  0.00     0.000 A 
HETATM   19  C17 UNL     1      22.422   7.568  25.304  1.00  0.00     0.001 A 
HETATM   20  C18 UNL     1      22.711   6.935  26.480  1.00  0.00     0.014 A 
ENDBRANCH  13  15
BRANCH  13  21
HETATM   21  C19 UNL     1      22.621   3.858  28.509  1.00  0.00     0.144 A 
HETATM   22  N9  UNL     1      23.973   3.541  28.582  1.00  0.00    -0.290 N 
HETATM   23  C20 UNL     1      24.419   2.354  28.956  1.00  0.00     0.356 A 
ATOM     24  H9  UNL     1      24.653   4.259  28.335  1.00  0.00     0.172 HD
HETATM   25  O5  UNL     1      25.658   2.066  29.023  1.00  0.00    -0.244 OA
HETATM   26  N10 UNL     1      23.572   1.368  29.292  1.00  0.00    -0.118 N 
HETATM   27  C21 UNL     1      22.269   1.646  29.233  1.00  0.00     0.358 A 
HETATM   28  O7  UNL     1      21.444   0.741  29.544  1.00  0.00    -0.244 OA
HETATM   29  N11 UNL     1      21.798   2.884  28.846  1.00  0.00    -0.286 N 
HETATM   30  C22 UNL     1      20.360   3.073  28.967  1.00  0.00     0.163 C 
BRANCH  26  31
HETATM   31  O6  UNL     1      24.028   0.127  29.681  1.00  0.00    -0.275 OA
ATOM     32  H6  UNL     1      24.867  -0.208  29.389  1.00  0.00     0.245 HD
ENDBRANCH  26  31
ENDBRANCH  13  21
ENDBRANCH  10  12
ENDBRANCH   7  10
ENDBRANCH   6   7
BRANCH   1  33
HETATM   33  C2  UNL     1      25.980   6.434  29.037  1.00  0.00     0.303 C 
HETATM   34  O2  UNL     1      26.017   5.579  28.085  1.00  0.00    -0.259 OA
BRANCH  33  35
HETATM   35  O1  UNL     1      25.825   7.734  28.704  1.00  0.00    -0.322 OA
HETATM   36  C1  UNL     1      26.596   8.815  29.139  1.00  0.00     0.213 C 
ENDBRANCH  33  35
ENDBRANCH   1  33
BRANCH   3  37
HETATM   37  S2  UNL     1      27.743   3.947  33.974  1.00  0.00    -0.027 SA
BRANCH  37  38
HETATM   38  C5  UNL     1      28.732   5.213  34.801  1.00  0.00     0.167 A 
HETATM   39  N1  UNL     1      29.444   5.108  35.929  1.00  0.00    -0.278 N 
HETATM   40  N2  UNL     1      30.047   6.267  36.230  1.00  0.00    -0.281 N 
ATOM     41  H1  UNL     1      29.519   4.257  36.487  1.00  0.00     0.189 HD
HETATM   42  C6  UNL     1      29.724   7.140  35.286  1.00  0.00     0.150 A 
ATOM     43  H2  UNL     1      30.644   6.446  37.037  1.00  0.00     0.188 HD
HETATM   44  N5  UNL     1      28.908   6.478  34.405  1.00  0.00    -0.319 N 
ATOM     45  H5  UNL     1      28.495   6.890  33.569  1.00  0.00     0.169 HD
BRANCH  42  46
HETATM   46  C7  UNL     1      30.137   8.525  35.187  1.00  0.00     0.096 A 
HETATM   47  C8  UNL     1      29.755   9.466  36.153  1.00  0.00     0.122 A 
HETATM   48  N3  UNL     1      30.306  10.621  35.748  1.00  0.00    -0.360 N 
HETATM   49  C9  UNL     1      30.984  10.419  34.612  1.00  0.00     0.182 A 
ATOM     50  H3  UNL     1      30.221  11.515  36.232  1.00  0.00     0.166 HD
HETATM   51  N4  UNL     1      30.884   9.102  34.250  1.00  0.00    -0.343 N 
HETATM   52  C10 UNL     1      31.497   8.521  33.068  1.00  0.00     0.157 C 
ENDBRANCH  42  46
ENDBRANCH  37  38
ENDBRANCH   3  37
TORSDOF 11
ENDMDL
