MODEL 1
REMARK VINA RESULT: -7.763227948      0.000      0.000
REMARK  5 active torsions:
REMARK  status: ('A' for Active; 'I' for Inactive)
REMARK       I    between atoms: C1_2  and  N1_3 
REMARK       I    between atoms: C1_2  and  N3_23 
REMARK    1  A    between atoms: N1_3  and  C2_5 
REMARK    2  A    between atoms: C2_5  and  C3_6 
REMARK    3  A    between atoms: C6_9  and  N2_10 
REMARK    4  A    between atoms: N2_10  and  S1_12 
REMARK    5  A    between atoms: S1_12  and  C7_15 
ROOT
HETATM    1  C3  UNL     1      29.353   1.797   5.906  1.00  0.00     0.139 C 
HETATM    2  C4  UNL     1      30.070   2.147   4.631  1.00  0.00     0.036 C 
HETATM    3  C5  UNL     1      29.018   2.107   3.521  1.00  0.00     0.030 C 
HETATM    4  C6  UNL     1      28.206   0.874   3.650  1.00  0.00     0.117 C 
HETATM    5  C11 UNL     1      28.859  -0.104   4.656  1.00  0.00     0.194 C 
HETATM    6  O4  UNL     1      29.051   0.454   5.890  1.00  0.00    -0.382 OA
ENDROOT
BRANCH   4   7
HETATM    7  N2  UNL     1      26.904   1.176   4.190  1.00  0.00    -0.308 N 
ATOM      8  H2  UNL     1      26.600   0.904   5.125  1.00  0.00     0.172 HD
BRANCH   7   9
HETATM    9  S1  UNL     1      25.944   2.023   3.110  1.00  0.00     0.265 S 
HETATM   10  O2  UNL     1      24.522   1.507   3.122  1.00  0.00    -0.200 OA
HETATM   11  O3  UNL     1      26.498   1.759   1.706  1.00  0.00    -0.200 OA
BRANCH   9  12
HETATM   12  C7  UNL     1      25.977   3.753   3.298  1.00  0.00     0.121 A 
HETATM   13  C8  UNL     1      25.018   4.688   3.539  1.00  0.00     0.052 A 
HETATM   14  C9  UNL     1      25.388   5.983   3.608  1.00  0.00     0.019 A 
HETATM   15 BR1  UNL     1      24.143   7.445   3.946  1.00  0.00    -0.051 Br
HETATM   16  C10 UNL     1      26.711   6.267   3.431  1.00  0.00     0.070 A 
HETATM   17  S2  UNL     1      27.404   4.736   3.173  1.00  0.00    -0.087 SA
ENDBRANCH   9  12
ENDBRANCH   7   9
ENDBRANCH   4   7
BRANCH   1  18
HETATM   18  C2  UNL     1      30.196   2.094   7.131  1.00  0.00     0.156 C 
BRANCH  18  19
HETATM   19  N1  UNL     1      29.489   1.770   8.328  1.00  0.00    -0.341 N 
HETATM   20  C1  UNL     1      30.036   0.873   9.281  1.00  0.00     0.318 C 
HETATM   21  O1  UNL     1      31.170   0.351   9.063  1.00  0.00    -0.247 OA
HETATM   22  N3  UNL     1      29.341   0.547  10.469  1.00  0.00    -0.334 N 
HETATM   23  C12 UNL     1      28.048   1.070  10.836  1.00  0.00     0.127 C 
HETATM   24  C15 UNL     1      29.787  -0.343  11.507  1.00  0.00     0.127 C 
HETATM   25  C13 UNL     1      28.045   1.068  12.352  1.00  0.00     0.022 C 
HETATM   26  C14 UNL     1      29.170   0.173  12.783  1.00  0.00     0.022 C 
ATOM     27  H1  UNL     1      28.575   2.191   8.501  1.00  0.00     0.164 HD
ENDBRANCH  18  19
ENDBRANCH   1  18
TORSDOF 5
ENDMDL
MODEL 2
REMARK VINA RESULT: -7.299965335      0.993      1.287
REMARK  5 active torsions:
REMARK  status: ('A' for Active; 'I' for Inactive)
REMARK       I    between atoms: C1_2  and  N1_3 
REMARK       I    between atoms: C1_2  and  N3_23 
REMARK    1  A    between atoms: N1_3  and  C2_5 
REMARK    2  A    between atoms: C2_5  and  C3_6 
REMARK    3  A    between atoms: C6_9  and  N2_10 
REMARK    4  A    between atoms: N2_10  and  S1_12 
REMARK    5  A    between atoms: S1_12  and  C7_15 
ROOT
HETATM    1  C3  UNL     1      29.169   2.167   5.900  1.00  0.00     0.139 C 
HETATM    2  C4  UNL     1      29.762   2.745   4.645  1.00  0.00     0.036 C 
HETATM    3  C5  UNL     1      28.714   2.552   3.546  1.00  0.00     0.030 C 
HETATM    4  C6  UNL     1      28.188   1.168   3.599  1.00  0.00     0.117 C 
HETATM    5  C11 UNL     1      29.060   0.290   4.527  1.00  0.00     0.194 C 
HETATM    6  O4  UNL     1      29.160   0.794   5.794  1.00  0.00    -0.382 OA
ENDROOT
BRANCH   4   7
HETATM    7  N2  UNL     1      26.865   1.148   4.172  1.00  0.00    -0.308 N 
ATOM      8  H2  UNL     1      26.669   0.879   5.137  1.00  0.00     0.172 HD
BRANCH   7   9
HETATM    9  S1  UNL     1      25.686   1.615   3.078  1.00  0.00     0.265 S 
HETATM   10  O2  UNL     1      24.667   0.516   2.871  1.00  0.00    -0.200 OA
HETATM   11  O3  UNL     1      26.379   1.834   1.730  1.00  0.00    -0.200 OA
BRANCH   9  12
HETATM   12  C7  UNL     1      24.902   3.126   3.444  1.00  0.00     0.121 A 
HETATM   13  C8  UNL     1      25.275   4.429   3.321  1.00  0.00     0.052 A 
HETATM   14  C9  UNL     1      24.414   5.383   3.728  1.00  0.00     0.019 A 
HETATM   15 BR1  UNL     1      24.789   7.293   3.622  1.00  0.00    -0.051 Br
HETATM   16  C10 UNL     1      23.217   4.970   4.240  1.00  0.00     0.070 A 
HETATM   17  S2  UNL     1      23.319   3.276   4.143  1.00  0.00    -0.087 SA
ENDBRANCH   9  12
ENDBRANCH   7   9
ENDBRANCH   4   7
BRANCH   1  18
HETATM   18  C2  UNL     1      29.960   2.558   7.133  1.00  0.00     0.156 C 
BRANCH  18  19
HETATM   19  N1  UNL     1      29.318   2.093   8.320  1.00  0.00    -0.341 N 
HETATM   20  C1  UNL     1      29.949   1.150   9.172  1.00  0.00     0.318 C 
HETATM   21  O1  UNL     1      31.100   0.715   8.872  1.00  0.00    -0.247 OA
HETATM   22  N3  UNL     1      29.318   0.685  10.350  1.00  0.00    -0.334 N 
HETATM   23  C12 UNL     1      28.014   1.099  10.804  1.00  0.00     0.127 C 
HETATM   24  C15 UNL     1      29.851  -0.264  11.291  1.00  0.00     0.127 C 
HETATM   25  C13 UNL     1      28.069   0.968  12.313  1.00  0.00     0.022 C 
HETATM   26  C14 UNL     1      29.257   0.104  12.626  1.00  0.00     0.022 C 
ATOM     27  H1  UNL     1      28.390   2.444   8.560  1.00  0.00     0.164 HD
ENDBRANCH  18  19
ENDBRANCH   1  18
TORSDOF 5
ENDMDL
MODEL 3
REMARK VINA RESULT: -7.124153054      1.304      1.783
REMARK  5 active torsions:
REMARK  status: ('A' for Active; 'I' for Inactive)
REMARK       I    between atoms: C1_2  and  N1_3 
REMARK       I    between atoms: C1_2  and  N3_23 
REMARK    1  A    between atoms: N1_3  and  C2_5 
REMARK    2  A    between atoms: C2_5  and  C3_6 
REMARK    3  A    between atoms: C6_9  and  N2_10 
REMARK    4  A    between atoms: N2_10  and  S1_12 
REMARK    5  A    between atoms: S1_12  and  C7_15 
ROOT
HETATM    1  C3  UNL     1      29.582   0.507   4.624  1.00  0.00     0.139 C 
HETATM    2  C4  UNL     1      29.858   0.976   3.223  1.00  0.00     0.036 C 
HETATM    3  C5  UNL     1      28.554   1.595   2.713  1.00  0.00     0.030 C 
HETATM    4  C6  UNL     1      27.420   0.695   3.028  1.00  0.00     0.117 C 
HETATM    5  C11 UNL     1      27.936  -0.689   3.490  1.00  0.00     0.194 C 
HETATM    6  O4  UNL     1      28.776  -0.609   4.567  1.00  0.00    -0.382 OA
ENDROOT
BRANCH   4   7
HETATM    7  N2  UNL     1      26.651   1.213   4.132  1.00  0.00    -0.308 N 
ATOM      8  H2  UNL     1      26.885   1.051   5.112  1.00  0.00     0.172 HD
BRANCH   7   9
HETATM    9  S1  UNL     1      25.331   2.111   3.627  1.00  0.00     0.265 S 
HETATM   10  O2  UNL     1      24.083   1.728   4.393  1.00  0.00    -0.200 OA
HETATM   11  O3  UNL     1      25.074   1.755   2.159  1.00  0.00    -0.200 OA
BRANCH   9  12
HETATM   12  C7  UNL     1      25.564   3.836   3.647  1.00  0.00     0.121 A 
HETATM   13  C8  UNL     1      24.713   4.897   3.701  1.00  0.00     0.052 A 
HETATM   14  C9  UNL     1      25.235   6.140   3.678  1.00  0.00     0.019 A 
HETATM   15 BR1  UNL     1      24.160   7.765   3.748  1.00  0.00    -0.051 Br
HETATM   16  C10 UNL     1      26.595   6.248   3.604  1.00  0.00     0.070 A 
HETATM   17  S2  UNL     1      27.109   4.628   3.565  1.00  0.00    -0.087 SA
ENDBRANCH   9  12
ENDBRANCH   7   9
ENDBRANCH   4   7
BRANCH   1  18
HETATM   18  C2  UNL     1      30.856   0.151   5.365  1.00  0.00     0.156 C 
BRANCH  18  19
HETATM   19  N1  UNL     1      30.629   0.090   6.772  1.00  0.00    -0.341 N 
HETATM   20  C1  UNL     1      29.806   1.046   7.422  1.00  0.00     0.318 C 
HETATM   21  O1  UNL     1      29.266   1.967   6.740  1.00  0.00    -0.247 OA
HETATM   22  N3  UNL     1      29.576   0.992   8.817  1.00  0.00    -0.334 N 
HETATM   23  C12 UNL     1      30.128  -0.001   9.704  1.00  0.00     0.127 C 
HETATM   24  C15 UNL     1      28.766   1.897   9.589  1.00  0.00     0.127 C 
HETATM   25  C13 UNL     1      29.116  -0.124  10.827  1.00  0.00     0.022 C 
HETATM   26  C14 UNL     1      28.233   1.087  10.743  1.00  0.00     0.022 C 
ATOM     27  H1  UNL     1      31.065  -0.652   7.320  1.00  0.00     0.164 HD
ENDBRANCH  18  19
ENDBRANCH   1  18
TORSDOF 5
ENDMDL
MODEL 4
REMARK VINA RESULT: -7.074315700      2.077      2.465
REMARK  5 active torsions:
REMARK  status: ('A' for Active; 'I' for Inactive)
REMARK       I    between atoms: C1_2  and  N1_3 
REMARK       I    between atoms: C1_2  and  N3_23 
REMARK    1  A    between atoms: N1_3  and  C2_5 
REMARK    2  A    between atoms: C2_5  and  C3_6 
REMARK    3  A    between atoms: C6_9  and  N2_10 
REMARK    4  A    between atoms: N2_10  and  S1_12 
REMARK    5  A    between atoms: S1_12  and  C7_15 
ROOT
HETATM    1  C3  UNL     1      29.635   1.475   5.469  1.00  0.00     0.139 C 
HETATM    2  C4  UNL     1      29.453   0.733   4.174  1.00  0.00     0.036 C 
HETATM    3  C5  UNL     1      29.062   1.781   3.130  1.00  0.00     0.030 C 
HETATM    4  C6  UNL     1      28.007   2.663   3.682  1.00  0.00     0.117 C 
HETATM    5  C11 UNL     1      27.435   2.072   4.993  1.00  0.00     0.194 C 
HETATM    6  O4  UNL     1      28.397   1.854   5.940  1.00  0.00    -0.382 OA
ENDROOT
BRANCH   4   7
HETATM    7  N2  UNL     1      28.554   3.948   4.039  1.00  0.00    -0.308 N 
ATOM      8  H2  UNL     1      29.340   4.072   4.678  1.00  0.00     0.172 HD
BRANCH   7   9
HETATM    9  S1  UNL     1      27.755   5.215   3.288  1.00  0.00     0.265 S 
HETATM   10  O2  UNL     1      28.090   5.274   1.814  1.00  0.00    -0.200 OA
HETATM   11  O3  UNL     1      28.276   6.513   3.912  1.00  0.00    -0.200 OA
BRANCH   9  12
HETATM   12  C7  UNL     1      26.032   5.245   3.533  1.00  0.00     0.121 A 
HETATM   13  C8  UNL     1      25.090   4.276   3.687  1.00  0.00     0.052 A 
HETATM   14  C9  UNL     1      23.804   4.651   3.840  1.00  0.00     0.019 A 
HETATM   15 BR1  UNL     1      22.332   3.393   4.073  1.00  0.00    -0.051 Br
HETATM   16  C10 UNL     1      23.535   5.990   3.831  1.00  0.00     0.070 A 
HETATM   17  S2  UNL     1      25.068   6.689   3.610  1.00  0.00    -0.087 SA
ENDBRANCH   9  12
ENDBRANCH   7   9
ENDBRANCH   4   7
BRANCH   1  18
HETATM   18  C2  UNL     1      30.318   0.622   6.521  1.00  0.00     0.156 C 
BRANCH  18  19
HETATM   19  N1  UNL     1      29.599   0.659   7.753  1.00  0.00    -0.341 N 
HETATM   20  C1  UNL     1      30.152   0.111   8.939  1.00  0.00     0.318 C 
HETATM   21  O1  UNL     1      31.302  -0.419   8.901  1.00  0.00    -0.247 OA
HETATM   22  N3  UNL     1      29.445   0.144  10.165  1.00  0.00    -0.334 N 
HETATM   23  C12 UNL     1      28.134   0.716  10.343  1.00  0.00     0.127 C 
HETATM   24  C15 UNL     1      29.896  -0.375  11.429  1.00  0.00     0.127 C 
HETATM   25  C13 UNL     1      28.105   1.177  11.787  1.00  0.00     0.022 C 
HETATM   26  C14 UNL     1      29.245   0.488  12.481  1.00  0.00     0.022 C 
ATOM     27  H1  UNL     1      28.672   1.086   7.782  1.00  0.00     0.164 HD
ENDBRANCH  18  19
ENDBRANCH   1  18
TORSDOF 5
ENDMDL
MODEL 5
REMARK VINA RESULT: -6.614487371      3.867      8.291
REMARK  5 active torsions:
REMARK  status: ('A' for Active; 'I' for Inactive)
REMARK       I    between atoms: C1_2  and  N1_3 
REMARK       I    between atoms: C1_2  and  N3_23 
REMARK    1  A    between atoms: N1_3  and  C2_5 
REMARK    2  A    between atoms: C2_5  and  C3_6 
REMARK    3  A    between atoms: C6_9  and  N2_10 
REMARK    4  A    between atoms: N2_10  and  S1_12 
REMARK    5  A    between atoms: S1_12  and  C7_15 
ROOT
HETATM    1  C3  UNL     1      28.053   1.051   5.026  1.00  0.00     0.139 C 
HETATM    2  C4  UNL     1      29.361   0.544   4.485  1.00  0.00     0.036 C 
HETATM    3  C5  UNL     1      30.193   0.121   5.698  1.00  0.00     0.030 C 
HETATM    4  C6  UNL     1      30.131   1.176   6.735  1.00  0.00     0.117 C 
HETATM    5  C11 UNL     1      29.511   2.471   6.158  1.00  0.00     0.194 C 
HETATM    6  O4  UNL     1      28.266   2.271   5.627  1.00  0.00    -0.382 OA
ENDROOT
BRANCH   4   7
HETATM    7  N2  UNL     1      29.265   0.778   7.817  1.00  0.00    -0.308 N 
ATOM      8  H2  UNL     1      28.253   0.906   7.809  1.00  0.00     0.172 HD
BRANCH   7   9
HETATM    9  S1  UNL     1      30.105   0.080   9.086  1.00  0.00     0.265 S 
HETATM   10  O2  UNL     1      31.543   0.552   9.115  1.00  0.00    -0.200 OA
HETATM   11  O3  UNL     1      30.142  -1.431   8.831  1.00  0.00    -0.200 OA
BRANCH   9  12
HETATM   12  C7  UNL     1      29.362   0.263  10.649  1.00  0.00     0.121 A 
HETATM   13  C8  UNL     1      29.577  -0.313  11.863  1.00  0.00     0.052 A 
HETATM   14  C9  UNL     1      28.786   0.050  12.894  1.00  0.00     0.019 A 
HETATM   15 BR1  UNL     1      28.959  -0.676  14.695  1.00  0.00    -0.051 Br
HETATM   16  C10 UNL     1      27.817   0.978  12.644  1.00  0.00     0.070 A 
HETATM   17  S2  UNL     1      28.027   1.322  10.993  1.00  0.00    -0.087 SA
ENDBRANCH   9  12
ENDBRANCH   7   9
ENDBRANCH   4   7
BRANCH   1  18
HETATM   18  C2  UNL     1      27.014   1.218   3.934  1.00  0.00     0.156 C 
BRANCH  18  19
HETATM   19  N1  UNL     1      26.819   2.597   3.623  1.00  0.00    -0.341 N 
HETATM   20  C1  UNL     1      25.571   3.231   3.858  1.00  0.00     0.318 C 
HETATM   21  O1  UNL     1      24.617   2.559   4.352  1.00  0.00    -0.247 OA
HETATM   22  N3  UNL     1      25.370   4.598   3.552  1.00  0.00    -0.334 N 
HETATM   23  C12 UNL     1      26.370   5.470   2.988  1.00  0.00     0.127 C 
HETATM   24  C15 UNL     1      24.159   5.350   3.743  1.00  0.00     0.127 C 
HETATM   25  C13 UNL     1      26.010   6.852   3.498  1.00  0.00     0.022 C 
HETATM   26  C14 UNL     1      24.596   6.771   3.996  1.00  0.00     0.022 C 
ATOM     27  H1  UNL     1      27.588   3.136   3.224  1.00  0.00     0.164 HD
ENDBRANCH  18  19
ENDBRANCH   1  18
TORSDOF 5
ENDMDL
