MODEL 1
REMARK VINA RESULT: -8.311449431      0.000      0.000
REMARK  11 active torsions:
REMARK  status: ('A' for Active; 'I' for Inactive)
REMARK    1  A    between atoms: C4_11  and  C5_12 
REMARK    2  A    between atoms: C5_12  and  C6_13 
REMARK    3  A    between atoms: C6_13  and  N4_14 
REMARK    4  A    between atoms: C9_17  and  C10_18 
REMARK    5  A    between atoms: C10_18  and  N5_19 
REMARK    6  A    between atoms: N5_19  and  C11_21 
REMARK    7  A    between atoms: C11_21  and  N6_23 
REMARK    8  A    between atoms: N6_23  and  C12_25 
REMARK    9  A    between atoms: C12_25  and  C13_26 
REMARK   10  A    between atoms: C13_26  and  C14_27 
REMARK   11  A    between atoms: C14_27  and  N7_28 
ROOT
HETATM    1  N4  UNL     1      30.282  10.331   1.750  1.00  0.00    -0.374 N 
HETATM    2  C7  UNL     1      30.537   9.394   2.831  1.00  0.00     0.127 C 
HETATM    3  C8  UNL     1      32.008   9.012   2.810  1.00  0.00     0.027 C 
HETATM    4  C9  UNL     1      32.858  10.201   3.123  1.00  0.00     0.010 C 
HETATM    5  C20 UNL     1      32.361  11.450   2.535  1.00  0.00     0.051 C 
HETATM    6  C21 UNL     1      31.093  11.467   1.786  1.00  0.00     0.063 C 
ENDROOT
BRANCH   4   7
HETATM    7  C10 UNL     1      33.038  10.308   4.635  1.00  0.00     0.127 C 
BRANCH   7   8
HETATM    8  N5  UNL     1      34.162   9.575   5.126  1.00  0.00    -0.367 N 
ATOM      9  H5  UNL     1      34.268   8.623   4.774  1.00  0.00     0.161 HD
BRANCH   8  10
HETATM   10  C11 UNL     1      35.139  10.015   6.040  1.00  0.00     0.167 C 
HETATM   11  S1  UNL     1      34.639  10.823   7.380  1.00  0.00    -0.041 SA
BRANCH  10  12
HETATM   12  N6  UNL     1      36.518   9.797   5.819  1.00  0.00    -0.367 N 
ATOM     13  H6  UNL     1      37.101   9.394   6.552  1.00  0.00     0.161 HD
BRANCH  12  14
HETATM   14  C12 UNL     1      37.091  10.153   4.539  1.00  0.00     0.123 C 
BRANCH  14  15
HETATM   15  C13 UNL     1      37.332   9.002   3.652  1.00  0.00     0.050 C 
BRANCH  15  16
HETATM   16  C14 UNL     1      36.744   8.943   2.313  1.00  0.00     0.274 C 
BRANCH  16  17
HETATM   17  N7  UNL     1      36.327   7.682   1.761  1.00  0.00     0.088 N 
HETATM   18  C15 UNL     1      35.137   8.071   0.926  1.00  0.00     0.272 C 
HETATM   19  C16 UNL     1      34.802   6.863   0.101  1.00  0.00     0.030 C 
HETATM   20  C17 UNL     1      34.202   5.838   1.039  1.00  0.00     0.003 C 
HETATM   21  C18 UNL     1      34.978   5.658   2.287  1.00  0.00     0.030 C 
HETATM   22  C19 UNL     1      35.776   6.839   2.766  1.00  0.00     0.272 C 
ENDBRANCH  16  17
ENDBRANCH  15  16
ENDBRANCH  14  15
ENDBRANCH  12  14
ENDBRANCH  10  12
ENDBRANCH   8  10
ENDBRANCH   7   8
ENDBRANCH   4   7
BRANCH   1  23
HETATM   23  C6  UNL     1      29.937   9.712   0.536  1.00  0.00     0.068 C 
BRANCH  23  24
HETATM   24  C5  UNL     1      30.140  10.552  -0.696  1.00  0.00     0.089 C 
BRANCH  24  25
HETATM   25  C4  UNL     1      30.845   9.744  -1.760  1.00  0.00     0.015 A 
HETATM   26  C2  UNL     1      32.201   9.572  -1.903  1.00  0.00     0.032 A 
HETATM   27  C1  UNL     1      33.254  10.154  -1.025  1.00  0.00     0.070 C 
HETATM   28  N1  UNL     1      32.390   8.780  -2.984  1.00  0.00    -0.303 N 
HETATM   29  N2  UNL     1      31.223   8.453  -3.517  1.00  0.00    -0.285 N 
ATOM     30  H1  UNL     1      33.299   8.479  -3.336  1.00  0.00     0.186 HD
HETATM   31  C3  UNL     1      30.241   9.038  -2.776  1.00  0.00     0.122 A 
ATOM     32  H2  UNL     1      31.083   7.865  -4.340  1.00  0.00     0.188 HD
HETATM   33  N3  UNL     1      28.976   8.947  -2.997  1.00  0.00    -0.384 N 
ATOM     34  H32 UNL     1      28.529   8.425  -3.750  1.00  0.00     0.157 HD
ATOM     35  H31 UNL     1      28.241   9.386  -2.442  1.00  0.00     0.157 HD
ENDBRANCH  24  25
ENDBRANCH  23  24
ENDBRANCH   1  23
TORSDOF 11
ENDMDL
MODEL 2
REMARK VINA RESULT: -8.233901951      0.535      1.447
REMARK  11 active torsions:
REMARK  status: ('A' for Active; 'I' for Inactive)
REMARK    1  A    between atoms: C4_11  and  C5_12 
REMARK    2  A    between atoms: C5_12  and  C6_13 
REMARK    3  A    between atoms: C6_13  and  N4_14 
REMARK    4  A    between atoms: C9_17  and  C10_18 
REMARK    5  A    between atoms: C10_18  and  N5_19 
REMARK    6  A    between atoms: N5_19  and  C11_21 
REMARK    7  A    between atoms: C11_21  and  N6_23 
REMARK    8  A    between atoms: N6_23  and  C12_25 
REMARK    9  A    between atoms: C12_25  and  C13_26 
REMARK   10  A    between atoms: C13_26  and  C14_27 
REMARK   11  A    between atoms: C14_27  and  N7_28 
ROOT
HETATM    1  N4  UNL     1      30.273  10.356   1.799  1.00  0.00    -0.374 N 
HETATM    2  C7  UNL     1      30.532   9.406   2.867  1.00  0.00     0.127 C 
HETATM    3  C8  UNL     1      31.996   9.002   2.819  1.00  0.00     0.027 C 
HETATM    4  C9  UNL     1      32.869  10.175   3.129  1.00  0.00     0.010 C 
HETATM    5  C20 UNL     1      32.381  11.437   2.560  1.00  0.00     0.051 C 
HETATM    6  C21 UNL     1      31.101  11.480   1.833  1.00  0.00     0.063 C 
ENDROOT
BRANCH   4   7
HETATM    7  C10 UNL     1      33.075  10.266   4.639  1.00  0.00     0.127 C 
BRANCH   7   8
HETATM    8  N5  UNL     1      34.222   9.548   5.099  1.00  0.00    -0.367 N 
ATOM      9  H5  UNL     1      34.355   8.614   4.712  1.00  0.00     0.161 HD
BRANCH   8  10
HETATM   10  C11 UNL     1      35.190   9.984   6.024  1.00  0.00     0.167 C 
HETATM   11  S1  UNL     1      34.677  10.779   7.367  1.00  0.00    -0.041 SA
BRANCH  10  12
HETATM   12  N6  UNL     1      36.572   9.772   5.813  1.00  0.00    -0.367 N 
ATOM     13  H6  UNL     1      37.148   9.356   6.544  1.00  0.00     0.161 HD
BRANCH  12  14
HETATM   14  C12 UNL     1      37.157  10.153   4.546  1.00  0.00     0.123 C 
BRANCH  14  15
HETATM   15  C13 UNL     1      37.389   9.022   3.631  1.00  0.00     0.050 C 
BRANCH  15  16
HETATM   16  C14 UNL     1      36.750   8.970   2.315  1.00  0.00     0.274 C 
BRANCH  16  17
HETATM   17  N7  UNL     1      36.327   7.711   1.766  1.00  0.00     0.088 N 
HETATM   18  C15 UNL     1      35.138   8.103   0.931  1.00  0.00     0.272 C 
HETATM   19  C16 UNL     1      34.797   6.896   0.108  1.00  0.00     0.030 C 
HETATM   20  C17 UNL     1      34.193   5.876   1.048  1.00  0.00     0.003 C 
HETATM   21  C18 UNL     1      34.969   5.693   2.296  1.00  0.00     0.030 C 
HETATM   22  C19 UNL     1      35.773   6.872   2.773  1.00  0.00     0.272 C 
ENDBRANCH  16  17
ENDBRANCH  15  16
ENDBRANCH  14  15
ENDBRANCH  12  14
ENDBRANCH  10  12
ENDBRANCH   8  10
ENDBRANCH   7   8
ENDBRANCH   4   7
BRANCH   1  23
HETATM   23  C6  UNL     1      29.900   9.753   0.586  1.00  0.00     0.068 C 
BRANCH  23  24
HETATM   24  C5  UNL     1      30.116  10.594  -0.645  1.00  0.00     0.089 C 
BRANCH  24  25
HETATM   25  C4  UNL     1      30.827   9.784  -1.703  1.00  0.00     0.015 A 
HETATM   26  C2  UNL     1      30.251   9.100  -2.745  1.00  0.00     0.032 A 
HETATM   27  C1  UNL     1      28.792   9.024  -3.041  1.00  0.00     0.070 C 
HETATM   28  N1  UNL     1      31.253   8.516  -3.442  1.00  0.00    -0.303 N 
HETATM   29  N2  UNL     1      32.420   8.802  -2.885  1.00  0.00    -0.285 N 
ATOM     30  H1  UNL     1      31.128   7.939  -4.274  1.00  0.00     0.186 HD
HETATM   31  C3  UNL     1      32.187   9.592  -1.800  1.00  0.00     0.122 A 
ATOM     32  H2  UNL     1      33.333   8.487  -3.213  1.00  0.00     0.188 HD
HETATM   33  N3  UNL     1      33.085  10.065  -1.007  1.00  0.00    -0.384 N 
ATOM     34  H32 UNL     1      34.092   9.923  -1.079  1.00  0.00     0.157 HD
ATOM     35  H31 UNL     1      32.911  10.656  -0.194  1.00  0.00     0.157 HD
ENDBRANCH  24  25
ENDBRANCH  23  24
ENDBRANCH   1  23
TORSDOF 11
ENDMDL
MODEL 3
REMARK VINA RESULT: -8.072560479      2.521      6.648
REMARK  11 active torsions:
REMARK  status: ('A' for Active; 'I' for Inactive)
REMARK    1  A    between atoms: C4_11  and  C5_12 
REMARK    2  A    between atoms: C5_12  and  C6_13 
REMARK    3  A    between atoms: C6_13  and  N4_14 
REMARK    4  A    between atoms: C9_17  and  C10_18 
REMARK    5  A    between atoms: C10_18  and  N5_19 
REMARK    6  A    between atoms: N5_19  and  C11_21 
REMARK    7  A    between atoms: C11_21  and  N6_23 
REMARK    8  A    between atoms: N6_23  and  C12_25 
REMARK    9  A    between atoms: C12_25  and  C13_26 
REMARK   10  A    between atoms: C13_26  and  C14_27 
REMARK   11  A    between atoms: C14_27  and  N7_28 
ROOT
HETATM    1  N4  UNL     1      35.882  11.010   4.613  1.00  0.00    -0.374 N 
HETATM    2  C7  UNL     1      36.078   9.697   5.202  1.00  0.00     0.127 C 
HETATM    3  C8  UNL     1      35.169   8.703   4.498  1.00  0.00     0.027 C 
HETATM    4  C9  UNL     1      35.579   8.548   3.069  1.00  0.00     0.010 C 
HETATM    5  C20 UNL     1      36.011   9.803   2.441  1.00  0.00     0.051 C 
HETATM    6  C21 UNL     1      36.084  11.043   3.232  1.00  0.00     0.063 C 
ENDROOT
BRANCH   4   7
HETATM    7  C10 UNL     1      36.641   7.457   2.964  1.00  0.00     0.127 C 
BRANCH   7   8
HETATM    8  N5  UNL     1      36.340   6.464   1.982  1.00  0.00    -0.367 N 
ATOM      9  H5  UNL     1      37.075   6.261   1.305  1.00  0.00     0.161 HD
BRANCH   8  10
HETATM   10  C11 UNL     1      35.144   5.734   1.842  1.00  0.00     0.167 C 
HETATM   11  S1  UNL     1      35.090   4.208   2.448  1.00  0.00    -0.041 SA
BRANCH  10  12
HETATM   12  N6  UNL     1      34.015   6.272   1.183  1.00  0.00    -0.367 N 
ATOM     13  H6  UNL     1      33.078   6.123   1.557  1.00  0.00     0.161 HD
BRANCH  12  14
HETATM   14  C12 UNL     1      34.206   7.039  -0.029  1.00  0.00     0.123 C 
BRANCH  14  15
HETATM   15  C13 UNL     1      33.631   8.394   0.024  1.00  0.00     0.050 C 
BRANCH  15  16
HETATM   16  C14 UNL     1      32.978   8.985  -1.145  1.00  0.00     0.274 C 
BRANCH  16  17
HETATM   17  N7  UNL     1      31.557   8.858  -1.320  1.00  0.00     0.088 N 
HETATM   18  C15 UNL     1      31.411   8.889  -2.818  1.00  0.00     0.272 C 
HETATM   19  C16 UNL     1      29.992   8.493  -3.101  1.00  0.00     0.030 C 
HETATM   20  C17 UNL     1      29.116   9.653  -2.680  1.00  0.00     0.003 C 
HETATM   21  C18 UNL     1      29.454  10.190  -1.343  1.00  0.00     0.030 C 
HETATM   22  C19 UNL     1      30.881  10.034  -0.890  1.00  0.00     0.272 C 
ENDBRANCH  16  17
ENDBRANCH  15  16
ENDBRANCH  14  15
ENDBRANCH  12  14
ENDBRANCH  10  12
ENDBRANCH   8  10
ENDBRANCH   7   8
ENDBRANCH   4   7
BRANCH   1  23
HETATM   23  C6  UNL     1      34.861  11.757   5.225  1.00  0.00     0.068 C 
BRANCH  23  24
HETATM   24  C5  UNL     1      33.777  12.245   4.301  1.00  0.00     0.089 C 
BRANCH  24  25
HETATM   25  C4  UNL     1      32.424  11.844   4.839  1.00  0.00     0.015 A 
HETATM   26  C2  UNL     1      31.681  10.748   4.473  1.00  0.00     0.032 A 
HETATM   27  C1  UNL     1      32.072   9.725   3.463  1.00  0.00     0.070 C 
HETATM   28  N1  UNL     1      30.540  10.778   5.200  1.00  0.00    -0.303 N 
HETATM   29  N2  UNL     1      30.537  11.836   5.997  1.00  0.00    -0.285 N 
ATOM     30  H1  UNL     1      29.792  10.087   5.143  1.00  0.00     0.186 HD
HETATM   31  C3  UNL     1      31.698  12.520   5.795  1.00  0.00     0.122 A 
ATOM     32  H2  UNL     1      29.795  12.094   6.648  1.00  0.00     0.188 HD
HETATM   33  N3  UNL     1      32.046  13.606   6.392  1.00  0.00    -0.384 N 
ATOM     34  H32 UNL     1      31.508  14.106   7.100  1.00  0.00     0.157 HD
ATOM     35  H31 UNL     1      32.915  14.118   6.241  1.00  0.00     0.157 HD
ENDBRANCH  24  25
ENDBRANCH  23  24
ENDBRANCH   1  23
TORSDOF 11
ENDMDL
MODEL 4
REMARK VINA RESULT: -8.013612029      4.883      8.434
REMARK  11 active torsions:
REMARK  status: ('A' for Active; 'I' for Inactive)
REMARK    1  A    between atoms: C4_11  and  C5_12 
REMARK    2  A    between atoms: C5_12  and  C6_13 
REMARK    3  A    between atoms: C6_13  and  N4_14 
REMARK    4  A    between atoms: C9_17  and  C10_18 
REMARK    5  A    between atoms: C10_18  and  N5_19 
REMARK    6  A    between atoms: N5_19  and  C11_21 
REMARK    7  A    between atoms: C11_21  and  N6_23 
REMARK    8  A    between atoms: N6_23  and  C12_25 
REMARK    9  A    between atoms: C12_25  and  C13_26 
REMARK   10  A    between atoms: C13_26  and  C14_27 
REMARK   11  A    between atoms: C14_27  and  N7_28 
ROOT
HETATM    1  N4  UNL     1      34.979   9.224   3.421  1.00  0.00    -0.374 N 
HETATM    2  C7  UNL     1      34.337   9.291   2.119  1.00  0.00     0.127 C 
HETATM    3  C8  UNL     1      35.335   8.858   1.058  1.00  0.00     0.027 C 
HETATM    4  C9  UNL     1      35.691   7.417   1.237  1.00  0.00     0.010 C 
HETATM    5  C20 UNL     1      35.811   7.012   2.643  1.00  0.00     0.051 C 
HETATM    6  C21 UNL     1      35.513   7.969   3.721  1.00  0.00     0.063 C 
ENDROOT
BRANCH   4   7
HETATM    7  C10 UNL     1      34.694   6.552   0.471  1.00  0.00     0.127 C 
BRANCH   7   8
HETATM    8  N5  UNL     1      33.958   5.658   1.309  1.00  0.00    -0.367 N 
ATOM      9  H5  UNL     1      33.470   6.079   2.100  1.00  0.00     0.161 HD
BRANCH   8  10
HETATM   10  C11 UNL     1      33.830   4.263   1.169  1.00  0.00     0.167 C 
HETATM   11  S1  UNL     1      34.812   3.299   2.067  1.00  0.00    -0.041 SA
BRANCH  10  12
HETATM   12  N6  UNL     1      32.904   3.686   0.270  1.00  0.00    -0.367 N 
ATOM     13  H6  UNL     1      32.814   4.045  -0.680  1.00  0.00     0.161 HD
BRANCH  12  14
HETATM   14  C12 UNL     1      32.086   2.579   0.716  1.00  0.00     0.123 C 
BRANCH  14  15
HETATM   15  C13 UNL     1      30.872   2.370  -0.091  1.00  0.00     0.050 C 
BRANCH  15  16
HETATM   16  C14 UNL     1      30.672   1.135  -0.850  1.00  0.00     0.274 C 
BRANCH  16  17
HETATM   17  N7  UNL     1      29.426   0.423  -0.757  1.00  0.00     0.088 N 
HETATM   18  C15 UNL     1      28.421   1.481  -1.125  1.00  0.00     0.272 C 
HETATM   19  C16 UNL     1      27.118   0.761  -1.317  1.00  0.00     0.030 C 
HETATM   20  C17 UNL     1      26.638   0.341   0.056  1.00  0.00     0.003 C 
HETATM   21  C18 UNL     1      27.692  -0.296   0.878  1.00  0.00     0.030 C 
HETATM   22  C19 UNL     1      29.112   0.113   0.596  1.00  0.00     0.272 C 
ENDBRANCH  16  17
ENDBRANCH  15  16
ENDBRANCH  14  15
ENDBRANCH  12  14
ENDBRANCH  10  12
ENDBRANCH   8  10
ENDBRANCH   7   8
ENDBRANCH   4   7
BRANCH   1  23
HETATM   23  C6  UNL     1      35.637  10.411   3.787  1.00  0.00     0.068 C 
BRANCH  23  24
HETATM   24  C5  UNL     1      34.739  11.536   4.229  1.00  0.00     0.089 C 
BRANCH  24  25
HETATM   25  C4  UNL     1      34.048  11.165   5.519  1.00  0.00     0.015 A 
HETATM   26  C2  UNL     1      32.734  10.798   5.676  1.00  0.00     0.032 A 
HETATM   27  C1  UNL     1      31.721  10.688   4.589  1.00  0.00     0.070 C 
HETATM   28  N1  UNL     1      32.541  10.557   6.994  1.00  0.00    -0.303 N 
HETATM   29  N2  UNL     1      33.668  10.757   7.661  1.00  0.00    -0.285 N 
ATOM     30  H1  UNL     1      31.658  10.265   7.412  1.00  0.00     0.186 HD
HETATM   31  C3  UNL     1      34.625  11.136   6.769  1.00  0.00     0.122 A 
ATOM     32  H2  UNL     1      33.796  10.646   8.667  1.00  0.00     0.188 HD
HETATM   33  N3  UNL     1      35.848  11.420   7.054  1.00  0.00    -0.384 N 
ATOM     34  H32 UNL     1      36.275  11.399   7.980  1.00  0.00     0.157 HD
ATOM     35  H31 UNL     1      36.565  11.705   6.386  1.00  0.00     0.157 HD
ENDBRANCH  24  25
ENDBRANCH  23  24
ENDBRANCH   1  23
TORSDOF 11
ENDMDL
MODEL 5
REMARK VINA RESULT: -8.007731181      1.474      2.100
REMARK  11 active torsions:
REMARK  status: ('A' for Active; 'I' for Inactive)
REMARK    1  A    between atoms: C4_11  and  C5_12 
REMARK    2  A    between atoms: C5_12  and  C6_13 
REMARK    3  A    between atoms: C6_13  and  N4_14 
REMARK    4  A    between atoms: C9_17  and  C10_18 
REMARK    5  A    between atoms: C10_18  and  N5_19 
REMARK    6  A    between atoms: N5_19  and  C11_21 
REMARK    7  A    between atoms: C11_21  and  N6_23 
REMARK    8  A    between atoms: N6_23  and  C12_25 
REMARK    9  A    between atoms: C12_25  and  C13_26 
REMARK   10  A    between atoms: C13_26  and  C14_27 
REMARK   11  A    between atoms: C14_27  and  N7_28 
ROOT
HETATM    1  N4  UNL     1      30.385  10.472   2.055  1.00  0.00    -0.374 N 
HETATM    2  C7  UNL     1      30.370   9.707   3.289  1.00  0.00     0.127 C 
HETATM    3  C8  UNL     1      31.777   9.668   3.859  1.00  0.00     0.027 C 
HETATM    4  C9  UNL     1      32.212  11.040   4.264  1.00  0.00     0.010 C 
HETATM    5  C20 UNL     1      31.762  12.093   3.346  1.00  0.00     0.051 C 
HETATM    6  C21 UNL     1      30.899  11.762   2.199  1.00  0.00     0.063 C 
ENDROOT
BRANCH   4   7
HETATM    7  C10 UNL     1      31.773  11.305   5.702  1.00  0.00     0.127 C 
BRANCH   7   8
HETATM    8  N5  UNL     1      32.604  10.666   6.674  1.00  0.00    -0.367 N 
ATOM      9  H5  UNL     1      32.124  10.246   7.471  1.00  0.00     0.161 HD
BRANCH   8  10
HETATM   10  C11 UNL     1      34.007  10.549   6.658  1.00  0.00     0.167 C 
HETATM   11  S1  UNL     1      34.899  11.865   7.073  1.00  0.00    -0.041 SA
BRANCH  10  12
HETATM   12  N6  UNL     1      34.651   9.349   6.279  1.00  0.00    -0.367 N 
ATOM     13  H6  UNL     1      34.397   8.465   6.720  1.00  0.00     0.161 HD
BRANCH  12  14
HETATM   14  C12 UNL     1      35.673   9.392   5.256  1.00  0.00     0.123 C 
BRANCH  14  15
HETATM   15  C13 UNL     1      35.440   8.461   4.139  1.00  0.00     0.050 C 
BRANCH  15  16
HETATM   16  C14 UNL     1      36.414   8.321   3.055  1.00  0.00     0.274 C 
BRANCH  16  17
HETATM   17  N7  UNL     1      35.967   8.209   1.693  1.00  0.00     0.088 N 
HETATM   18  C15 UNL     1      34.746   9.088   1.679  1.00  0.00     0.272 C 
HETATM   19  C16 UNL     1      34.369   9.246   0.235  1.00  0.00     0.030 C 
HETATM   20  C17 UNL     1      33.803   7.919  -0.222  1.00  0.00     0.003 C 
HETATM   21  C18 UNL     1      34.629   6.758   0.178  1.00  0.00     0.030 C 
HETATM   22  C19 UNL     1      35.453   6.910   1.427  1.00  0.00     0.272 C 
ENDBRANCH  16  17
ENDBRANCH  15  16
ENDBRANCH  14  15
ENDBRANCH  12  14
ENDBRANCH  10  12
ENDBRANCH   8  10
ENDBRANCH   7   8
ENDBRANCH   4   7
BRANCH   1  23
HETATM   23  C6  UNL     1      30.651   9.697   0.913  1.00  0.00     0.068 C 
BRANCH  23  24
HETATM   24  C5  UNL     1      30.988  10.476  -0.330  1.00  0.00     0.089 C 
BRANCH  24  25
HETATM   25  C4  UNL     1      29.879  10.332  -1.345  1.00  0.00     0.015 A 
HETATM   26  C2  UNL     1      29.859   9.492  -2.432  1.00  0.00     0.032 A 
HETATM   27  C1  UNL     1      30.940   8.545  -2.825  1.00  0.00     0.070 C 
HETATM   28  N1  UNL     1      28.681   9.689  -3.067  1.00  0.00    -0.303 N 
HETATM   29  N2  UNL     1      27.970  10.608  -2.430  1.00  0.00    -0.285 N 
ATOM     30  H1  UNL     1      28.383   9.202  -3.912  1.00  0.00     0.186 HD
HETATM   31  C3  UNL     1      28.691  11.027  -1.352  1.00  0.00     0.122 A 
ATOM     32  H2  UNL     1      27.045  10.943  -2.700  1.00  0.00     0.188 HD
HETATM   33  N3  UNL     1      28.321  11.919  -0.501  1.00  0.00    -0.384 N 
ATOM     34  H32 UNL     1      27.441  12.434  -0.507  1.00  0.00     0.157 HD
ATOM     35  H31 UNL     1      28.861  12.233   0.306  1.00  0.00     0.157 HD
ENDBRANCH  24  25
ENDBRANCH  23  24
ENDBRANCH   1  23
TORSDOF 11
ENDMDL
