MODEL 1
REMARK VINA RESULT: -7.020470534      0.000      0.000
REMARK  6 active torsions:
REMARK  status: ('A' for Active; 'I' for Inactive)
REMARK    1  A    between atoms: C2_2  and  N1_3 
REMARK    2  A    between atoms: N1_3  and  C3_4 
REMARK    3  A    between atoms: N1_3  and  C5_6 
REMARK    4  A    between atoms: C5_6  and  C6_7 
REMARK    5  A    between atoms: C6_7  and  N2_9 
REMARK       I    between atoms: N2_9  and  C8_11 
REMARK    6  A    between atoms: C8_11  and  C9_13 
ROOT
HETATM    1  N2  UNL     1      -1.037  58.067  84.978  1.00  0.00    -0.353 N 
ATOM      2  H2  UNL     1      -1.335  58.278  85.930  1.00  0.00     0.163 HD
HETATM    3  C8  UNL     1      -0.005  58.805  84.363  1.00  0.00     0.250 C 
HETATM    4  O1  UNL     1       0.374  58.551  83.179  1.00  0.00    -0.271 OA
ENDROOT
BRANCH   3   5
HETATM    5  C9  UNL     1       0.675  59.891  85.055  1.00  0.00     0.255 C 
HETATM    6  C10 UNL     1      -0.313  60.731  85.833  1.00  0.00     0.086 C 
HETATM    7  C11 UNL     1       0.127  62.128  85.463  1.00  0.00     0.099 C 
HETATM    8  C12 UNL     1       0.168  62.930  86.747  1.00  0.00     0.041 C 
HETATM    9  C15 UNL     1      -0.795  62.820  84.510  1.00  0.00     0.041 C 
HETATM   10  O2  UNL     1       1.390  61.920  84.940  1.00  0.00    -0.229 OA
HETATM   11  C13 UNL     1      -0.719  64.109  86.475  1.00  0.00     0.003 C 
HETATM   12  C14 UNL     1      -1.707  63.607  85.417  1.00  0.00     0.003 C 
HETATM   13  O3  UNL     1       1.315  60.813  84.233  1.00  0.00    -0.225 OA
ENDBRANCH   3   5
BRANCH   1  14
HETATM   14  C6  UNL     1      -1.670  56.990  84.213  1.00  0.00     0.108 C 
HETATM   15  C7  UNL     1      -3.140  57.035  84.597  1.00  0.00     0.034 C 
BRANCH  14  16
HETATM   16  C5  UNL     1      -1.006  55.732  84.616  1.00  0.00     0.296 C 
BRANCH  16  17
HETATM   17  N1  UNL     1      -0.410  54.908  83.635  1.00  0.00     0.089 N 
BRANCH  17  18
HETATM   18  C2  UNL     1       0.996  55.087  83.422  1.00  0.00     0.268 C 
HETATM   19  C1  UNL     1       1.833  55.508  84.562  1.00  0.00     0.037 C 
ENDBRANCH  17  18
BRANCH  17  20
HETATM   20  C3  UNL     1      -0.529  53.520  84.157  1.00  0.00     0.268 C 
HETATM   21  C4  UNL     1      -1.232  53.469  85.470  1.00  0.00     0.037 C 
ENDBRANCH  17  20
ENDBRANCH  16  17
ENDBRANCH  14  16
ENDBRANCH   1  14
TORSDOF 6
ENDMDL
MODEL 2
REMARK VINA RESULT: -6.976429397      0.725      1.010
REMARK  6 active torsions:
REMARK  status: ('A' for Active; 'I' for Inactive)
REMARK    1  A    between atoms: C2_2  and  N1_3 
REMARK    2  A    between atoms: N1_3  and  C3_4 
REMARK    3  A    between atoms: N1_3  and  C5_6 
REMARK    4  A    between atoms: C5_6  and  C6_7 
REMARK    5  A    between atoms: C6_7  and  N2_9 
REMARK       I    between atoms: N2_9  and  C8_11 
REMARK    6  A    between atoms: C8_11  and  C9_13 
ROOT
HETATM    1  N2  UNL     1      -0.862  58.238  84.942  1.00  0.00    -0.353 N 
ATOM      2  H2  UNL     1      -1.209  58.478  85.871  1.00  0.00     0.163 HD
HETATM    3  C8  UNL     1       0.187  58.970  84.352  1.00  0.00     0.250 C 
HETATM    4  O1  UNL     1       0.627  58.681  83.197  1.00  0.00    -0.271 OA
ENDROOT
BRANCH   3   5
HETATM    5  C9  UNL     1       0.817  60.091  85.036  1.00  0.00     0.255 C 
HETATM    6  C10 UNL     1      -0.203  60.872  85.833  1.00  0.00     0.086 C 
HETATM    7  C11 UNL     1       0.152  62.293  85.461  1.00  0.00     0.099 C 
HETATM    8  C12 UNL     1       0.171  63.093  86.747  1.00  0.00     0.041 C 
HETATM    9  C15 UNL     1      -0.822  62.934  84.526  1.00  0.00     0.041 C 
HETATM   10  O2  UNL     1       1.417  62.157  84.917  1.00  0.00    -0.229 OA
HETATM   11  C13 UNL     1      -0.785  64.221  86.493  1.00  0.00     0.003 C 
HETATM   12  C14 UNL     1      -1.761  63.668  85.450  1.00  0.00     0.003 C 
HETATM   13  O3  UNL     1       1.391  61.049  84.207  1.00  0.00    -0.225 OA
ENDBRANCH   3   5
BRANCH   1  14
HETATM   14  C6  UNL     1      -1.442  57.125  84.186  1.00  0.00     0.108 C 
HETATM   15  C7  UNL     1      -2.946  57.252  84.373  1.00  0.00     0.034 C 
BRANCH  14  16
HETATM   16  C5  UNL     1      -0.891  55.882  84.766  1.00  0.00     0.296 C 
BRANCH  16  17
HETATM   17  N1  UNL     1       0.391  55.435  84.377  1.00  0.00     0.089 N 
BRANCH  17  18
HETATM   18  C2  UNL     1       1.407  55.457  85.389  1.00  0.00     0.268 C 
HETATM   19  C1  UNL     1       2.568  56.347  85.200  1.00  0.00     0.037 C 
ENDBRANCH  17  18
BRANCH  17  20
HETATM   20  C3  UNL     1       0.227  53.992  84.052  1.00  0.00     0.268 C 
HETATM   21  C4  UNL     1       1.412  53.436  83.338  1.00  0.00     0.037 C 
ENDBRANCH  17  20
ENDBRANCH  16  17
ENDBRANCH  14  16
ENDBRANCH   1  14
TORSDOF 6
ENDMDL
MODEL 3
REMARK VINA RESULT: -6.634336730      2.176      3.502
REMARK  6 active torsions:
REMARK  status: ('A' for Active; 'I' for Inactive)
REMARK    1  A    between atoms: C2_2  and  N1_3 
REMARK    2  A    between atoms: N1_3  and  C3_4 
REMARK    3  A    between atoms: N1_3  and  C5_6 
REMARK    4  A    between atoms: C5_6  and  C6_7 
REMARK    5  A    between atoms: C6_7  and  N2_9 
REMARK       I    between atoms: N2_9  and  C8_11 
REMARK    6  A    between atoms: C8_11  and  C9_13 
ROOT
HETATM    1  N2  UNL     1       2.604  56.613  84.518  1.00  0.00    -0.353 N 
ATOM      2  H2  UNL     1       2.784  56.761  83.524  1.00  0.00     0.163 HD
HETATM    3  C8  UNL     1       1.601  57.340  85.188  1.00  0.00     0.250 C 
HETATM    4  O1  UNL     1       1.369  57.164  86.422  1.00  0.00    -0.271 OA
ENDROOT
BRANCH   3   5
HETATM    5  C9  UNL     1       0.783  58.329  84.498  1.00  0.00     0.255 C 
HETATM    6  C10 UNL     1       1.144  59.727  84.945  1.00  0.00     0.086 C 
HETATM    7  C11 UNL     1      -0.223  60.331  85.168  1.00  0.00     0.099 C 
HETATM    8  C12 UNL     1      -0.209  61.701  84.521  1.00  0.00     0.041 C 
HETATM    9  C15 UNL     1      -0.582  60.499  86.609  1.00  0.00     0.041 C 
HETATM   10  O2  UNL     1      -1.056  59.452  84.501  1.00  0.00    -0.229 OA
HETATM   11  C13 UNL     1      -0.610  62.634  85.626  1.00  0.00     0.003 C 
HETATM   12  C14 UNL     1      -0.172  61.919  86.908  1.00  0.00     0.003 C 
HETATM   13  O3  UNL     1      -0.583  58.247  84.743  1.00  0.00    -0.225 OA
ENDBRANCH   3   5
BRANCH   1  14
HETATM   14  C6  UNL     1       3.383  55.637  85.284  1.00  0.00     0.108 C 
HETATM   15  C7  UNL     1       4.835  56.046  85.097  1.00  0.00     0.034 C 
BRANCH  14  16
HETATM   16  C5  UNL     1       3.080  54.306  84.716  1.00  0.00     0.296 C 
BRANCH  16  17
HETATM   17  N1  UNL     1       2.300  54.206  83.542  1.00  0.00     0.089 N 
BRANCH  17  18
HETATM   18  C2  UNL     1       2.851  53.423  82.476  1.00  0.00     0.268 C 
HETATM   19  C1  UNL     1       3.224  52.022  82.752  1.00  0.00     0.037 C 
ENDBRANCH  17  18
BRANCH  17  20
HETATM   20  C3  UNL     1       1.072  53.468  83.944  1.00  0.00     0.268 C 
HETATM   21  C4  UNL     1      -0.132  54.347  83.966  1.00  0.00     0.037 C 
ENDBRANCH  17  20
ENDBRANCH  16  17
ENDBRANCH  14  16
ENDBRANCH   1  14
TORSDOF 6
ENDMDL
MODEL 4
REMARK VINA RESULT: -6.627340224      2.324      7.509
REMARK  6 active torsions:
REMARK  status: ('A' for Active; 'I' for Inactive)
REMARK    1  A    between atoms: C2_2  and  N1_3 
REMARK    2  A    between atoms: N1_3  and  C3_4 
REMARK    3  A    between atoms: N1_3  and  C5_6 
REMARK    4  A    between atoms: C5_6  and  C6_7 
REMARK    5  A    between atoms: C6_7  and  N2_9 
REMARK       I    between atoms: N2_9  and  C8_11 
REMARK    6  A    between atoms: C8_11  and  C9_13 
ROOT
HETATM    1  N2  UNL     1       0.586  59.391  85.321  1.00  0.00    -0.353 N 
ATOM      2  H2  UNL     1       0.617  59.429  86.340  1.00  0.00     0.163 HD
HETATM    3  C8  UNL     1       0.725  58.166  84.639  1.00  0.00     0.250 C 
HETATM    4  O1  UNL     1       0.688  58.106  83.373  1.00  0.00    -0.271 OA
ENDROOT
BRANCH   3   5
HETATM    5  C9  UNL     1       0.919  56.911  85.353  1.00  0.00     0.255 C 
HETATM    6  C10 UNL     1       2.161  56.203  84.862  1.00  0.00     0.086 C 
HETATM    7  C11 UNL     1       1.654  54.788  84.701  1.00  0.00     0.099 C 
HETATM    8  C12 UNL     1       2.691  53.876  85.321  1.00  0.00     0.041 C 
HETATM    9  C15 UNL     1       1.459  54.375  83.278  1.00  0.00     0.041 C 
HETATM   10  O2  UNL     1       0.477  54.803  85.427  1.00  0.00    -0.229 OA
HETATM   11  C13 UNL     1       3.042  52.915  84.222  1.00  0.00     0.003 C 
HETATM   12  C14 UNL     1       2.758  53.691  82.932  1.00  0.00     0.003 C 
HETATM   13  O3  UNL     1      -0.088  55.967  85.182  1.00  0.00    -0.225 OA
ENDBRANCH   3   5
BRANCH   1  14
HETATM   14  C6  UNL     1       0.396  60.608  84.529  1.00  0.00     0.108 C 
HETATM   15  C7  UNL     1       1.792  61.169  84.311  1.00  0.00     0.034 C 
BRANCH  14  16
HETATM   16  C5  UNL     1      -0.469  61.505  85.324  1.00  0.00     0.296 C 
BRANCH  16  17
HETATM   17  N1  UNL     1      -0.130  62.870  85.458  1.00  0.00     0.089 N 
BRANCH  17  18
HETATM   18  C2  UNL     1      -0.879  63.794  84.660  1.00  0.00     0.268 C 
HETATM   19  C1  UNL     1      -2.218  64.203  85.126  1.00  0.00     0.037 C 
ENDBRANCH  17  18
BRANCH  17  20
HETATM   20  C3  UNL     1      -0.476  63.229  86.860  1.00  0.00     0.268 C 
HETATM   21  C4  UNL     1      -0.820  62.033  87.681  1.00  0.00     0.037 C 
ENDBRANCH  17  20
ENDBRANCH  16  17
ENDBRANCH  14  16
ENDBRANCH   1  14
TORSDOF 6
ENDMDL
MODEL 5
REMARK VINA RESULT: -6.552675604      2.007      7.269
REMARK  6 active torsions:
REMARK  status: ('A' for Active; 'I' for Inactive)
REMARK    1  A    between atoms: C2_2  and  N1_3 
REMARK    2  A    between atoms: N1_3  and  C3_4 
REMARK    3  A    between atoms: N1_3  and  C5_6 
REMARK    4  A    between atoms: C5_6  and  C6_7 
REMARK    5  A    between atoms: C6_7  and  N2_9 
REMARK       I    between atoms: N2_9  and  C8_11 
REMARK    6  A    between atoms: C8_11  and  C9_13 
ROOT
HETATM    1  N2  UNL     1       0.882  59.247  85.077  1.00  0.00    -0.353 N 
ATOM      2  H2  UNL     1       0.856  59.070  86.082  1.00  0.00     0.163 HD
HETATM    3  C8  UNL     1       1.211  58.221  84.170  1.00  0.00     0.250 C 
HETATM    4  O1  UNL     1       1.246  58.430  82.919  1.00  0.00    -0.271 OA
ENDROOT
BRANCH   3   5
HETATM    5  C9  UNL     1       1.527  56.873  84.622  1.00  0.00     0.255 C 
HETATM    6  C10 UNL     1       0.888  55.843  83.719  1.00  0.00     0.086 C 
HETATM    7  C11 UNL     1       0.299  54.885  84.728  1.00  0.00     0.099 C 
HETATM    8  C12 UNL     1       0.654  53.487  84.266  1.00  0.00     0.041 C 
HETATM    9  C15 UNL     1      -1.188  54.973  84.849  1.00  0.00     0.041 C 
HETATM   10  O2  UNL     1       0.959  55.229  85.894  1.00  0.00    -0.229 OA
HETATM   11  C13 UNL     1      -0.668  52.783  84.172  1.00  0.00     0.003 C 
HETATM   12  C14 UNL     1      -1.680  53.903  83.908  1.00  0.00     0.003 C 
HETATM   13  O3  UNL     1       1.052  56.542  85.887  1.00  0.00    -0.225 OA
ENDBRANCH   3   5
BRANCH   1  14
HETATM   14  C6  UNL     1       0.578  60.576  84.541  1.00  0.00     0.108 C 
HETATM   15  C7  UNL     1       1.927  61.202  84.228  1.00  0.00     0.034 C 
BRANCH  14  16
HETATM   16  C5  UNL     1      -0.165  61.302  85.593  1.00  0.00     0.296 C 
BRANCH  16  17
HETATM   17  N1  UNL     1      -0.112  62.713  85.643  1.00  0.00     0.089 N 
BRANCH  17  18
HETATM   18  C2  UNL     1      -0.974  63.415  84.739  1.00  0.00     0.268 C 
HETATM   19  C1  UNL     1      -2.055  64.248  85.301  1.00  0.00     0.037 C 
ENDBRANCH  17  18
BRANCH  17  20
HETATM   20  C3  UNL     1      -0.615  63.082  86.994  1.00  0.00     0.268 C 
HETATM   21  C4  UNL     1      -0.960  61.886  87.813  1.00  0.00     0.037 C 
ENDBRANCH  17  20
ENDBRANCH  16  17
ENDBRANCH  14  16
ENDBRANCH   1  14
TORSDOF 6
ENDMDL
