MODEL 1
REMARK VINA RESULT: -8.464346819      0.000      0.000
REMARK  9 active torsions:
REMARK  status: ('A' for Active; 'I' for Inactive)
REMARK    1  A    between atoms: C2_2  and  C3_3 
REMARK    2  A    between atoms: C5_5  and  O1_7 
REMARK    3  A    between atoms: C7_9  and  O2_10 
REMARK    4  A    between atoms: O2_10  and  C8_11 
REMARK    5  A    between atoms: C8_11  and  O4_13 
REMARK    6  A    between atoms: O4_13  and  C9_14 
REMARK    7  A    between atoms: C14_19  and  O5_20 
REMARK    8  A    between atoms: C15_22  and  C16_23 
REMARK    9  A    between atoms: C18_26  and  O7_27 
ROOT
HETATM    1  C3  UNL     1      23.262   7.765  16.208  1.00  0.00    -0.045 C 
HETATM    2  C4  UNL     1      24.369   7.049  15.924  1.00  0.00     0.025 C 
HETATM    3  C5  UNL     1      25.126   6.266  16.929  1.00  0.00     0.122 C 
HETATM    4  C6  UNL     1      26.156   7.226  17.524  1.00  0.00     0.058 C 
HETATM    5  C7  UNL     1      24.194   5.722  17.901  1.00  0.00     0.111 C 
HETATM    6  C13 UNL     1      23.333   6.792  18.470  1.00  0.00     0.045 A 
HETATM    7  C14 UNL     1      23.029   6.805  19.834  1.00  0.00     0.092 A 
HETATM    8  C15 UNL     1      22.088   7.687  20.284  1.00  0.00     0.038 A 
HETATM    9  C17 UNL     1      21.457   8.549  19.375  1.00  0.00     0.054 A 
HETATM   10  C18 UNL     1      21.777   8.523  18.032  1.00  0.00     0.078 A 
HETATM   11  C19 UNL     1      22.723   7.641  17.568  1.00  0.00     0.019 A 
ENDROOT
BRANCH   5  12
HETATM   12  O2  UNL     1      24.553   4.855  18.861  1.00  0.00    -0.255 OA
BRANCH  12  13
HETATM   13  C8  UNL     1      24.721   3.511  18.717  1.00  0.00     0.412 C 
HETATM   14  O3  UNL     1      25.855   3.194  18.371  1.00  0.00    -0.229 OA
BRANCH  13  15
HETATM   15  O4  UNL     1      23.775   2.525  18.917  1.00  0.00    -0.288 OA
BRANCH  15  16
HETATM   16  C9  UNL     1      23.353   2.273  20.243  1.00  0.00     0.062 C 
HETATM   17  C10 UNL     1      24.466   2.481  21.250  1.00  0.00     0.046 C 
HETATM   18  C11 UNL     1      22.098   3.028  20.607  1.00  0.00     0.046 C 
HETATM   19  C12 UNL     1      22.996   0.781  20.307  1.00  0.00     0.046 C 
ENDBRANCH  15  16
ENDBRANCH  13  15
ENDBRANCH  12  13
ENDBRANCH   5  12
BRANCH   3  20
HETATM   20  O1  UNL     1      25.790   5.282  16.157  1.00  0.00    -0.379 OA
ATOM     21  H1  UNL     1      25.837   4.533  16.739  1.00  0.00     0.211 HD
ENDBRANCH   3  20
BRANCH   7  22
HETATM   22  O5  UNL     1      23.694   5.943  20.615  1.00  0.00    -0.359 OA
ATOM     23  H5  UNL     1      23.176   5.322  21.113  1.00  0.00     0.217 HD
ENDBRANCH   7  22
BRANCH   1  24
HETATM   24  C2  UNL     1      22.564   8.528  15.182  1.00  0.00     0.035 C 
HETATM   25  C1  UNL     1      22.900   8.150  13.752  1.00  0.00     0.010 C 
ENDBRANCH   1  24
BRANCH   8  26
HETATM   26  C16 UNL     1      21.730   7.745  21.688  1.00  0.00     0.272 C 
HETATM   27  O6  UNL     1      21.538   6.751  22.399  1.00  0.00    -0.301 OA
ENDBRANCH   8  26
BRANCH  10  28
HETATM   28  O7  UNL     1      21.154   9.378  17.154  1.00  0.00    -0.360 OA
ATOM     29  H7  UNL     1      21.073   9.147  16.236  1.00  0.00     0.217 HD
ENDBRANCH  10  28
TORSDOF 9
ENDMDL
MODEL 2
REMARK VINA RESULT: -7.938309542      1.048      1.516
REMARK  9 active torsions:
REMARK  status: ('A' for Active; 'I' for Inactive)
REMARK    1  A    between atoms: C2_2  and  C3_3 
REMARK    2  A    between atoms: C5_5  and  O1_7 
REMARK    3  A    between atoms: C7_9  and  O2_10 
REMARK    4  A    between atoms: O2_10  and  C8_11 
REMARK    5  A    between atoms: C8_11  and  O4_13 
REMARK    6  A    between atoms: O4_13  and  C9_14 
REMARK    7  A    between atoms: C14_19  and  O5_20 
REMARK    8  A    between atoms: C15_22  and  C16_23 
REMARK    9  A    between atoms: C18_26  and  O7_27 
ROOT
HETATM    1  C3  UNL     1      23.273   7.756  16.182  1.00  0.00    -0.045 C 
HETATM    2  C4  UNL     1      24.333   6.962  15.929  1.00  0.00     0.025 C 
HETATM    3  C5  UNL     1      25.019   6.146  16.957  1.00  0.00     0.122 C 
HETATM    4  C6  UNL     1      26.102   7.044  17.556  1.00  0.00     0.058 C 
HETATM    5  C7  UNL     1      24.037   5.681  17.922  1.00  0.00     0.111 C 
HETATM    6  C13 UNL     1      23.241   6.816  18.459  1.00  0.00     0.045 A 
HETATM    7  C14 UNL     1      22.917   6.871  19.818  1.00  0.00     0.092 A 
HETATM    8  C15 UNL     1      22.031   7.822  20.239  1.00  0.00     0.038 A 
HETATM    9  C17 UNL     1      21.474   8.711  19.306  1.00  0.00     0.054 A 
HETATM   10  C18 UNL     1      21.813   8.641  17.970  1.00  0.00     0.078 A 
HETATM   11  C19 UNL     1      22.705   7.690  17.534  1.00  0.00     0.019 A 
ENDROOT
BRANCH   5  12
HETATM   12  O2  UNL     1      24.321   4.808  18.900  1.00  0.00    -0.255 OA
BRANCH  12  13
HETATM   13  C8  UNL     1      23.858   3.532  19.006  1.00  0.00     0.412 C 
HETATM   14  O3  UNL     1      23.317   3.296  20.082  1.00  0.00    -0.229 OA
BRANCH  13  15
HETATM   15  O4  UNL     1      23.939   2.532  18.057  1.00  0.00    -0.288 OA
BRANCH  15  16
HETATM   16  C9  UNL     1      24.941   1.547  18.217  1.00  0.00     0.062 C 
HETATM   17  C10 UNL     1      26.337   2.125  18.110  1.00  0.00     0.046 C 
HETATM   18  C11 UNL     1      24.753   0.724  19.467  1.00  0.00     0.046 C 
HETATM   19  C12 UNL     1      24.790   0.580  17.034  1.00  0.00     0.046 C 
ENDBRANCH  15  16
ENDBRANCH  13  15
ENDBRANCH  12  13
ENDBRANCH   5  12
BRANCH   3  20
HETATM   20  O1  UNL     1      25.627   5.107  16.211  1.00  0.00    -0.379 OA
ATOM     21  H1  UNL     1      25.979   5.553  15.450  1.00  0.00     0.211 HD
ENDBRANCH   3  20
BRANCH   7  22
HETATM   22  O5  UNL     1      23.510   5.979  20.623  1.00  0.00    -0.359 OA
ATOM     23  H5  UNL     1      23.341   6.059  21.554  1.00  0.00     0.217 HD
ENDBRANCH   7  22
BRANCH   1  24
HETATM   24  C2  UNL     1      22.644   8.548  15.134  1.00  0.00     0.035 C 
HETATM   25  C1  UNL     1      22.949   8.103  13.715  1.00  0.00     0.010 C 
ENDBRANCH   1  24
BRANCH   8  26
HETATM   26  C16 UNL     1      21.655   7.927  21.635  1.00  0.00     0.272 C 
HETATM   27  O6  UNL     1      21.686   6.985  22.437  1.00  0.00    -0.301 OA
ENDBRANCH   8  26
BRANCH  10  28
HETATM   28  O7  UNL     1      21.264   9.522  17.068  1.00  0.00    -0.360 OA
ATOM     29  H7  UNL     1      20.600   9.229  16.455  1.00  0.00     0.217 HD
ENDBRANCH  10  28
TORSDOF 9
ENDMDL
MODEL 3
REMARK VINA RESULT: -7.755766737      1.204      1.405
REMARK  9 active torsions:
REMARK  status: ('A' for Active; 'I' for Inactive)
REMARK    1  A    between atoms: C2_2  and  C3_3 
REMARK    2  A    between atoms: C5_5  and  O1_7 
REMARK    3  A    between atoms: C7_9  and  O2_10 
REMARK    4  A    between atoms: O2_10  and  C8_11 
REMARK    5  A    between atoms: C8_11  and  O4_13 
REMARK    6  A    between atoms: O4_13  and  C9_14 
REMARK    7  A    between atoms: C14_19  and  O5_20 
REMARK    8  A    between atoms: C15_22  and  C16_23 
REMARK    9  A    between atoms: C18_26  and  O7_27 
ROOT
HETATM    1  C3  UNL     1      23.379   7.673  16.391  1.00  0.00    -0.045 C 
HETATM    2  C4  UNL     1      24.444   6.973  15.949  1.00  0.00     0.025 C 
HETATM    3  C5  UNL     1      25.234   6.050  16.796  1.00  0.00     0.122 C 
HETATM    4  C6  UNL     1      26.328   6.900  17.442  1.00  0.00     0.058 C 
HETATM    5  C7  UNL     1      24.346   5.407  17.749  1.00  0.00     0.111 C 
HETATM    6  C13 UNL     1      23.555   6.416  18.502  1.00  0.00     0.045 A 
HETATM    7  C14 UNL     1      23.334   6.261  19.874  1.00  0.00     0.092 A 
HETATM    8  C15 UNL     1      22.450   7.101  20.491  1.00  0.00     0.038 A 
HETATM    9  C17 UNL     1      21.793   8.087  19.740  1.00  0.00     0.054 A 
HETATM   10  C18 UNL     1      22.031   8.226  18.387  1.00  0.00     0.078 A 
HETATM   11  C19 UNL     1      22.920   7.388  17.755  1.00  0.00     0.019 A 
ENDROOT
BRANCH   5  12
HETATM   12  O2  UNL     1      24.734   4.417  18.566  1.00  0.00    -0.255 OA
BRANCH  12  13
HETATM   13  C8  UNL     1      25.217   3.200  18.192  1.00  0.00     0.412 C 
HETATM   14  O3  UNL     1      26.435   3.101  18.305  1.00  0.00    -0.229 OA
BRANCH  13  15
HETATM   15  O4  UNL     1      24.493   2.123  17.720  1.00  0.00    -0.288 OA
BRANCH  15  16
HETATM   16  C9  UNL     1      24.647   0.881  18.380  1.00  0.00     0.062 C 
HETATM   17  C10 UNL     1      25.917   0.166  17.968  1.00  0.00     0.046 C 
HETATM   18  C11 UNL     1      24.512   0.998  19.878  1.00  0.00     0.046 C 
HETATM   19  C12 UNL     1      23.487  -0.006  17.907  1.00  0.00     0.046 C 
ENDBRANCH  15  16
ENDBRANCH  13  15
ENDBRANCH  12  13
ENDBRANCH   5  12
BRANCH   3  20
HETATM   20  O1  UNL     1      25.819   5.157  15.865  1.00  0.00    -0.379 OA
ATOM     21  H1  UNL     1      26.655   4.937  16.258  1.00  0.00     0.211 HD
ENDBRANCH   3  20
BRANCH   7  22
HETATM   22  O5  UNL     1      24.017   5.291  20.495  1.00  0.00    -0.359 OA
ATOM     23  H5  UNL     1      24.879   5.514  20.827  1.00  0.00     0.217 HD
ENDBRANCH   7  22
BRANCH   1  24
HETATM   24  C2  UNL     1      22.645   8.578  15.516  1.00  0.00     0.035 C 
HETATM   25  C1  UNL     1      22.796   8.307  14.031  1.00  0.00     0.010 C 
ENDBRANCH   1  24
BRANCH   8  26
HETATM   26  C16 UNL     1      22.179   6.987  21.910  1.00  0.00     0.272 C 
HETATM   27  O6  UNL     1      22.137   5.915  22.528  1.00  0.00    -0.301 OA
ENDBRANCH   8  26
BRANCH  10  28
HETATM   28  O7  UNL     1      21.384   9.201  17.665  1.00  0.00    -0.360 OA
ATOM     29  H7  UNL     1      20.903   9.888  18.112  1.00  0.00     0.217 HD
ENDBRANCH  10  28
TORSDOF 9
ENDMDL
MODEL 4
REMARK VINA RESULT: -7.337229134      2.349      5.027
REMARK  9 active torsions:
REMARK  status: ('A' for Active; 'I' for Inactive)
REMARK    1  A    between atoms: C2_2  and  C3_3 
REMARK    2  A    between atoms: C5_5  and  O1_7 
REMARK    3  A    between atoms: C7_9  and  O2_10 
REMARK    4  A    between atoms: O2_10  and  C8_11 
REMARK    5  A    between atoms: C8_11  and  O4_13 
REMARK    6  A    between atoms: O4_13  and  C9_14 
REMARK    7  A    between atoms: C14_19  and  O5_20 
REMARK    8  A    between atoms: C15_22  and  C16_23 
REMARK    9  A    between atoms: C18_26  and  O7_27 
ROOT
HETATM    1  C3  UNL     1      23.619   4.968  21.018  1.00  0.00    -0.045 C 
HETATM    2  C4  UNL     1      23.897   3.648  21.034  1.00  0.00     0.025 C 
HETATM    3  C5  UNL     1      24.302   2.874  19.837  1.00  0.00     0.122 C 
HETATM    4  C6  UNL     1      23.006   2.379  19.196  1.00  0.00     0.058 C 
HETATM    5  C7  UNL     1      25.101   3.727  18.973  1.00  0.00     0.111 C 
HETATM    6  C13 UNL     1      24.391   4.999  18.678  1.00  0.00     0.045 A 
HETATM    7  C14 UNL     1      24.424   5.546  17.392  1.00  0.00     0.092 A 
HETATM    8  C15 UNL     1      23.924   6.803  17.205  1.00  0.00     0.038 A 
HETATM    9  C17 UNL     1      23.395   7.508  18.297  1.00  0.00     0.054 A 
HETATM   10  C18 UNL     1      23.368   6.946  19.558  1.00  0.00     0.078 A 
HETATM   11  C19 UNL     1      23.866   5.681  19.759  1.00  0.00     0.019 A 
ENDROOT
BRANCH   5  12
HETATM   12  O2  UNL     1      25.730   3.280  17.876  1.00  0.00    -0.255 OA
BRANCH  12  13
HETATM   13  C8  UNL     1      26.694   2.319  17.829  1.00  0.00     0.412 C 
HETATM   14  O3  UNL     1      27.766   2.722  17.388  1.00  0.00    -0.229 OA
BRANCH  13  15
HETATM   15  O4  UNL     1      26.577   0.999  18.217  1.00  0.00    -0.288 OA
BRANCH  15  16
HETATM   16  C9  UNL     1      26.171   0.056  17.243  1.00  0.00     0.062 C 
HETATM   17  C10 UNL     1      24.732   0.257  16.814  1.00  0.00     0.046 C 
HETATM   18  C11 UNL     1      27.118  -0.011  16.070  1.00  0.00     0.046 C 
HETATM   19  C12 UNL     1      26.225  -1.318  17.924  1.00  0.00     0.046 C 
ENDBRANCH  15  16
ENDBRANCH  13  15
ENDBRANCH  12  13
ENDBRANCH   5  12
BRANCH   3  20
HETATM   20  O1  UNL     1      25.013   1.773  20.374  1.00  0.00    -0.379 OA
ATOM     21  H1  UNL     1      25.174   2.027  21.275  1.00  0.00     0.211 HD
ENDBRANCH   3  20
BRANCH   7  22
HETATM   22  O5  UNL     1      24.946   4.785  16.420  1.00  0.00    -0.359 OA
ATOM     23  H5  UNL     1      24.895   5.122  15.534  1.00  0.00     0.217 HD
ENDBRANCH   7  22
BRANCH   1  24
HETATM   24  C2  UNL     1      23.213   5.676  22.224  1.00  0.00     0.035 C 
HETATM   25  C1  UNL     1      22.282   4.909  23.144  1.00  0.00     0.010 C 
ENDBRANCH   1  24
BRANCH   8  26
HETATM   26  C16 UNL     1      23.933   7.422  15.894  1.00  0.00     0.272 C 
HETATM   27  O6  UNL     1      23.571   6.856  14.854  1.00  0.00    -0.301 OA
ENDBRANCH   8  26
BRANCH  10  28
HETATM   28  O7  UNL     1      22.841   7.646  20.618  1.00  0.00    -0.360 OA
ATOM     29  H7  UNL     1      22.362   7.191  21.301  1.00  0.00     0.217 HD
ENDBRANCH  10  28
TORSDOF 9
ENDMDL
MODEL 5
REMARK VINA RESULT: -7.081501176      1.644      2.339
REMARK  9 active torsions:
REMARK  status: ('A' for Active; 'I' for Inactive)
REMARK    1  A    between atoms: C2_2  and  C3_3 
REMARK    2  A    between atoms: C5_5  and  O1_7 
REMARK    3  A    between atoms: C7_9  and  O2_10 
REMARK    4  A    between atoms: O2_10  and  C8_11 
REMARK    5  A    between atoms: C8_11  and  O4_13 
REMARK    6  A    between atoms: O4_13  and  C9_14 
REMARK    7  A    between atoms: C14_19  and  O5_20 
REMARK    8  A    between atoms: C15_22  and  C16_23 
REMARK    9  A    between atoms: C18_26  and  O7_27 
ROOT
HETATM    1  C3  UNL     1      21.861   8.993  17.850  1.00  0.00    -0.045 C 
HETATM    2  C4  UNL     1      22.790   8.750  16.903  1.00  0.00     0.025 C 
HETATM    3  C5  UNL     1      23.921   7.810  17.077  1.00  0.00     0.122 C 
HETATM    4  C6  UNL     1      25.061   8.628  17.686  1.00  0.00     0.058 C 
HETATM    5  C7  UNL     1      23.486   6.697  17.904  1.00  0.00     0.111 C 
HETATM    6  C13 UNL     1      22.881   7.181  19.172  1.00  0.00     0.045 A 
HETATM    7  C14 UNL     1      23.153   6.530  20.379  1.00  0.00     0.092 A 
HETATM    8  C15 UNL     1      22.435   6.884  21.486  1.00  0.00     0.038 A 
HETATM    9  C17 UNL     1      21.453   7.881  21.386  1.00  0.00     0.054 A 
HETATM   10  C18 UNL     1      21.206   8.515  20.185  1.00  0.00     0.078 A 
HETATM   11  C19 UNL     1      21.922   8.170  19.064  1.00  0.00     0.019 A 
ENDROOT
BRANCH   5  12
HETATM   12  O2  UNL     1      24.240   5.611  18.133  1.00  0.00    -0.255 OA
BRANCH  12  13
HETATM   13  C8  UNL     1      24.600   4.667  17.219  1.00  0.00     0.412 C 
HETATM   14  O3  UNL     1      25.452   5.054  16.426  1.00  0.00    -0.229 OA
BRANCH  13  15
HETATM   15  O4  UNL     1      24.114   3.379  17.114  1.00  0.00    -0.288 OA
BRANCH  15  16
HETATM   16  C9  UNL     1      24.372   2.485  18.179  1.00  0.00     0.062 C 
HETATM   17  C10 UNL     1      25.718   2.738  18.827  1.00  0.00     0.046 C 
HETATM   18  C11 UNL     1      23.248   2.439  19.185  1.00  0.00     0.046 C 
HETATM   19  C12 UNL     1      24.456   1.084  17.557  1.00  0.00     0.046 C 
ENDBRANCH  15  16
ENDBRANCH  13  15
ENDBRANCH  12  13
ENDBRANCH   5  12
BRANCH   3  20
HETATM   20  O1  UNL     1      24.260   7.442  15.752  1.00  0.00    -0.379 OA
ATOM     21  H1  UNL     1      24.666   6.590  15.852  1.00  0.00     0.211 HD
ENDBRANCH   3  20
BRANCH   7  22
HETATM   22  O5  UNL     1      24.114   5.597  20.365  1.00  0.00    -0.359 OA
ATOM     23  H5  UNL     1      24.525   5.388  21.195  1.00  0.00     0.217 HD
ENDBRANCH   7  22
BRANCH   1  24
HETATM   24  C2  UNL     1      20.775   9.938  17.629  1.00  0.00     0.035 C 
HETATM   25  C1  UNL     1      19.464   9.325  17.174  1.00  0.00     0.010 C 
ENDBRANCH   1  24
BRANCH   8  26
HETATM   26  C16 UNL     1      22.672   6.243  22.765  1.00  0.00     0.272 C 
HETATM   27  O6  UNL     1      22.918   5.038  22.905  1.00  0.00    -0.301 OA
ENDBRANCH   8  26
BRANCH  10  28
HETATM   28  O7  UNL     1      20.245   9.495  20.103  1.00  0.00    -0.360 OA
ATOM     29  H7  UNL     1      20.371  10.328  20.541  1.00  0.00     0.217 HD
ENDBRANCH  10  28
TORSDOF 9
ENDMDL
