MODEL 1
REMARK VINA RESULT: -10.219369584      0.000      0.000
REMARK  4 active torsions:
REMARK  status: ('A' for Active; 'I' for Inactive)
REMARK    1  A    between atoms: O1_2  and  C2_3 
REMARK    2  A    between atoms: C9_11  and  C10_12 
REMARK    3  A    between atoms: C18_24  and  O6_25 
REMARK    4  A    between atoms: C19_27  and  O7_28 
ROOT
HETATM    1  C2  UNL     1      20.951   7.089  24.323  1.00  0.00     0.105 A 
HETATM    2  C3  UNL     1      21.780   6.311  23.494  1.00  0.00     0.058 A 
HETATM    3  C4  UNL     1      22.038   6.704  22.203  1.00  0.00     0.054 A 
HETATM    4  C5  UNL     1      22.873   5.891  21.415  1.00  0.00     0.199 A 
HETATM    5  O2  UNL     1      23.280   4.918  21.969  1.00  0.00    -0.286 OA
HETATM    6  C6  UNL     1      23.112   6.303  20.143  1.00  0.00     0.062 A 
HETATM    7  C7  UNL     1      22.537   7.493  19.664  1.00  0.00     0.092 A 
HETATM    8  C8  UNL     1      22.786   7.902  18.371  1.00  0.00     0.057 A 
HETATM    9  C9  UNL     1      23.581   7.181  17.533  1.00  0.00     0.066 A 
HETATM   10  C11 UNL     1      24.153   6.010  17.990  1.00  0.00     0.103 A 
HETATM   11  O4  UNL     1      24.933   5.139  17.437  1.00  0.00    -0.313 OA
HETATM   12  C12 UNL     1      25.234   4.173  18.243  1.00  0.00     0.056 A 
HETATM   13  C13 UNL     1      26.109   2.992  17.951  1.00  0.00     0.077 C 
HETATM   14  C14 UNL     1      24.605   4.383  19.487  1.00  0.00    -0.018 A 
HETATM   15  C15 UNL     1      24.762   3.443  20.603  1.00  0.00     0.052 C 
HETATM   16  C16 UNL     1      23.926   5.554  19.305  1.00  0.00     0.024 A 
HETATM   17  O5  UNL     1      21.766   8.209  20.445  1.00  0.00    -0.306 OA
HETATM   18  C17 UNL     1      21.510   7.853  21.671  1.00  0.00     0.126 A 
HETATM   19  C18 UNL     1      20.691   8.625  22.483  1.00  0.00     0.137 A 
HETATM   20  C19 UNL     1      20.438   8.226  23.770  1.00  0.00     0.135 A 
ENDROOT
BRANCH   9  21
HETATM   21  C10 UNL     1      23.831   7.628  16.179  1.00  0.00     0.267 C 
HETATM   22  N1  UNL     1      22.817   8.247  15.378  1.00  0.00    -0.057 NA
HETATM   23  O3  UNL     1      24.956   7.496  15.628  1.00  0.00    -0.271 OA
ENDBRANCH   9  21
BRANCH  19  24
HETATM   24  O6  UNL     1      20.168   9.768  21.948  1.00  0.00    -0.356 OA
ATOM     25  H6  UNL     1      20.101  10.527  22.515  1.00  0.00     0.218 HD
ENDBRANCH  19  24
BRANCH  20  26
HETATM   26  O7  UNL     1      19.620   9.022  24.545  1.00  0.00    -0.356 OA
ATOM     27  H7  UNL     1      19.323   8.684  25.382  1.00  0.00     0.218 HD
ENDBRANCH  20  26
BRANCH   1  28
HETATM   28  O1  UNL     1      20.695   6.697  25.605  1.00  0.00    -0.353 OA
HETATM   29  C1  UNL     1      19.715   5.763  25.966  1.00  0.00     0.210 C 
ENDBRANCH   1  28
TORSDOF 4
ENDMDL
MODEL 2
REMARK VINA RESULT: -10.006724809      1.821      3.047
REMARK  4 active torsions:
REMARK  status: ('A' for Active; 'I' for Inactive)
REMARK    1  A    between atoms: O1_2  and  C2_3 
REMARK    2  A    between atoms: C9_11  and  C10_12 
REMARK    3  A    between atoms: C18_24  and  O6_25 
REMARK    4  A    between atoms: C19_27  and  O7_28 
ROOT
HETATM    1  C2  UNL     1      20.960   6.485  26.531  1.00  0.00     0.105 A 
HETATM    2  C3  UNL     1      21.628   6.175  25.332  1.00  0.00     0.058 A 
HETATM    3  C4  UNL     1      21.339   6.861  24.177  1.00  0.00     0.054 A 
HETATM    4  C5  UNL     1      22.035   6.512  23.005  1.00  0.00     0.199 A 
HETATM    5  O2  UNL     1      22.826   5.631  23.144  1.00  0.00    -0.286 OA
HETATM    6  C6  UNL     1      21.730   7.206  21.878  1.00  0.00     0.062 A 
HETATM    7  C7  UNL     1      20.758   8.222  21.912  1.00  0.00     0.092 A 
HETATM    8  C8  UNL     1      20.456   8.919  20.762  1.00  0.00     0.057 A 
HETATM    9  C9  UNL     1      21.077   8.654  19.579  1.00  0.00     0.066 A 
HETATM   10  C11 UNL     1      22.034   7.659  19.531  1.00  0.00     0.103 A 
HETATM   11  O4  UNL     1      22.771   7.196  18.575  1.00  0.00    -0.313 OA
HETATM   12  C12 UNL     1      23.548   6.242  18.977  1.00  0.00     0.056 A 
HETATM   13  C13 UNL     1      24.534   5.472  18.152  1.00  0.00     0.077 C 
HETATM   14  C14 UNL     1      23.337   6.010  20.351  1.00  0.00    -0.018 A 
HETATM   15  C15 UNL     1      24.080   4.977  21.085  1.00  0.00     0.052 C 
HETATM   16  C16 UNL     1      22.374   6.920  20.683  1.00  0.00     0.024 A 
HETATM   17  O5  UNL     1      20.142   8.501  23.034  1.00  0.00    -0.306 OA
HETATM   18  C17 UNL     1      20.403   7.862  24.138  1.00  0.00     0.126 A 
HETATM   19  C18 UNL     1      19.740   8.173  25.318  1.00  0.00     0.137 A 
HETATM   20  C19 UNL     1      20.034   7.484  26.465  1.00  0.00     0.135 A 
ENDROOT
BRANCH   9  21
HETATM   21  C10 UNL     1      20.746   9.398  18.384  1.00  0.00     0.267 C 
HETATM   22  N1  UNL     1      21.750   9.937  17.515  1.00  0.00    -0.057 NA
HETATM   23  O3  UNL     1      19.554   9.616  18.039  1.00  0.00    -0.271 OA
ENDBRANCH   9  21
BRANCH  19  24
HETATM   24  O6  UNL     1      18.808   9.171  25.273  1.00  0.00    -0.356 OA
ATOM     25  H6  UNL     1      18.524   9.542  26.100  1.00  0.00     0.218 HD
ENDBRANCH  19  24
BRANCH  20  26
HETATM   26  O7  UNL     1      19.353   7.824  27.617  1.00  0.00    -0.356 OA
ATOM     27  H7  UNL     1      19.486   8.692  27.980  1.00  0.00     0.218 HD
ENDBRANCH  20  26
BRANCH   1  28
HETATM   28  O1  UNL     1      21.248   5.803  27.677  1.00  0.00    -0.353 OA
HETATM   29  C1  UNL     1      22.487   5.837  28.329  1.00  0.00     0.210 C 
ENDBRANCH   1  28
TORSDOF 4
ENDMDL
MODEL 3
REMARK VINA RESULT: -9.843928923      1.934      3.963
REMARK  4 active torsions:
REMARK  status: ('A' for Active; 'I' for Inactive)
REMARK    1  A    between atoms: O1_2  and  C2_3 
REMARK    2  A    between atoms: C9_11  and  C10_12 
REMARK    3  A    between atoms: C18_24  and  O6_25 
REMARK    4  A    between atoms: C19_27  and  O7_28 
ROOT
HETATM    1  C2  UNL     1      21.216   7.133  23.251  1.00  0.00     0.105 A 
HETATM    2  C3  UNL     1      21.690   7.301  21.937  1.00  0.00     0.058 A 
HETATM    3  C4  UNL     1      22.499   6.351  21.362  1.00  0.00     0.054 A 
HETATM    4  C5  UNL     1      22.946   6.566  20.046  1.00  0.00     0.199 A 
HETATM    5  O2  UNL     1      22.562   7.582  19.554  1.00  0.00    -0.286 OA
HETATM    6  C6  UNL     1      23.745   5.612  19.502  1.00  0.00     0.062 A 
HETATM    7  C7  UNL     1      24.092   4.471  20.247  1.00  0.00     0.092 A 
HETATM    8  C8  UNL     1      24.903   3.508  19.685  1.00  0.00     0.057 A 
HETATM    9  C9  UNL     1      25.385   3.628  18.417  1.00  0.00     0.066 A 
HETATM   10  C11 UNL     1      25.052   4.744  17.675  1.00  0.00     0.103 A 
HETATM   11  O4  UNL     1      25.353   5.121  16.474  1.00  0.00    -0.313 OA
HETATM   12  C12 UNL     1      24.815   6.260  16.173  1.00  0.00     0.056 A 
HETATM   13  C13 UNL     1      24.941   7.003  14.879  1.00  0.00     0.077 C 
HETATM   14  C14 UNL     1      24.062   6.730  17.268  1.00  0.00    -0.018 A 
HETATM   15  C15 UNL     1      23.338   8.006  17.218  1.00  0.00     0.052 C 
HETATM   16  C16 UNL     1      24.225   5.754  18.208  1.00  0.00     0.024 A 
HETATM   17  O5  UNL     1      23.646   4.325  21.470  1.00  0.00    -0.306 OA
HETATM   18  C17 UNL     1      22.877   5.215  22.031  1.00  0.00     0.126 A 
HETATM   19  C18 UNL     1      22.414   5.043  23.328  1.00  0.00     0.137 A 
HETATM   20  C19 UNL     1      21.607   5.995  23.893  1.00  0.00     0.135 A 
ENDROOT
BRANCH   9  21
HETATM   21  C10 UNL     1      26.235   2.606  17.846  1.00  0.00     0.267 C 
HETATM   22  N1  UNL     1      27.615   2.840  17.541  1.00  0.00    -0.057 NA
HETATM   23  O3  UNL     1      25.808   1.450  17.583  1.00  0.00    -0.271 OA
ENDBRANCH   9  21
BRANCH  19  24
HETATM   24  O6  UNL     1      22.793   3.909  23.988  1.00  0.00    -0.356 OA
ATOM     25  H6  UNL     1      23.456   3.996  24.663  1.00  0.00     0.218 HD
ENDBRANCH  19  24
BRANCH  20  26
HETATM   26  O7  UNL     1      21.166   5.786  25.185  1.00  0.00    -0.356 OA
ATOM     27  H7  UNL     1      21.810   5.597  25.857  1.00  0.00     0.218 HD
ENDBRANCH  20  26
BRANCH   1  28
HETATM   28  O1  UNL     1      20.412   8.078  23.820  1.00  0.00    -0.353 OA
HETATM   29  C1  UNL     1      20.872   9.125  24.630  1.00  0.00     0.210 C 
ENDBRANCH   1  28
TORSDOF 4
ENDMDL
MODEL 4
REMARK VINA RESULT: -9.688833878      2.755      5.290
REMARK  4 active torsions:
REMARK  status: ('A' for Active; 'I' for Inactive)
REMARK    1  A    between atoms: O1_2  and  C2_3 
REMARK    2  A    between atoms: C9_11  and  C10_12 
REMARK    3  A    between atoms: C18_24  and  O6_25 
REMARK    4  A    between atoms: C19_27  and  O7_28 
ROOT
HETATM    1  C2  UNL     1      24.005   2.956  22.007  1.00  0.00     0.105 A 
HETATM    2  C3  UNL     1      23.437   4.143  21.509  1.00  0.00     0.058 A 
HETATM    3  C4  UNL     1      23.686   4.546  20.219  1.00  0.00     0.054 A 
HETATM    4  C5  UNL     1      23.094   5.741  19.770  1.00  0.00     0.199 A 
HETATM    5  O2  UNL     1      22.419   6.293  20.583  1.00  0.00    -0.286 OA
HETATM    6  C6  UNL     1      23.356   6.116  18.492  1.00  0.00     0.062 A 
HETATM    7  C7  UNL     1      24.186   5.325  17.677  1.00  0.00     0.092 A 
HETATM    8  C8  UNL     1      24.445   5.715  16.381  1.00  0.00     0.057 A 
HETATM    9  C9  UNL     1      23.917   6.856  15.857  1.00  0.00     0.066 A 
HETATM   10  C11 UNL     1      23.101   7.643  16.646  1.00  0.00     0.103 A 
HETATM   11  O4  UNL     1      22.473   8.753  16.427  1.00  0.00    -0.313 OA
HETATM   12  C12 UNL     1      21.810   9.150  17.465  1.00  0.00     0.056 A 
HETATM   13  C13 UNL     1      20.970  10.385  17.581  1.00  0.00     0.077 C 
HETATM   14  C14 UNL     1      21.987   8.230  18.518  1.00  0.00    -0.018 A 
HETATM   15  C15 UNL     1      21.354   8.423  19.829  1.00  0.00     0.052 C 
HETATM   16  C16 UNL     1      22.808   7.283  17.977  1.00  0.00     0.024 A 
HETATM   17  O5  UNL     1      24.709   4.222  18.151  1.00  0.00    -0.306 OA
HETATM   18  C17 UNL     1      24.485   3.824  19.371  1.00  0.00     0.126 A 
HETATM   19  C18 UNL     1      25.049   2.651  19.855  1.00  0.00     0.137 A 
HETATM   20  C19 UNL     1      24.796   2.256  21.143  1.00  0.00     0.135 A 
ENDROOT
BRANCH   9  21
HETATM   21  C10 UNL     1      24.201   7.248  14.493  1.00  0.00     0.267 C 
HETATM   22  N1  UNL     1      23.262   7.979  13.695  1.00  0.00    -0.057 NA
HETATM   23  O3  UNL     1      25.292   6.967  13.930  1.00  0.00    -0.271 OA
ENDBRANCH   9  21
BRANCH  19  24
HETATM   24  O6  UNL     1      25.843   1.936  19.005  1.00  0.00    -0.356 OA
ATOM     25  H6  UNL     1      26.759   2.183  18.948  1.00  0.00     0.218 HD
ENDBRANCH  19  24
BRANCH  20  26
HETATM   26  O7  UNL     1      25.374   1.084  21.585  1.00  0.00    -0.356 OA
ATOM     27  H7  UNL     1      25.426   0.350  20.985  1.00  0.00     0.218 HD
ENDBRANCH  20  26
BRANCH   1  28
HETATM   28  O1  UNL     1      23.758   2.557  23.288  1.00  0.00    -0.353 OA
HETATM   29  C1  UNL     1      22.478   2.394  23.833  1.00  0.00     0.210 C 
ENDBRANCH   1  28
TORSDOF 4
ENDMDL
MODEL 5
REMARK VINA RESULT: -9.573430549      1.089      1.220
REMARK  4 active torsions:
REMARK  status: ('A' for Active; 'I' for Inactive)
REMARK    1  A    between atoms: O1_2  and  C2_3 
REMARK    2  A    between atoms: C9_11  and  C10_12 
REMARK    3  A    between atoms: C18_24  and  O6_25 
REMARK    4  A    between atoms: C19_27  and  O7_28 
ROOT
HETATM    1  C2  UNL     1      21.150   6.416  25.432  1.00  0.00     0.105 A 
HETATM    2  C3  UNL     1      21.880   5.733  24.441  1.00  0.00     0.058 A 
HETATM    3  C4  UNL     1      22.053   6.289  23.197  1.00  0.00     0.054 A 
HETATM    4  C5  UNL     1      22.791   5.566  22.242  1.00  0.00     0.199 A 
HETATM    5  O2  UNL     1      23.199   4.514  22.627  1.00  0.00    -0.286 OA
HETATM    6  C6  UNL     1      22.947   6.138  21.020  1.00  0.00     0.062 A 
HETATM    7  C7  UNL     1      22.384   7.399  20.752  1.00  0.00     0.092 A 
HETATM    8  C8  UNL     1      22.548   7.971  19.509  1.00  0.00     0.057 A 
HETATM    9  C9  UNL     1      23.247   7.348  18.520  1.00  0.00     0.066 A 
HETATM   10  C11 UNL     1      23.804   6.109  18.769  1.00  0.00     0.103 A 
HETATM   11  O4  UNL     1      24.502   5.298  18.043  1.00  0.00    -0.313 OA
HETATM   12  C12 UNL     1      24.826   4.222  18.686  1.00  0.00     0.056 A 
HETATM   13  C13 UNL     1      25.626   3.067  18.169  1.00  0.00     0.077 C 
HETATM   14  C14 UNL     1      24.304   4.282  19.995  1.00  0.00    -0.018 A 
HETATM   15  C15 UNL     1      24.510   3.194  20.960  1.00  0.00     0.052 C 
HETATM   16  C16 UNL     1      23.661   5.486  20.026  1.00  0.00     0.024 A 
HETATM   17  O5  UNL     1      21.707   8.026  21.682  1.00  0.00    -0.306 OA
HETATM   18  C17 UNL     1      21.532   7.514  22.867  1.00  0.00     0.126 A 
HETATM   19  C18 UNL     1      20.811   8.194  23.840  1.00  0.00     0.137 A 
HETATM   20  C19 UNL     1      20.643   7.632  25.078  1.00  0.00     0.135 A 
ENDROOT
BRANCH   9  21
HETATM   21  C10 UNL     1      23.408   7.966  17.221  1.00  0.00     0.267 C 
HETATM   22  N1  UNL     1      22.290   8.366  16.420  1.00  0.00    -0.057 NA
HETATM   23  O3  UNL     1      24.543   8.185  16.721  1.00  0.00    -0.271 OA
ENDBRANCH   9  21
BRANCH  19  24
HETATM   24  O6  UNL     1      20.295   9.413  23.505  1.00  0.00    -0.356 OA
ATOM     25  H6  UNL     1      20.477  10.141  24.088  1.00  0.00     0.218 HD
ENDBRANCH  19  24
BRANCH  20  26
HETATM   26  O7  UNL     1      19.921   8.339  26.017  1.00  0.00    -0.356 OA
ATOM     27  H7  UNL     1      19.115   8.762  25.743  1.00  0.00     0.218 HD
ENDBRANCH  20  26
BRANCH   1  28
HETATM   28  O1  UNL     1      20.979   5.862  26.667  1.00  0.00    -0.353 OA
HETATM   29  C1  UNL     1      22.021   5.578  27.559  1.00  0.00     0.210 C 
ENDBRANCH   1  28
TORSDOF 4
ENDMDL
