MODEL 1
REMARK VINA RESULT: -9.317094368      0.000      0.000
REMARK  10 active torsions:
REMARK  status: ('A' for Active; 'I' for Inactive)
REMARK    1  A    between atoms: S1_2  and  C2_3 
REMARK    2  A    between atoms: C2_3  and  N1_4 
REMARK    3  A    between atoms: N4_8  and  C3_9 
REMARK    4  A    between atoms: C4_12  and  N6_13 
REMARK    5  A    between atoms: N6_13  and  N7_15 
REMARK    6  A    between atoms: C5_20  and  N9_21 
REMARK    7  A    between atoms: N9_21  and  N10_22 
REMARK    8  A    between atoms: C6_24  and  C8_26 
REMARK    9  A    between atoms: C11_29  and  C12_30 
REMARK   10  A    between atoms: C15_39  and  N14_40 
ROOT
HETATM    1  C3  UNL     1       3.539  15.519  22.436  1.00  0.00     0.735 A 
HETATM    2  N5  UNL     1       2.320  15.848  22.897  1.00  0.00    -0.018 N 
ATOM      3  H5  UNL     1       1.495  15.597  22.353  1.00  0.00     0.203 HD
HETATM    4  C4  UNL     1       2.167  16.501  24.061  1.00  0.00     0.714 A 
HETATM    5  N8  UNL     1       3.243  16.827  24.765  1.00  0.00    -0.145 N 
ATOM      6  H8  UNL     1       3.115  17.324  25.647  1.00  0.00     0.188 HD
HETATM    7  C5  UNL     1       4.519  16.528  24.363  1.00  0.00     0.309 A 
HETATM    8  N13 UNL     1       4.593  15.865  23.174  1.00  0.00    -0.144 N 
ATOM      9  H13 UNL     1       5.519  15.616  22.826  1.00  0.00     0.188 HD
ENDROOT
BRANCH   7  10
HETATM   10  N9  UNL     1       5.492  16.819  24.984  1.00  0.00    -0.286 NA
BRANCH  10  11
HETATM   11  N10 UNL     1       6.535  17.124  25.641  1.00  0.00    -0.236 N 
HETATM   12  C6  UNL     1       7.001  18.348  25.771  1.00  0.00     0.045 C 
HETATM   13  C7  UNL     1       6.275  19.487  25.105  1.00  0.00     0.071 C 
ATOM     14  H10 UNL     1       7.046  16.369  26.099  1.00  0.00     0.201 HD
BRANCH  12  15
HETATM   15  C8  UNL     1       8.175  18.581  26.570  1.00  0.00    -0.012 A 
HETATM   16  C9  UNL     1       8.291  19.643  27.443  1.00  0.00     0.014 A 
HETATM   17  C10 UNL     1       9.485  19.842  28.161  1.00  0.00     0.016 A 
HETATM   18  C11 UNL     1      10.526  18.964  27.980  1.00  0.00     0.004 A 
HETATM   19  C13 UNL     1      10.406  17.897  27.103  1.00  0.00     0.016 A 
HETATM   20  C14 UNL     1       9.244  17.723  26.416  1.00  0.00     0.014 A 
BRANCH  18  21
HETATM   21  C12 UNL     1      11.780  19.149  28.729  1.00  0.00     0.120 C 
HETATM   22  N11 UNL     1      12.042  18.352  29.727  1.00  0.00    -0.387 N 
ATOM     23 2H11 UNL     1      11.421  17.592  30.005  1.00  0.00     0.157 HD
ATOM     24 1H11 UNL     1      12.911  18.481  30.246  1.00  0.00     0.157 HD
HETATM   25  N12 UNL     1      12.637  20.200  28.345  1.00  0.00    -0.082 NA
ENDBRANCH  18  21
ENDBRANCH  12  15
ENDBRANCH  10  11
ENDBRANCH   7  10
BRANCH   4  26
HETATM   26  N6  UNL     1       0.993  16.847  24.526  1.00  0.00    -0.138 N 
ATOM     27  H6  UNL     1       0.699  17.819  24.432  1.00  0.00     0.205 HD
BRANCH  26  28
HETATM   28  N7  UNL     1       0.129  15.953  25.141  1.00  0.00    -0.331 N 
ATOM     29  H72 UNL     1      -0.392  15.315  24.540  1.00  0.00     0.177 HD
ATOM     30  H71 UNL     1      -0.002  15.912  26.152  1.00  0.00     0.177 HD
ENDBRANCH  26  28
ENDBRANCH   4  26
BRANCH   1  31
HETATM   31  N4  UNL     1       3.735  14.831  21.215  1.00  0.00     0.108 N 
HETATM   32  N3  UNL     1       3.472  13.562  20.959  1.00  0.00     0.033 NA
HETATM   33  N2  UNL     1       3.793  13.333  19.687  1.00  0.00    -0.208 N 
HETATM   34  N1  UNL     1       4.253  14.401  19.116  1.00  0.00    -0.100 N 
ATOM     35  H2  UNL     1       3.691  12.431  19.222  1.00  0.00     0.206 HD
HETATM   36  C15 UNL     1       4.221  15.364  20.075  1.00  0.00     0.729 A 
BRANCH  34  37
HETATM   37  C2  UNL     1       4.728  14.634  17.770  1.00  0.00     0.242 C 
BRANCH  37  38
HETATM   38  S1  UNL     1       4.319  13.150  16.796  1.00  0.00    -0.151 SA
HETATM   39  C1  UNL     1       5.672  11.950  16.957  1.00  0.00     0.091 C 
ENDBRANCH  37  38
ENDBRANCH  34  37
BRANCH  36  40
HETATM   40  N14 UNL     1       4.570  16.589  19.891  1.00  0.00    -0.231 N 
ATOM     41 2H14 UNL     1       4.249  17.205  19.144  1.00  0.00     0.174 HD
ATOM     42 1H14 UNL     1       5.245  17.090  20.467  1.00  0.00     0.174 HD
ENDBRANCH  36  40
ENDBRANCH   1  31
TORSDOF 10
ENDMDL
MODEL 2
REMARK VINA RESULT: -9.175018615      0.537      1.004
REMARK  10 active torsions:
REMARK  status: ('A' for Active; 'I' for Inactive)
REMARK    1  A    between atoms: S1_2  and  C2_3 
REMARK    2  A    between atoms: C2_3  and  N1_4 
REMARK    3  A    between atoms: N4_8  and  C3_9 
REMARK    4  A    between atoms: C4_12  and  N6_13 
REMARK    5  A    between atoms: N6_13  and  N7_15 
REMARK    6  A    between atoms: C5_20  and  N9_21 
REMARK    7  A    between atoms: N9_21  and  N10_22 
REMARK    8  A    between atoms: C6_24  and  C8_26 
REMARK    9  A    between atoms: C11_29  and  C12_30 
REMARK   10  A    between atoms: C15_39  and  N14_40 
ROOT
HETATM    1  C3  UNL     1       3.523  15.497  22.508  1.00  0.00     0.735 A 
HETATM    2  N5  UNL     1       2.333  15.904  22.984  1.00  0.00    -0.018 N 
ATOM      3  H5  UNL     1       1.493  15.750  22.427  1.00  0.00     0.203 HD
HETATM    4  C4  UNL     1       2.229  16.512  24.178  1.00  0.00     0.714 A 
HETATM    5  N8  UNL     1       3.324  16.713  24.897  1.00  0.00    -0.145 N 
ATOM      6  H8  UNL     1       3.234  17.175  25.802  1.00  0.00     0.188 HD
HETATM    7  C5  UNL     1       4.573  16.328  24.483  1.00  0.00     0.309 A 
HETATM    8  N13 UNL     1       4.598  15.718  23.264  1.00  0.00    -0.144 N 
ATOM      9  H13 UNL     1       5.502  15.410  22.905  1.00  0.00     0.188 HD
ENDROOT
BRANCH   7  10
HETATM   10  N9  UNL     1       5.564  16.506  25.118  1.00  0.00    -0.286 NA
BRANCH  10  11
HETATM   11  N10 UNL     1       6.625  16.691  25.791  1.00  0.00    -0.236 N 
HETATM   12  C6  UNL     1       7.191  17.864  25.982  1.00  0.00     0.045 C 
HETATM   13  C7  UNL     1       6.567  19.090  25.370  1.00  0.00     0.071 C 
ATOM     14  H10 UNL     1       7.068  15.874  26.213  1.00  0.00     0.201 HD
BRANCH  12  15
HETATM   15  C8  UNL     1       8.376  17.958  26.793  1.00  0.00    -0.012 A 
HETATM   16  C9  UNL     1       9.234  16.897  26.995  1.00  0.00     0.014 A 
HETATM   17  C10 UNL     1      10.351  17.042  27.838  1.00  0.00     0.016 A 
HETATM   18  C11 UNL     1      10.572  18.251  28.452  1.00  0.00     0.004 A 
HETATM   19  C13 UNL     1       9.708  19.315  28.247  1.00  0.00     0.016 A 
HETATM   20  C14 UNL     1       8.632  19.156  27.428  1.00  0.00     0.014 A 
BRANCH  18  21
HETATM   21  C12 UNL     1      11.740  18.425  29.331  1.00  0.00     0.120 C 
HETATM   22  N11 UNL     1      12.076  17.453  30.132  1.00  0.00    -0.387 N 
ATOM     23 2H11 UNL     1      11.574  16.566  30.166  1.00  0.00     0.157 HD
ATOM     24 1H11 UNL     1      12.886  17.574  30.741  1.00  0.00     0.157 HD
HETATM   25  N12 UNL     1      12.434  19.651  29.283  1.00  0.00    -0.082 NA
ENDBRANCH  18  21
ENDBRANCH  12  15
ENDBRANCH  10  11
ENDBRANCH   7  10
BRANCH   4  26
HETATM   26  N6  UNL     1       1.085  16.931  24.657  1.00  0.00    -0.138 N 
ATOM     27  H6  UNL     1       0.873  17.928  24.608  1.00  0.00     0.205 HD
BRANCH  26  28
HETATM   28  N7  UNL     1       0.148  16.085  25.230  1.00  0.00    -0.331 N 
ATOM     29  H72 UNL     1       0.138  16.015  26.248  1.00  0.00     0.177 HD
ATOM     30  H71 UNL     1      -0.518  15.539  24.683  1.00  0.00     0.177 HD
ENDBRANCH  26  28
ENDBRANCH   4  26
BRANCH   1  31
HETATM   31  N4  UNL     1       3.667  14.854  21.256  1.00  0.00     0.108 N 
HETATM   32  N3  UNL     1       3.283  13.632  20.934  1.00  0.00     0.033 NA
HETATM   33  N2  UNL     1       3.598  13.436  19.655  1.00  0.00    -0.208 N 
HETATM   34  N1  UNL     1       4.170  14.479  19.143  1.00  0.00    -0.100 N 
ATOM     35  H2  UNL     1       3.414  12.572  19.144  1.00  0.00     0.206 HD
HETATM   36  C15 UNL     1       4.219  15.392  20.150  1.00  0.00     0.729 A 
BRANCH  34  37
HETATM   37  C2  UNL     1       4.685  14.730  17.815  1.00  0.00     0.242 C 
BRANCH  37  38
HETATM   38  S1  UNL     1       4.282  13.271  16.803  1.00  0.00    -0.151 SA
HETATM   39  C1  UNL     1       5.644  12.076  16.924  1.00  0.00     0.091 C 
ENDBRANCH  37  38
ENDBRANCH  34  37
BRANCH  36  40
HETATM   40  N14 UNL     1       4.691  16.584  20.031  1.00  0.00    -0.231 N 
ATOM     41 2H14 UNL     1       5.367  17.033  20.648  1.00  0.00     0.174 HD
ATOM     42 1H14 UNL     1       4.415  17.244  19.303  1.00  0.00     0.174 HD
ENDBRANCH  36  40
ENDBRANCH   1  31
TORSDOF 10
ENDMDL
MODEL 3
REMARK VINA RESULT: -9.096802356      1.044      1.514
REMARK  10 active torsions:
REMARK  status: ('A' for Active; 'I' for Inactive)
REMARK    1  A    between atoms: S1_2  and  C2_3 
REMARK    2  A    between atoms: C2_3  and  N1_4 
REMARK    3  A    between atoms: N4_8  and  C3_9 
REMARK    4  A    between atoms: C4_12  and  N6_13 
REMARK    5  A    between atoms: N6_13  and  N7_15 
REMARK    6  A    between atoms: C5_20  and  N9_21 
REMARK    7  A    between atoms: N9_21  and  N10_22 
REMARK    8  A    between atoms: C6_24  and  C8_26 
REMARK    9  A    between atoms: C11_29  and  C12_30 
REMARK   10  A    between atoms: C15_39  and  N14_40 
ROOT
HETATM    1  C3  UNL     1       3.700  15.942  22.210  1.00  0.00     0.735 A 
HETATM    2  N5  UNL     1       2.460  16.208  22.656  1.00  0.00    -0.018 N 
ATOM      3  H5  UNL     1       1.669  16.123  22.017  1.00  0.00     0.203 HD
HETATM    4  C4  UNL     1       2.242  16.586  23.927  1.00  0.00     0.714 A 
HETATM    5  N8  UNL     1       3.273  16.697  24.753  1.00  0.00    -0.145 N 
ATOM      6  H8  UNL     1       3.095  16.985  25.716  1.00  0.00     0.188 HD
HETATM    7  C5  UNL     1       4.566  16.444  24.375  1.00  0.00     0.309 A 
HETATM    8  N13 UNL     1       4.707  16.066  23.073  1.00  0.00    -0.144 N 
ATOM      9  H13 UNL     1       5.648  15.865  22.736  1.00  0.00     0.188 HD
ENDROOT
BRANCH   7  10
HETATM   10  N9  UNL     1       5.499  16.546  25.106  1.00  0.00    -0.286 NA
BRANCH  10  11
HETATM   11  N10 UNL     1       6.501  16.651  25.880  1.00  0.00    -0.236 N 
HETATM   12  C6  UNL     1       7.140  17.776  26.121  1.00  0.00     0.045 C 
HETATM   13  C7  UNL     1       6.682  19.042  25.445  1.00  0.00     0.071 C 
ATOM     14  H10 UNL     1       6.832  15.807  26.347  1.00  0.00     0.201 HD
BRANCH  12  15
HETATM   15  C8  UNL     1       8.244  17.784  27.045  1.00  0.00    -0.012 A 
HETATM   16  C9  UNL     1       8.409  18.757  28.008  1.00  0.00     0.014 A 
HETATM   17  C10 UNL     1       9.536  18.734  28.850  1.00  0.00     0.016 A 
HETATM   18  C11 UNL     1      10.462  17.729  28.700  1.00  0.00     0.004 A 
HETATM   19  C13 UNL     1      10.291  16.752  27.731  1.00  0.00     0.016 A 
HETATM   20  C14 UNL     1       9.196  16.793  26.925  1.00  0.00     0.014 A 
BRANCH  18  21
HETATM   21  C12 UNL     1      11.642  17.682  29.577  1.00  0.00     0.120 C 
HETATM   22  N11 UNL     1      12.257  18.794  29.867  1.00  0.00    -0.387 N 
ATOM     23 2H11 UNL     1      11.946  19.704  29.524  1.00  0.00     0.157 HD
ATOM     24 1H11 UNL     1      13.076  18.762  30.475  1.00  0.00     0.157 HD
HETATM   25  N12 UNL     1      12.072  16.426  30.050  1.00  0.00    -0.082 NA
ENDBRANCH  18  21
ENDBRANCH  12  15
ENDBRANCH  10  11
ENDBRANCH   7  10
BRANCH   4  26
HETATM   26  N6  UNL     1       1.046  16.865  24.383  1.00  0.00    -0.138 N 
ATOM     27  H6  UNL     1       0.654  17.786  24.186  1.00  0.00     0.205 HD
BRANCH  26  28
HETATM   28  N7  UNL     1       0.289  15.969  25.122  1.00  0.00    -0.331 N 
ATOM     29  H72 UNL     1       0.359  14.981  24.876  1.00  0.00     0.177 HD
ATOM     30  H71 UNL     1      -0.324  16.255  25.885  1.00  0.00     0.177 HD
ENDBRANCH  26  28
ENDBRANCH   4  26
BRANCH   1  31
HETATM   31  N4  UNL     1       3.963  15.541  20.878  1.00  0.00     0.108 N 
HETATM   32  N3  UNL     1       3.795  16.253  19.779  1.00  0.00     0.033 NA
HETATM   33  N2  UNL     1       4.178  15.500  18.749  1.00  0.00    -0.208 N 
HETATM   34  N1  UNL     1       4.583  14.333  19.142  1.00  0.00    -0.100 N 
ATOM     35  H2  UNL     1       4.154  15.802  17.776  1.00  0.00     0.206 HD
HETATM   36  C15 UNL     1       4.454  14.345  20.495  1.00  0.00     0.729 A 
BRANCH  34  37
HETATM   37  C2  UNL     1       5.077  13.195  18.398  1.00  0.00     0.242 C 
BRANCH  37  38
HETATM   38  S1  UNL     1       3.635  12.395  17.626  1.00  0.00    -0.151 SA
HETATM   39  C1  UNL     1       4.030  10.653  17.305  1.00  0.00     0.091 C 
ENDBRANCH  37  38
ENDBRANCH  34  37
BRANCH  36  40
HETATM   40  N14 UNL     1       4.787  13.370  21.267  1.00  0.00    -0.231 N 
ATOM     41 2H14 UNL     1       5.367  12.569  21.018  1.00  0.00     0.174 HD
ATOM     42 1H14 UNL     1       4.479  13.268  22.234  1.00  0.00     0.174 HD
ENDBRANCH  36  40
ENDBRANCH   1  31
TORSDOF 10
ENDMDL
MODEL 4
REMARK VINA RESULT: -8.948045120      1.073      1.668
REMARK  10 active torsions:
REMARK  status: ('A' for Active; 'I' for Inactive)
REMARK    1  A    between atoms: S1_2  and  C2_3 
REMARK    2  A    between atoms: C2_3  and  N1_4 
REMARK    3  A    between atoms: N4_8  and  C3_9 
REMARK    4  A    between atoms: C4_12  and  N6_13 
REMARK    5  A    between atoms: N6_13  and  N7_15 
REMARK    6  A    between atoms: C5_20  and  N9_21 
REMARK    7  A    between atoms: N9_21  and  N10_22 
REMARK    8  A    between atoms: C6_24  and  C8_26 
REMARK    9  A    between atoms: C11_29  and  C12_30 
REMARK   10  A    between atoms: C15_39  and  N14_40 
ROOT
HETATM    1  C3  UNL     1       3.613  16.254  22.219  1.00  0.00     0.735 A 
HETATM    2  N5  UNL     1       2.399  16.466  22.757  1.00  0.00    -0.018 N 
ATOM      3  H5  UNL     1       1.575  16.439  22.156  1.00  0.00     0.203 HD
HETATM    4  C4  UNL     1       2.250  16.712  24.069  1.00  0.00     0.714 A 
HETATM    5  N8  UNL     1       3.324  16.749  24.845  1.00  0.00    -0.145 N 
ATOM      6  H8  UNL     1       3.199  16.938  25.840  1.00  0.00     0.188 HD
HETATM    7  C5  UNL     1       4.595  16.544  24.374  1.00  0.00     0.309 A 
HETATM    8  N13 UNL     1       4.666  16.299  23.034  1.00  0.00    -0.144 N 
ATOM      9  H13 UNL     1       5.588  16.139  22.628  1.00  0.00     0.188 HD
ENDROOT
BRANCH   7  10
HETATM   10  N9  UNL     1       5.567  16.579  25.060  1.00  0.00    -0.286 NA
BRANCH  10  11
HETATM   11  N10 UNL     1       6.609  16.619  25.785  1.00  0.00    -0.236 N 
HETATM   12  C6  UNL     1       7.299  17.711  26.036  1.00  0.00     0.045 C 
HETATM   13  C7  UNL     1       6.855  19.018  25.433  1.00  0.00     0.071 C 
ATOM     14  H10 UNL     1       6.932  15.746  26.202  1.00  0.00     0.201 HD
BRANCH  12  15
HETATM   15  C8  UNL     1       8.447  17.645  26.903  1.00  0.00    -0.012 A 
HETATM   16  C9  UNL     1       9.433  16.690  26.769  1.00  0.00     0.014 A 
HETATM   17  C10 UNL     1      10.506  16.649  27.679  1.00  0.00     0.016 A 
HETATM   18  C11 UNL     1      10.555  17.574  28.695  1.00  0.00     0.004 A 
HETATM   19  C13 UNL     1       9.563  18.533  28.824  1.00  0.00     0.016 A 
HETATM   20  C14 UNL     1       8.532  18.555  27.935  1.00  0.00     0.014 A 
BRANCH  18  21
HETATM   21  C12 UNL     1      11.674  17.555  29.651  1.00  0.00     0.120 C 
HETATM   22  N11 UNL     1      12.062  16.412  30.144  1.00  0.00    -0.387 N 
ATOM     23 2H11 UNL     1      11.633  15.524  29.884  1.00  0.00     0.157 HD
ATOM     24 1H11 UNL     1      12.837  16.399  30.807  1.00  0.00     0.157 HD
HETATM   25  N12 UNL     1      12.266  18.783  30.010  1.00  0.00    -0.082 NA
ENDBRANCH  18  21
ENDBRANCH  12  15
ENDBRANCH  10  11
ENDBRANCH   7  10
BRANCH   4  26
HETATM   26  N6  UNL     1       1.081  16.936  24.615  1.00  0.00    -0.138 N 
ATOM     27  H6  UNL     1       0.759  17.901  24.696  1.00  0.00     0.205 HD
BRANCH  26  28
HETATM   28  N7  UNL     1       0.260  15.924  25.089  1.00  0.00    -0.331 N 
ATOM     29  H72 UNL     1       0.059  15.912  26.089  1.00  0.00     0.177 HD
ATOM     30  H71 UNL     1      -0.141  15.205  24.487  1.00  0.00     0.177 HD
ENDBRANCH  26  28
ENDBRANCH   4  26
BRANCH   1  31
HETATM   31  N4  UNL     1       3.804  15.991  20.842  1.00  0.00     0.108 N 
HETATM   32  N3  UNL     1       3.438  16.745  19.823  1.00  0.00     0.033 NA
HETATM   33  N2  UNL     1       3.823  16.130  18.707  1.00  0.00    -0.208 N 
HETATM   34  N1  UNL     1       4.420  15.010  18.966  1.00  0.00    -0.100 N 
ATOM     35  H2  UNL     1       3.667  16.494  17.766  1.00  0.00     0.206 HD
HETATM   36  C15 UNL     1       4.417  14.908  20.322  1.00  0.00     0.729 A 
BRANCH  34  37
HETATM   37  C2  UNL     1       4.995  14.011  18.093  1.00  0.00     0.242 C 
BRANCH  37  38
HETATM   38  S1  UNL     1       3.808  12.633  18.004  1.00  0.00    -0.151 SA
HETATM   39  C1  UNL     1       4.681  11.137  17.460  1.00  0.00     0.091 C 
ENDBRANCH  37  38
ENDBRANCH  34  37
BRANCH  36  40
HETATM   40  N14 UNL     1       4.953  13.940  20.981  1.00  0.00    -0.231 N 
ATOM     41 2H14 UNL     1       5.848  13.960  21.469  1.00  0.00     0.174 HD
ATOM     42 1H14 UNL     1       4.547  13.008  21.071  1.00  0.00     0.174 HD
ENDBRANCH  36  40
ENDBRANCH   1  31
TORSDOF 10
ENDMDL
MODEL 5
REMARK VINA RESULT: -8.825460261      0.919      1.221
REMARK  10 active torsions:
REMARK  status: ('A' for Active; 'I' for Inactive)
REMARK    1  A    between atoms: S1_2  and  C2_3 
REMARK    2  A    between atoms: C2_3  and  N1_4 
REMARK    3  A    between atoms: N4_8  and  C3_9 
REMARK    4  A    between atoms: C4_12  and  N6_13 
REMARK    5  A    between atoms: N6_13  and  N7_15 
REMARK    6  A    between atoms: C5_20  and  N9_21 
REMARK    7  A    between atoms: N9_21  and  N10_22 
REMARK    8  A    between atoms: C6_24  and  C8_26 
REMARK    9  A    between atoms: C11_29  and  C12_30 
REMARK   10  A    between atoms: C15_39  and  N14_40 
ROOT
HETATM    1  C3  UNL     1       3.572  15.786  22.258  1.00  0.00     0.735 A 
HETATM    2  N5  UNL     1       2.427  16.425  22.559  1.00  0.00    -0.018 N 
ATOM      3  H5  UNL     1       1.637  16.363  21.918  1.00  0.00     0.203 HD
HETATM    4  C4  UNL     1       2.306  17.144  23.687  1.00  0.00     0.714 A 
HETATM    5  N8  UNL     1       3.337  17.223  24.517  1.00  0.00    -0.145 N 
ATOM      6  H8  UNL     1       3.233  17.773  25.370  1.00  0.00     0.188 HD
HETATM    7  C5  UNL     1       4.536  16.602  24.282  1.00  0.00     0.309 A 
HETATM    8  N13 UNL     1       4.583  15.891  23.119  1.00  0.00    -0.144 N 
ATOM      9  H13 UNL     1       5.452  15.408  22.892  1.00  0.00     0.188 HD
ENDROOT
BRANCH   7  10
HETATM   10  N9  UNL     1       5.470  16.670  25.017  1.00  0.00    -0.286 NA
BRANCH  10  11
HETATM   11  N10 UNL     1       6.468  16.750  25.798  1.00  0.00    -0.236 N 
HETATM   12  C6  UNL     1       7.114  17.864  26.068  1.00  0.00     0.045 C 
HETATM   13  C7  UNL     1       6.669  19.149  25.421  1.00  0.00     0.071 C 
ATOM     14  H10 UNL     1       6.790  15.892  26.246  1.00  0.00     0.201 HD
BRANCH  12  15
HETATM   15  C8  UNL     1       8.213  17.842  26.998  1.00  0.00    -0.012 A 
HETATM   16  C9  UNL     1       8.347  18.754  28.024  1.00  0.00     0.014 A 
HETATM   17  C10 UNL     1       9.470  18.707  28.870  1.00  0.00     0.016 A 
HETATM   18  C11 UNL     1      10.424  17.741  28.660  1.00  0.00     0.004 A 
HETATM   19  C13 UNL     1      10.285  16.825  27.629  1.00  0.00     0.016 A 
HETATM   20  C14 UNL     1       9.192  16.887  26.820  1.00  0.00     0.014 A 
BRANCH  18  21
HETATM   21  C12 UNL     1      11.601  17.669  29.540  1.00  0.00     0.120 C 
HETATM   22  N11 UNL     1      12.179  18.776  29.911  1.00  0.00    -0.387 N 
ATOM     23 2H11 UNL     1      11.841  19.697  29.631  1.00  0.00     0.157 HD
ATOM     24 1H11 UNL     1      12.996  18.727  30.522  1.00  0.00     0.157 HD
HETATM   25  N12 UNL     1      12.069  16.396  29.927  1.00  0.00    -0.082 NA
ENDBRANCH  18  21
ENDBRANCH  12  15
ENDBRANCH  10  11
ENDBRANCH   7  10
BRANCH   4  26
HETATM   26  N6  UNL     1       1.208  17.787  23.997  1.00  0.00    -0.138 N 
ATOM     27  H6  UNL     1       0.618  17.412  24.740  1.00  0.00     0.205 HD
BRANCH  26  28
HETATM   28  N7  UNL     1       0.810  18.954  23.363  1.00  0.00    -0.331 N 
ATOM     29  H72 UNL     1       0.587  18.896  22.369  1.00  0.00     0.177 HD
ATOM     30  H71 UNL     1       0.733  19.851  23.843  1.00  0.00     0.177 HD
ENDBRANCH  26  28
ENDBRANCH   4  26
BRANCH   1  31
HETATM   31  N4  UNL     1       3.733  15.020  21.079  1.00  0.00     0.108 N 
HETATM   32  N3  UNL     1       3.438  13.745  20.906  1.00  0.00     0.033 NA
HETATM   33  N2  UNL     1       3.734  13.431  19.646  1.00  0.00    -0.208 N 
HETATM   34  N1  UNL     1       4.208  14.451  19.003  1.00  0.00    -0.100 N 
ATOM     35  H2  UNL     1       3.605  12.504  19.239  1.00  0.00     0.206 HD
HETATM   36  C15 UNL     1       4.212  15.471  19.902  1.00  0.00     0.729 A 
BRANCH  34  37
HETATM   37  C2  UNL     1       4.667  14.590  17.639  1.00  0.00     0.242 C 
BRANCH  37  38
HETATM   38  S1  UNL     1       4.320  13.014  16.796  1.00  0.00    -0.151 SA
HETATM   39  C1  UNL     1       5.708  11.878  17.079  1.00  0.00     0.091 C 
ENDBRANCH  37  38
ENDBRANCH  34  37
BRANCH  36  40
HETATM   40  N14 UNL     1       4.585  16.675  19.637  1.00  0.00    -0.231 N 
ATOM     41 2H14 UNL     1       5.463  16.956  19.202  1.00  0.00     0.174 HD
ATOM     42 1H14 UNL     1       4.044  17.510  19.863  1.00  0.00     0.174 HD
ENDBRANCH  36  40
ENDBRANCH   1  31
TORSDOF 10
ENDMDL
