MODEL 1
REMARK VINA RESULT: -8.776676965      0.000      0.000
REMARK  6 active torsions:
REMARK  status: ('A' for Active; 'I' for Inactive)
REMARK    1  A    between atoms: C4_4  and  C5_5 
REMARK    2  A    between atoms: C6_6  and  C7_7 
REMARK    3  A    between atoms: C9_9  and  C10_10 
REMARK    4  A    between atoms: C10_10  and  C12_12 
REMARK    5  A    between atoms: C19_19  and  O1_20 
REMARK    6  A    between atoms: C20_22  and  O2_23 
ROOT
HETATM    1  C12 UNL     1     -21.266  40.247  -1.908  1.00  0.00    -0.007 C 
HETATM    2  C13 UNL     1     -22.571  39.955  -2.617  1.00  0.00     0.006 C 
HETATM    3  C14 UNL     1     -22.661  40.701  -3.911  1.00  0.00     0.012 C 
HETATM    4  C15 UNL     1     -21.479  40.388  -4.745  1.00  0.00    -0.012 C 
HETATM    5  C16 UNL     1     -21.348  38.935  -5.104  1.00  0.00     0.018 C 
HETATM    6  C17 UNL     1     -20.237  40.892  -3.996  1.00  0.00    -0.001 C 
HETATM    7  C18 UNL     1     -19.186  40.761  -5.040  1.00  0.00     0.039 C 
HETATM    8  C19 UNL     1     -19.909  40.890  -6.387  1.00  0.00     0.148 C 
HETATM    9  C20 UNL     1     -21.364  41.201  -6.010  1.00  0.00     0.155 C 
HETATM   10  C21 UNL     1     -20.066  40.019  -2.802  1.00  0.00     0.011 C 
ENDROOT
BRANCH   1  11
HETATM   11  C10 UNL     1     -21.187  39.504  -0.604  1.00  0.00     0.008 C 
HETATM   12  C11 UNL     1     -22.532  38.862  -0.343  1.00  0.00     0.014 C 
BRANCH  11  13
HETATM   13  C9  UNL     1     -20.084  38.540  -0.532  1.00  0.00    -0.015 C 
HETATM   14  C7  UNL     1     -19.398  38.286   0.579  1.00  0.00    -0.065 C 
HETATM   15  C8  UNL     1     -19.801  39.030   1.777  1.00  0.00     0.048 C 
BRANCH  14  16
HETATM   16  C6  UNL     1     -18.331  37.329   0.576  1.00  0.00     0.006 C 
HETATM   17  C5  UNL     1     -18.388  36.154   0.002  1.00  0.00     0.001 C 
BRANCH  17  18
HETATM   18  C4  UNL     1     -17.245  35.218   0.042  1.00  0.00     0.002 C 
HETATM   19  C2  UNL     1     -16.645  34.819  -1.057  1.00  0.00    -0.088 C 
HETATM   20  C1  UNL     1     -15.500  33.875  -0.944  1.00  0.00     0.043 C 
HETATM   21  C3  UNL     1     -17.094  35.298  -2.395  1.00  0.00     0.043 C 
ENDBRANCH  17  18
ENDBRANCH  14  16
ENDBRANCH  11  13
ENDBRANCH   1  11
BRANCH   9  22
HETATM   22  O2  UNL     1     -21.413  42.555  -5.695  1.00  0.00    -0.392 OA
ATOM     23  H2  UNL     1     -22.020  42.993  -6.281  1.00  0.00     0.210 HD
ENDBRANCH   9  22
BRANCH   8  24
HETATM   24  O1  UNL     1     -19.362  41.868  -7.179  1.00  0.00    -0.393 OA
ATOM     25  H1  UNL     1     -19.999  42.249  -7.773  1.00  0.00     0.210 HD
ENDBRANCH   8  24
TORSDOF 6
ENDMDL
MODEL 2
REMARK VINA RESULT: -8.733535754      3.870      8.059
REMARK  6 active torsions:
REMARK  status: ('A' for Active; 'I' for Inactive)
REMARK    1  A    between atoms: C4_4  and  C5_5 
REMARK    2  A    between atoms: C6_6  and  C7_7 
REMARK    3  A    between atoms: C9_9  and  C10_10 
REMARK    4  A    between atoms: C10_10  and  C12_12 
REMARK    5  A    between atoms: C19_19  and  O1_20 
REMARK    6  A    between atoms: C20_22  and  O2_23 
ROOT
HETATM    1  C12 UNL     1     -19.465  38.093  -0.008  1.00  0.00    -0.007 C 
HETATM    2  C13 UNL     1     -19.490  36.700  -0.600  1.00  0.00     0.006 C 
HETATM    3  C14 UNL     1     -18.294  35.911  -0.172  1.00  0.00     0.012 C 
HETATM    4  C15 UNL     1     -18.213  35.897   1.306  1.00  0.00    -0.012 C 
HETATM    5  C16 UNL     1     -19.398  35.267   1.980  1.00  0.00     0.018 C 
HETATM    6  C17 UNL     1     -18.012  37.347   1.771  1.00  0.00    -0.001 C 
HETATM    7  C18 UNL     1     -17.685  37.155   3.209  1.00  0.00     0.039 C 
HETATM    8  C19 UNL     1     -17.052  35.762   3.318  1.00  0.00     0.148 C 
HETATM    9  C20 UNL     1     -16.960  35.272   1.866  1.00  0.00     0.155 C 
HETATM   10  C21 UNL     1     -19.282  38.072   1.495  1.00  0.00     0.011 C 
ENDROOT
BRANCH   1  11
HETATM   11  C10 UNL     1     -20.663  38.885  -0.451  1.00  0.00     0.008 C 
HETATM   12  C11 UNL     1     -21.208  39.630   0.749  1.00  0.00     0.014 C 
BRANCH  11  13
HETATM   13  C9  UNL     1     -20.406  39.772  -1.590  1.00  0.00    -0.015 C 
HETATM   14  C7  UNL     1     -20.675  39.449  -2.851  1.00  0.00    -0.065 C 
HETATM   15  C8  UNL     1     -21.264  38.123  -3.073  1.00  0.00     0.048 C 
BRANCH  14  16
HETATM   16  C6  UNL     1     -20.397  40.367  -3.916  1.00  0.00     0.006 C 
HETATM   17  C5  UNL     1     -21.297  41.105  -4.515  1.00  0.00     0.001 C 
BRANCH  17  18
HETATM   18  C4  UNL     1     -20.935  42.032  -5.609  1.00  0.00     0.002 C 
HETATM   19  C2  UNL     1     -21.350  41.837  -6.840  1.00  0.00    -0.088 C 
HETATM   20  C1  UNL     1     -20.947  42.809  -7.892  1.00  0.00     0.043 C 
HETATM   21  C3  UNL     1     -22.208  40.669  -7.186  1.00  0.00     0.043 C 
ENDBRANCH  17  18
ENDBRANCH  14  16
ENDBRANCH  11  13
ENDBRANCH   1  11
BRANCH   9  22
HETATM   22  O2  UNL     1     -15.846  35.888   1.306  1.00  0.00    -0.392 OA
ATOM     23  H2  UNL     1     -15.074  35.362   1.481  1.00  0.00     0.210 HD
ENDBRANCH   9  22
BRANCH   8  24
HETATM   24  O1  UNL     1     -15.823  35.795   3.928  1.00  0.00    -0.393 OA
ATOM     25  H1  UNL     1     -15.773  35.203   4.669  1.00  0.00     0.210 HD
ENDBRANCH   8  24
TORSDOF 6
ENDMDL
MODEL 3
REMARK VINA RESULT: -8.719770030      2.699      3.641
REMARK  6 active torsions:
REMARK  status: ('A' for Active; 'I' for Inactive)
REMARK    1  A    between atoms: C4_4  and  C5_5 
REMARK    2  A    between atoms: C6_6  and  C7_7 
REMARK    3  A    between atoms: C9_9  and  C10_10 
REMARK    4  A    between atoms: C10_10  and  C12_12 
REMARK    5  A    between atoms: C19_19  and  O1_20 
REMARK    6  A    between atoms: C20_22  and  O2_23 
ROOT
HETATM    1  C12 UNL     1     -20.073  38.843  -2.415  1.00  0.00    -0.007 C 
HETATM    2  C13 UNL     1     -20.856  37.876  -3.278  1.00  0.00     0.006 C 
HETATM    3  C14 UNL     1     -20.209  37.700  -4.615  1.00  0.00     0.012 C 
HETATM    4  C15 UNL     1     -18.800  37.284  -4.432  1.00  0.00    -0.012 C 
HETATM    5  C16 UNL     1     -18.635  35.978  -3.709  1.00  0.00     0.018 C 
HETATM    6  C17 UNL     1     -18.073  38.423  -3.703  1.00  0.00    -0.001 C 
HETATM    7  C18 UNL     1     -16.653  37.996  -3.827  1.00  0.00     0.039 C 
HETATM    8  C19 UNL     1     -16.577  37.146  -5.101  1.00  0.00     0.148 C 
HETATM    9  C20 UNL     1     -17.987  37.230  -5.701  1.00  0.00     0.155 C 
HETATM   10  C21 UNL     1     -18.610  38.464  -2.316  1.00  0.00     0.011 C 
ENDROOT
BRANCH   1  11
HETATM   11  C10 UNL     1     -20.734  39.024  -1.078  1.00  0.00     0.008 C 
HETATM   12  C11 UNL     1     -22.145  38.484  -1.170  1.00  0.00     0.014 C 
BRANCH  11  13
HETATM   13  C9  UNL     1     -19.985  38.444   0.042  1.00  0.00    -0.015 C 
HETATM   14  C7  UNL     1     -20.010  38.934   1.278  1.00  0.00    -0.065 C 
HETATM   15  C8  UNL     1     -20.848  40.119   1.492  1.00  0.00     0.048 C 
BRANCH  14  16
HETATM   16  C6  UNL     1     -19.253  38.313   2.325  1.00  0.00     0.006 C 
HETATM   17  C5  UNL     1     -18.236  37.512   2.132  1.00  0.00     0.001 C 
BRANCH  17  18
HETATM   18  C4  UNL     1     -17.501  36.908   3.264  1.00  0.00     0.002 C 
HETATM   19  C2  UNL     1     -16.707  35.876   3.095  1.00  0.00    -0.088 C 
HETATM   20  C1  UNL     1     -15.999  35.318   4.279  1.00  0.00     0.043 C 
HETATM   21  C3  UNL     1     -16.512  35.268   1.748  1.00  0.00     0.043 C 
ENDBRANCH  17  18
ENDBRANCH  14  16
ENDBRANCH  11  13
ENDBRANCH   1  11
BRANCH   9  22
HETATM   22  O2  UNL     1     -18.070  38.454  -6.355  1.00  0.00    -0.392 OA
ATOM     23  H2  UNL     1     -18.113  38.308  -7.293  1.00  0.00     0.210 HD
ENDBRANCH   9  22
BRANCH   8  24
HETATM   24  O1  UNL     1     -15.619  37.600  -5.973  1.00  0.00    -0.393 OA
ATOM     25  H1  UNL     1     -15.964  37.738  -6.847  1.00  0.00     0.210 HD
ENDBRANCH   8  24
TORSDOF 6
ENDMDL
MODEL 4
REMARK VINA RESULT: -8.685975074      1.905      3.336
REMARK  6 active torsions:
REMARK  status: ('A' for Active; 'I' for Inactive)
REMARK    1  A    between atoms: C4_4  and  C5_5 
REMARK    2  A    between atoms: C6_6  and  C7_7 
REMARK    3  A    between atoms: C9_9  and  C10_10 
REMARK    4  A    between atoms: C10_10  and  C12_12 
REMARK    5  A    between atoms: C19_19  and  O1_20 
REMARK    6  A    between atoms: C20_22  and  O2_23 
ROOT
HETATM    1  C12 UNL     1     -20.268  37.906  -4.358  1.00  0.00    -0.007 C 
HETATM    2  C13 UNL     1     -18.937  38.620  -4.248  1.00  0.00     0.006 C 
HETATM    3  C14 UNL     1     -18.839  39.734  -5.241  1.00  0.00     0.012 C 
HETATM    4  C15 UNL     1     -19.989  40.650  -5.073  1.00  0.00    -0.012 C 
HETATM    5  C16 UNL     1     -20.067  41.297  -3.720  1.00  0.00     0.018 C 
HETATM    6  C17 UNL     1     -21.264  39.852  -5.385  1.00  0.00    -0.001 C 
HETATM    7  C18 UNL     1     -22.284  40.933  -5.441  1.00  0.00     0.039 C 
HETATM    8  C19 UNL     1     -21.533  42.204  -5.857  1.00  0.00     0.148 C 
HETATM    9  C20 UNL     1     -20.098  41.728  -6.122  1.00  0.00     0.155 C 
HETATM   10  C21 UNL     1     -21.438  38.864  -4.285  1.00  0.00     0.011 C 
ENDROOT
BRANCH   1  11
HETATM   11  C10 UNL     1     -20.357  36.781  -3.366  1.00  0.00     0.008 C 
HETATM   12  C11 UNL     1     -20.146  35.478  -4.106  1.00  0.00     0.014 C 
BRANCH  11  13
HETATM   13  C9  UNL     1     -19.455  36.924  -2.218  1.00  0.00    -0.015 C 
HETATM   14  C7  UNL     1     -19.820  37.455  -1.055  1.00  0.00    -0.065 C 
HETATM   15  C8  UNL     1     -21.212  37.908  -0.954  1.00  0.00     0.048 C 
BRANCH  14  16
HETATM   16  C6  UNL     1     -18.884  37.563   0.025  1.00  0.00     0.006 C 
HETATM   17  C5  UNL     1     -19.162  37.306   1.278  1.00  0.00     0.001 C 
BRANCH  17  18
HETATM   18  C4  UNL     1     -18.143  37.440   2.340  1.00  0.00     0.002 C 
HETATM   19  C2  UNL     1     -17.537  36.391   2.847  1.00  0.00    -0.088 C 
HETATM   20  C1  UNL     1     -16.521  36.599   3.914  1.00  0.00     0.043 C 
HETATM   21  C3  UNL     1     -17.853  35.015   2.369  1.00  0.00     0.043 C 
ENDBRANCH  17  18
ENDBRANCH  14  16
ENDBRANCH  11  13
ENDBRANCH   1  11
BRANCH   9  22
HETATM   22  O2  UNL     1     -20.097  41.146  -7.385  1.00  0.00    -0.392 OA
ATOM     23  H2  UNL     1     -20.809  41.508  -7.899  1.00  0.00     0.210 HD
ENDBRANCH   9  22
BRANCH   8  24
HETATM   24  O1  UNL     1     -22.089  42.799  -6.961  1.00  0.00    -0.393 OA
ATOM     25  H1  UNL     1     -22.983  42.514  -7.112  1.00  0.00     0.210 HD
ENDBRANCH   8  24
TORSDOF 6
ENDMDL
MODEL 5
REMARK VINA RESULT: -8.574635293      2.479      3.795
REMARK  6 active torsions:
REMARK  status: ('A' for Active; 'I' for Inactive)
REMARK    1  A    between atoms: C4_4  and  C5_5 
REMARK    2  A    between atoms: C6_6  and  C7_7 
REMARK    3  A    between atoms: C9_9  and  C10_10 
REMARK    4  A    between atoms: C10_10  and  C12_12 
REMARK    5  A    between atoms: C19_19  and  O1_20 
REMARK    6  A    between atoms: C20_22  and  O2_23 
ROOT
HETATM    1  C12 UNL     1     -19.284  37.424  -3.561  1.00  0.00    -0.007 C 
HETATM    2  C13 UNL     1     -20.516  38.053  -2.944  1.00  0.00     0.006 C 
HETATM    3  C14 UNL     1     -20.599  39.510  -3.270  1.00  0.00     0.012 C 
HETATM    4  C15 UNL     1     -20.544  39.692  -4.738  1.00  0.00    -0.012 C 
HETATM    5  C16 UNL     1     -21.668  39.029  -5.482  1.00  0.00     0.018 C 
HETATM    6  C17 UNL     1     -19.178  39.179  -5.217  1.00  0.00    -0.001 C 
HETATM    7  C18 UNL     1     -19.156  39.661  -6.624  1.00  0.00     0.039 C 
HETATM    8  C19 UNL     1     -20.048  40.908  -6.659  1.00  0.00     0.148 C 
HETATM    9  C20 UNL     1     -20.455  41.127  -5.195  1.00  0.00     0.155 C 
HETATM   10  C21 UNL     1     -19.185  37.701  -5.046  1.00  0.00     0.011 C 
ENDROOT
BRANCH   1  11
HETATM   11  C10 UNL     1     -19.200  35.963  -3.220  1.00  0.00     0.008 C 
HETATM   12  C11 UNL     1     -20.156  35.212  -4.121  1.00  0.00     0.014 C 
BRANCH  11  13
HETATM   13  C9  UNL     1     -17.841  35.415  -3.267  1.00  0.00    -0.015 C 
HETATM   14  C7  UNL     1     -17.091  35.211  -2.188  1.00  0.00    -0.065 C 
HETATM   15  C8  UNL     1     -17.697  35.562  -0.898  1.00  0.00     0.048 C 
BRANCH  14  16
HETATM   16  C6  UNL     1     -15.769  34.671  -2.308  1.00  0.00     0.006 C 
HETATM   17  C5  UNL     1     -14.887  35.055  -3.196  1.00  0.00     0.001 C 
BRANCH  17  18
HETATM   18  C4  UNL     1     -13.540  34.451  -3.261  1.00  0.00     0.002 C 
HETATM   19  C2  UNL     1     -12.885  34.352  -4.395  1.00  0.00    -0.088 C 
HETATM   20  C1  UNL     1     -11.532  33.731  -4.387  1.00  0.00     0.043 C 
HETATM   21  C3  UNL     1     -13.476  34.847  -5.670  1.00  0.00     0.043 C 
ENDBRANCH  17  18
ENDBRANCH  14  16
ENDBRANCH  11  13
ENDBRANCH   1  11
BRANCH   9  22
HETATM   22  O2  UNL     1     -19.377  41.744  -4.570  1.00  0.00    -0.392 OA
ATOM     23  H2  UNL     1     -18.625  41.164  -4.590  1.00  0.00     0.210 HD
ENDBRANCH   9  22
BRANCH   8  24
HETATM   24  O1  UNL     1     -19.398  41.998  -7.181  1.00  0.00    -0.393 OA
ATOM     25  H1  UNL     1     -19.628  42.803  -6.732  1.00  0.00     0.210 HD
ENDBRANCH   8  24
TORSDOF 6
ENDMDL
