MODEL 1
REMARK VINA RESULT: -9.144514663      0.000      0.000
REMARK  9 active torsions:
REMARK  status: ('A' for Active; 'I' for Inactive)
REMARK       I    between atoms: C1_2  and  N1_3 
REMARK    1  A    between atoms: C1_2  and  C17_33 
REMARK    2  A    between atoms: N1_3  and  C2_5 
REMARK    3  A    between atoms: C2_5  and  C3_6 
REMARK    4  A    between atoms: C2_5  and  C11_23 
REMARK    5  A    between atoms: C3_6  and  O2_7 
REMARK    6  A    between atoms: C3_6  and  N2_9 
REMARK    7  A    between atoms: C4_16  and  C5_17 
REMARK    8  A    between atoms: C14_26  and  C15_27 
REMARK    9  A    between atoms: C15_27  and  O3_28 
ROOT
HETATM    1  C2  UNL     1      42.339  12.427  50.630  1.00  0.00     0.211 C 
ENDROOT
BRANCH   1   2
HETATM    2  N1  UNL     1      43.086  12.356  49.322  1.00  0.00    -0.343 N 
HETATM    3  C1  UNL     1      42.413  12.536  48.102  1.00  0.00     0.222 C 
HETATM    4  O1  UNL     1      41.166  12.768  48.090  1.00  0.00    -0.273 OA
ATOM      5  H1  UNL     1      44.090  12.175  49.323  1.00  0.00     0.163 HD
BRANCH   3   6
HETATM    6  C17 UNL     1      43.094  12.465  46.788  1.00  0.00     0.078 C 
HETATM    7  C18 UNL     1      43.410  13.794  46.185  1.00  0.00     0.014 C 
HETATM    8  C19 UNL     1      43.412  13.470  44.695  1.00  0.00     0.001 C 
HETATM    9  C20 UNL     1      42.133  12.669  44.564  1.00  0.00     0.001 C 
HETATM   10  C21 UNL     1      42.071  11.843  45.820  1.00  0.00     0.014 C 
ENDBRANCH   3   6
ENDBRANCH   1   2
BRANCH   1  11
HETATM   11  C3  UNL     1      43.197  13.172  51.540  1.00  0.00     0.170 C 
BRANCH  11  12
HETATM   12  O2  UNL     1      44.246  12.471  51.942  1.00  0.00    -0.346 OA
ATOM     13  H2  UNL     1      44.638  12.819  52.734  1.00  0.00     0.219 HD
ENDBRANCH  11  12
BRANCH  11  14
HETATM   14  N2  UNL     1      43.181  14.450  52.109  1.00  0.00    -0.201 N 
HETATM   15  N3  UNL     1      42.760  14.583  53.412  1.00  0.00    -0.218 N 
HETATM   16  N4  UNL     1      42.770  15.827  53.766  1.00  0.00    -0.226 N 
ATOM     17  H3  UNL     1      42.479  13.808  54.014  1.00  0.00     0.210 HD
HETATM   18  N5  UNL     1      43.178  16.524  52.770  1.00  0.00    -0.268 N 
ATOM     19  H4  UNL     1      42.501  16.191  54.679  1.00  0.00     0.210 HD
HETATM   20  C4  UNL     1      43.450  15.669  51.706  1.00  0.00     0.157 A 
ATOM     21  H5  UNL     1      43.286  17.538  52.759  1.00  0.00     0.190 HD
BRANCH  20  22
HETATM   22  C5  UNL     1      43.922  16.251  50.457  1.00  0.00     0.011 A 
HETATM   23  C6  UNL     1      44.199  15.602  49.300  1.00  0.00     0.015 A 
HETATM   24  C7  UNL     1      44.577  16.250  48.125  1.00  0.00     0.001 A 
HETATM   25  C8  UNL     1      44.688  17.612  48.096  1.00  0.00     0.000 A 
HETATM   26  C9  UNL     1      44.414  18.293  49.256  1.00  0.00     0.001 A 
HETATM   27  C10 UNL     1      44.041  17.652  50.411  1.00  0.00     0.015 A 
ENDBRANCH  20  22
ENDBRANCH  11  14
ENDBRANCH   1  11
BRANCH   1  28
HETATM   28  C11 UNL     1      42.225  11.013  51.092  1.00  0.00     0.040 A 
HETATM   29  C12 UNL     1      41.229  10.582  51.895  1.00  0.00     0.028 A 
HETATM   30  C13 UNL     1      41.143   9.250  52.321  1.00  0.00     0.012 A 
HETATM   31  C14 UNL     1      42.099   8.351  51.916  1.00  0.00    -0.019 A 
HETATM   32  C16 UNL     1      43.102   8.823  51.097  1.00  0.00     0.097 A 
HETATM   33  N6  UNL     1      43.158  10.096  50.706  1.00  0.00    -0.367 N 
ATOM     34  H6  UNL     1      43.923  10.393  50.100  1.00  0.00     0.165 HD
BRANCH  31  35
HETATM   35  C15 UNL     1      42.055   6.934  52.343  1.00  0.00     0.204 C 
BRANCH  35  36
HETATM   36  O3  UNL     1      41.185   6.767  53.429  1.00  0.00    -0.396 OA
ATOM     37  H3  UNL     1      41.665   6.523  54.212  1.00  0.00     0.209 HD
ENDBRANCH  35  36
ENDBRANCH  31  35
ENDBRANCH   1  28
TORSDOF 9
ENDMDL
MODEL 2
REMARK VINA RESULT: -8.919481414      2.543      6.923
REMARK  9 active torsions:
REMARK  status: ('A' for Active; 'I' for Inactive)
REMARK       I    between atoms: C1_2  and  N1_3 
REMARK    1  A    between atoms: C1_2  and  C17_33 
REMARK    2  A    between atoms: N1_3  and  C2_5 
REMARK    3  A    between atoms: C2_5  and  C3_6 
REMARK    4  A    between atoms: C2_5  and  C11_23 
REMARK    5  A    between atoms: C3_6  and  O2_7 
REMARK    6  A    between atoms: C3_6  and  N2_9 
REMARK    7  A    between atoms: C4_16  and  C5_17 
REMARK    8  A    between atoms: C14_26  and  C15_27 
REMARK    9  A    between atoms: C15_27  and  O3_28 
ROOT
HETATM    1  C2  UNL     1      43.543  12.222  51.407  1.00  0.00     0.211 C 
ENDROOT
BRANCH   1   2
HETATM    2  N1  UNL     1      43.096  11.672  50.076  1.00  0.00    -0.343 N 
HETATM    3  C1  UNL     1      43.836  10.667  49.431  1.00  0.00     0.222 C 
HETATM    4  O1  UNL     1      44.888  10.205  49.969  1.00  0.00    -0.273 OA
ATOM      5  H1  UNL     1      42.248  12.034  49.639  1.00  0.00     0.163 HD
BRANCH   3   6
HETATM    6  C17 UNL     1      43.449  10.099  48.118  1.00  0.00     0.078 C 
HETATM    7  C18 UNL     1      42.020   9.677  48.026  1.00  0.00     0.014 C 
HETATM    8  C19 UNL     1      42.086   8.576  46.973  1.00  0.00     0.001 C 
HETATM    9  C20 UNL     1      43.266   7.764  47.465  1.00  0.00     0.001 C 
HETATM   10  C21 UNL     1      44.242   8.786  47.981  1.00  0.00     0.014 C 
ENDBRANCH   3   6
ENDBRANCH   1   2
BRANCH   1  11
HETATM   11  C3  UNL     1      42.550  11.780  52.376  1.00  0.00     0.170 C 
BRANCH  11  12
HETATM   12  O2  UNL     1      42.887  12.075  53.622  1.00  0.00    -0.346 OA
ATOM     13  H2  UNL     1      42.661  12.965  53.862  1.00  0.00     0.219 HD
ENDBRANCH  11  12
BRANCH  11  14
HETATM   14  N2  UNL     1      41.325  11.107  52.317  1.00  0.00    -0.201 N 
HETATM   15  N3  UNL     1      40.182  11.796  52.652  1.00  0.00    -0.218 N 
HETATM   16  N4  UNL     1      39.150  11.019  52.581  1.00  0.00    -0.226 N 
ATOM     17  H3  UNL     1      40.153  12.780  52.919  1.00  0.00     0.210 HD
HETATM   18  N5  UNL     1      39.546   9.856  52.214  1.00  0.00    -0.268 N 
ATOM     19  H4  UNL     1      38.186  11.286  52.781  1.00  0.00     0.210 HD
HETATM   20  C4  UNL     1      40.926   9.890  52.036  1.00  0.00     0.157 A 
ATOM     21  H5  UNL     1      38.949   9.042  52.076  1.00  0.00     0.190 HD
BRANCH  20  22
HETATM   22  C5  UNL     1      41.598   8.665  51.625  1.00  0.00     0.011 A 
HETATM   23  C6  UNL     1      42.844   8.254  51.967  1.00  0.00     0.015 A 
HETATM   24  C7  UNL     1      43.382   7.027  51.585  1.00  0.00     0.001 A 
HETATM   25  C8  UNL     1      42.649   6.161  50.823  1.00  0.00     0.000 A 
HETATM   26  C9  UNL     1      41.384   6.554  50.461  1.00  0.00     0.001 A 
HETATM   27  C10 UNL     1      40.856   7.763  50.839  1.00  0.00     0.015 A 
ENDBRANCH  20  22
ENDBRANCH  11  14
ENDBRANCH   1  11
BRANCH   1  28
HETATM   28  C11 UNL     1      43.476  13.705  51.259  1.00  0.00     0.040 A 
HETATM   29  C12 UNL     1      43.823  14.344  50.121  1.00  0.00     0.028 A 
HETATM   30  C13 UNL     1      43.758  15.739  50.005  1.00  0.00     0.012 A 
HETATM   31  C14 UNL     1      43.331  16.484  51.077  1.00  0.00    -0.019 A 
HETATM   32  C16 UNL     1      42.986  15.801  52.222  1.00  0.00     0.097 A 
HETATM   33  N6  UNL     1      43.057  14.473  52.304  1.00  0.00    -0.367 N 
ATOM     34  H6  UNL     1      42.789  14.018  53.177  1.00  0.00     0.165 HD
BRANCH  31  35
HETATM   35  C15 UNL     1      43.249  17.961  51.005  1.00  0.00     0.204 C 
BRANCH  35  36
HETATM   36  O3  UNL     1      42.414  18.463  52.013  1.00  0.00    -0.396 OA
ATOM     37  H3  UNL     1      42.924  18.884  52.696  1.00  0.00     0.209 HD
ENDBRANCH  35  36
ENDBRANCH  31  35
ENDBRANCH   1  28
TORSDOF 9
ENDMDL
MODEL 3
REMARK VINA RESULT: -8.868255064      1.170      1.582
REMARK  9 active torsions:
REMARK  status: ('A' for Active; 'I' for Inactive)
REMARK       I    between atoms: C1_2  and  N1_3 
REMARK    1  A    between atoms: C1_2  and  C17_33 
REMARK    2  A    between atoms: N1_3  and  C2_5 
REMARK    3  A    between atoms: C2_5  and  C3_6 
REMARK    4  A    between atoms: C2_5  and  C11_23 
REMARK    5  A    between atoms: C3_6  and  O2_7 
REMARK    6  A    between atoms: C3_6  and  N2_9 
REMARK    7  A    between atoms: C4_16  and  C5_17 
REMARK    8  A    between atoms: C14_26  and  C15_27 
REMARK    9  A    between atoms: C15_27  and  O3_28 
ROOT
HETATM    1  C2  UNL     1      42.593  11.086  50.131  1.00  0.00     0.211 C 
ENDROOT
BRANCH   1   2
HETATM    2  N1  UNL     1      43.084  11.158  48.707  1.00  0.00    -0.343 N 
HETATM    3  C1  UNL     1      42.560  12.111  47.817  1.00  0.00     0.222 C 
HETATM    4  O1  UNL     1      41.671  12.927  48.206  1.00  0.00    -0.273 OA
ATOM      5  H1  UNL     1      43.802  10.509  48.386  1.00  0.00     0.163 HD
BRANCH   3   6
HETATM    6  C17 UNL     1      42.996  12.219  46.404  1.00  0.00     0.078 C 
HETATM    7  C18 UNL     1      43.337  13.606  45.970  1.00  0.00     0.014 C 
HETATM    8  C19 UNL     1      43.052  13.544  44.473  1.00  0.00     0.001 C 
HETATM    9  C20 UNL     1      41.695  12.871  44.456  1.00  0.00     0.001 C 
HETATM   10  C21 UNL     1      41.765  11.848  45.557  1.00  0.00     0.014 C 
ENDBRANCH   3   6
ENDBRANCH   1   2
BRANCH   1  11
HETATM   11  C3  UNL     1      43.451  11.981  50.895  1.00  0.00     0.170 C 
BRANCH  11  12
HETATM   12  O2  UNL     1      44.738  11.749  50.693  1.00  0.00    -0.346 OA
ATOM     13  H2  UNL     1      45.137  12.381  50.106  1.00  0.00     0.219 HD
ENDBRANCH  11  12
BRANCH  11  14
HETATM   14  N2  UNL     1      43.249  13.025  51.804  1.00  0.00    -0.201 N 
HETATM   15  N3  UNL     1      42.759  12.720  53.053  1.00  0.00    -0.218 N 
HETATM   16  N4  UNL     1      42.597  13.798  53.750  1.00  0.00    -0.226 N 
ATOM     17  H3  UNL     1      42.551  11.777  53.383  1.00  0.00     0.210 HD
HETATM   18  N5  UNL     1      42.956  14.798  53.032  1.00  0.00    -0.268 N 
ATOM     19  H4  UNL     1      42.244  13.845  54.706  1.00  0.00     0.210 HD
HETATM   20  C4  UNL     1      43.378  14.330  51.792  1.00  0.00     0.157 A 
ATOM     21  H5  UNL     1      42.935  15.775  53.323  1.00  0.00     0.190 HD
BRANCH  20  22
HETATM   22  C5  UNL     1      43.826  15.302  50.804  1.00  0.00     0.011 A 
HETATM   23  C6  UNL     1      43.976  15.111  49.471  1.00  0.00     0.015 A 
HETATM   24  C7  UNL     1      44.341  16.122  48.584  1.00  0.00     0.001 A 
HETATM   25  C8  UNL     1      44.572  17.390  49.043  1.00  0.00     0.000 A 
HETATM   26  C9  UNL     1      44.428  17.609  50.391  1.00  0.00     0.001 A 
HETATM   27  C10 UNL     1      44.068  16.611  51.261  1.00  0.00     0.015 A 
ENDBRANCH  20  22
ENDBRANCH  11  14
ENDBRANCH   1  11
BRANCH   1  28
HETATM   28  C11 UNL     1      42.834   9.676  50.555  1.00  0.00     0.040 A 
HETATM   29  C12 UNL     1      43.183   8.700  49.689  1.00  0.00     0.028 A 
HETATM   30  C13 UNL     1      43.399   7.380  50.108  1.00  0.00     0.012 A 
HETATM   31  C14 UNL     1      43.252   7.063  51.436  1.00  0.00    -0.019 A 
HETATM   32  C16 UNL     1      42.895   8.082  52.292  1.00  0.00     0.097 A 
HETATM   33  N6  UNL     1      42.697   9.329  51.866  1.00  0.00    -0.367 N 
ATOM     34  H6  UNL     1      42.434  10.045  52.543  1.00  0.00     0.165 HD
BRANCH  31  35
HETATM   35  C15 UNL     1      43.465   5.682  51.927  1.00  0.00     0.204 C 
BRANCH  35  36
HETATM   36  O3  UNL     1      43.147   5.583  53.289  1.00  0.00    -0.396 OA
ATOM     37  H3  UNL     1      43.298   6.410  53.732  1.00  0.00     0.209 HD
ENDBRANCH  35  36
ENDBRANCH  31  35
ENDBRANCH   1  28
TORSDOF 9
ENDMDL
MODEL 4
REMARK VINA RESULT: -8.678579902      1.772      5.652
REMARK  9 active torsions:
REMARK  status: ('A' for Active; 'I' for Inactive)
REMARK       I    between atoms: C1_2  and  N1_3 
REMARK    1  A    between atoms: C1_2  and  C17_33 
REMARK    2  A    between atoms: N1_3  and  C2_5 
REMARK    3  A    between atoms: C2_5  and  C3_6 
REMARK    4  A    between atoms: C2_5  and  C11_23 
REMARK    5  A    between atoms: C3_6  and  O2_7 
REMARK    6  A    between atoms: C3_6  and  N2_9 
REMARK    7  A    between atoms: C4_16  and  C5_17 
REMARK    8  A    between atoms: C14_26  and  C15_27 
REMARK    9  A    between atoms: C15_27  and  O3_28 
ROOT
HETATM    1  C2  UNL     1      43.400  12.212  49.357  1.00  0.00     0.211 C 
ENDROOT
BRANCH   1   2
HETATM    2  N1  UNL     1      42.689  10.902  49.130  1.00  0.00    -0.343 N 
HETATM    3  C1  UNL     1      42.693   9.904  50.120  1.00  0.00     0.222 C 
HETATM    4  O1  UNL     1      43.292  10.100  51.221  1.00  0.00    -0.273 OA
ATOM      5  H1  UNL     1      42.200  10.738  48.250  1.00  0.00     0.163 HD
BRANCH   3   6
HETATM    6  C17 UNL     1      42.021   8.594  49.947  1.00  0.00     0.078 C 
HETATM    7  C18 UNL     1      40.927   8.330  50.927  1.00  0.00     0.014 C 
HETATM    8  C19 UNL     1      40.928   6.806  50.993  1.00  0.00     0.001 C 
HETATM    9  C20 UNL     1      42.406   6.517  51.149  1.00  0.00     0.001 C 
HETATM   10  C21 UNL     1      43.087   7.532  50.272  1.00  0.00     0.014 C 
ENDBRANCH   3   6
ENDBRANCH   1   2
BRANCH   1  11
HETATM   11  C3  UNL     1      42.556  12.973  50.266  1.00  0.00     0.170 C 
BRANCH  11  12
HETATM   12  O2  UNL     1      41.353  13.211  49.767  1.00  0.00    -0.346 OA
ATOM     13  H2  UNL     1      41.386  13.557  48.883  1.00  0.00     0.219 HD
ENDBRANCH  11  12
BRANCH  11  14
HETATM   14  N2  UNL     1      42.706  13.530  51.541  1.00  0.00    -0.201 N 
HETATM   15  N3  UNL     1      42.455  12.736  52.636  1.00  0.00    -0.218 N 
HETATM   16  N4  UNL     1      42.603  13.413  53.728  1.00  0.00    -0.226 N 
ATOM     17  H3  UNL     1      42.189  11.751  52.592  1.00  0.00     0.210 HD
HETATM   18  N5  UNL     1      42.941  14.609  53.416  1.00  0.00    -0.268 N 
ATOM     19  H4  UNL     1      42.473  13.056  54.675  1.00  0.00     0.210 HD
HETATM   20  C4  UNL     1      43.017  14.706  52.030  1.00  0.00     0.157 A 
ATOM     21  H5  UNL     1      43.124  15.366  54.075  1.00  0.00     0.190 HD
BRANCH  20  22
HETATM   22  C5  UNL     1      43.379  15.991  51.447  1.00  0.00     0.011 A 
HETATM   23  C6  UNL     1      44.231  16.217  50.418  1.00  0.00     0.015 A 
HETATM   24  C7  UNL     1      44.464  17.478  49.874  1.00  0.00     0.001 A 
HETATM   25  C8  UNL     1      43.820  18.574  50.377  1.00  0.00     0.000 A 
HETATM   26  C9  UNL     1      42.951  18.372  51.421  1.00  0.00     0.001 A 
HETATM   27  C10 UNL     1      42.724  17.128  51.954  1.00  0.00     0.015 A 
ENDBRANCH  20  22
ENDBRANCH  11  14
ENDBRANCH   1  11
BRANCH   1  28
HETATM   28  C11 UNL     1      43.427  12.877  48.021  1.00  0.00     0.040 A 
HETATM   29  C12 UNL     1      43.920  14.119  47.831  1.00  0.00     0.028 A 
HETATM   30  C13 UNL     1      43.931  14.728  46.569  1.00  0.00     0.012 A 
HETATM   31  C14 UNL     1      43.426  14.046  45.489  1.00  0.00    -0.019 A 
HETATM   32  C16 UNL     1      42.930  12.781  45.718  1.00  0.00     0.097 A 
HETATM   33  N6  UNL     1      42.933  12.227  46.929  1.00  0.00    -0.367 N 
ATOM     34  H6  UNL     1      42.554  11.287  47.043  1.00  0.00     0.165 HD
BRANCH  31  35
HETATM   35  C15 UNL     1      43.411  14.647  44.136  1.00  0.00     0.204 C 
BRANCH  35  36
HETATM   36  O3  UNL     1      44.225  15.787  44.087  1.00  0.00    -0.396 OA
ATOM     37  H3  UNL     1      43.715  16.559  43.874  1.00  0.00     0.209 HD
ENDBRANCH  35  36
ENDBRANCH  31  35
ENDBRANCH   1  28
TORSDOF 9
ENDMDL
MODEL 5
REMARK VINA RESULT: -8.607040975      2.346      6.639
REMARK  9 active torsions:
REMARK  status: ('A' for Active; 'I' for Inactive)
REMARK       I    between atoms: C1_2  and  N1_3 
REMARK    1  A    between atoms: C1_2  and  C17_33 
REMARK    2  A    between atoms: N1_3  and  C2_5 
REMARK    3  A    between atoms: C2_5  and  C3_6 
REMARK    4  A    between atoms: C2_5  and  C11_23 
REMARK    5  A    between atoms: C3_6  and  O2_7 
REMARK    6  A    between atoms: C3_6  and  N2_9 
REMARK    7  A    between atoms: C4_16  and  C5_17 
REMARK    8  A    between atoms: C14_26  and  C15_27 
REMARK    9  A    between atoms: C15_27  and  O3_28 
ROOT
HETATM    1  C2  UNL     1      43.544  12.163  51.125  1.00  0.00     0.211 C 
ENDROOT
BRANCH   1   2
HETATM    2  N1  UNL     1      42.952  11.808  49.784  1.00  0.00    -0.343 N 
HETATM    3  C1  UNL     1      43.483  10.753  49.023  1.00  0.00     0.222 C 
HETATM    4  O1  UNL     1      44.466  10.081  49.462  1.00  0.00    -0.273 OA
ATOM      5  H1  UNL     1      42.158  12.339  49.426  1.00  0.00     0.163 HD
BRANCH   3   6
HETATM    6  C17 UNL     1      42.948  10.368  47.695  1.00  0.00     0.078 C 
HETATM    7  C18 UNL     1      43.908   9.607  46.842  1.00  0.00     0.014 C 
HETATM    8  C19 UNL     1      43.429   9.962  45.439  1.00  0.00     0.001 C 
HETATM    9  C20 UNL     1      43.272  11.464  45.550  1.00  0.00     0.001 C 
HETATM   10  C21 UNL     1      42.729  11.688  46.935  1.00  0.00     0.014 C 
ENDBRANCH   3   6
ENDBRANCH   1   2
BRANCH   1  11
HETATM   11  C3  UNL     1      42.607  11.663  52.120  1.00  0.00     0.170 C 
BRANCH  11  12
HETATM   12  O2  UNL     1      42.972  11.959  53.358  1.00  0.00    -0.346 OA
ATOM     13  H2  UNL     1      43.786  12.449  53.392  1.00  0.00     0.219 HD
ENDBRANCH  11  12
BRANCH  11  14
HETATM   14  N2  UNL     1      41.414  10.932  52.094  1.00  0.00    -0.201 N 
HETATM   15  N3  UNL     1      40.268  11.533  52.559  1.00  0.00    -0.218 N 
HETATM   16  N4  UNL     1      39.271  10.711  52.500  1.00  0.00    -0.226 N 
ATOM     17  H3  UNL     1      40.211  12.492  52.903  1.00  0.00     0.210 HD
HETATM   18  N5  UNL     1      39.694   9.601  52.018  1.00  0.00    -0.268 N 
ATOM     19  H4  UNL     1      38.313  10.911  52.786  1.00  0.00     0.210 HD
HETATM   20  C4  UNL     1      41.054   9.720  51.748  1.00  0.00     0.157 A 
ATOM     21  H5  UNL     1      39.128   8.768  51.858  1.00  0.00     0.190 HD
BRANCH  20  22
HETATM   22  C5  UNL     1      41.752   8.566  51.198  1.00  0.00     0.011 A 
HETATM   23  C6  UNL     1      41.468   7.901  50.052  1.00  0.00     0.015 A 
HETATM   24  C7  UNL     1      42.237   6.848  49.561  1.00  0.00     0.001 A 
HETATM   25  C8  UNL     1      43.346   6.429  50.243  1.00  0.00     0.000 A 
HETATM   26  C9  UNL     1      43.655   7.086  51.409  1.00  0.00     0.001 A 
HETATM   27  C10 UNL     1      42.896   8.124  51.888  1.00  0.00     0.015 A 
ENDBRANCH  20  22
ENDBRANCH  11  14
ENDBRANCH   1  11
BRANCH   1  28
HETATM   28  C11 UNL     1      43.566  13.654  51.159  1.00  0.00     0.040 A 
HETATM   29  C12 UNL     1      44.060  14.403  50.149  1.00  0.00     0.028 A 
HETATM   30  C13 UNL     1      44.076  15.803  50.204  1.00  0.00     0.012 A 
HETATM   31  C14 UNL     1      43.577  16.439  51.314  1.00  0.00    -0.019 A 
HETATM   32  C16 UNL     1      43.081  15.646  52.326  1.00  0.00     0.097 A 
HETATM   33  N6  UNL     1      43.078  14.316  52.247  1.00  0.00    -0.367 N 
ATOM     34  H6  UNL     1      42.699  13.776  53.024  1.00  0.00     0.165 HD
BRANCH  31  35
HETATM   35  C15 UNL     1      43.575  17.916  51.421  1.00  0.00     0.204 C 
BRANCH  35  36
HETATM   36  O3  UNL     1      42.400  18.370  52.037  1.00  0.00    -0.396 OA
ATOM     37  H3  UNL     1      42.324  18.022  52.917  1.00  0.00     0.209 HD
ENDBRANCH  35  36
ENDBRANCH  31  35
ENDBRANCH   1  28
TORSDOF 9
ENDMDL
