MODEL 1
REMARK VINA RESULT: -8.329435167      0.000      0.000
REMARK  13 active torsions:
REMARK  status: ('A' for Active; 'I' for Inactive)
REMARK    1  A    between atoms: N1_1  and  C1_5 
REMARK    2  A    between atoms: C1_5  and  C2_6 
REMARK    3  A    between atoms: C2_6  and  C3_7 
REMARK    4  A    between atoms: C3_7  and  C4_8 
REMARK    5  A    between atoms: C4_8  and  C5_9 
REMARK    6  A    between atoms: C5_9  and  N2_10 
REMARK       I    between atoms: N2_10  and  C6_12 
REMARK    7  A    between atoms: C6_12  and  C7_14 
REMARK    8  A    between atoms: C7_14  and  C8_15 
REMARK    9  A    between atoms: C11_21  and  C12_22 
REMARK   10  A    between atoms: C12_22  and  C13_23 
REMARK   11  A    between atoms: N5_33  and  C20_34 
REMARK   12  A    between atoms: C20_34  and  C21_35 
REMARK   13  A    between atoms: C21_35  and  C22_36 
ROOT
HETATM    1  C8  UNL     1      44.683  43.503  50.473  1.00  0.00     0.288 C 
HETATM    2  N3  UNL     1      44.870  44.103  51.791  1.00  0.00    -0.025 N 
ATOM      3  H31 UNL     1      44.026  44.114  52.362  1.00  0.00     0.281 HD
ATOM      4  H32 UNL     1      45.010  45.114  51.766  1.00  0.00     0.281 HD
HETATM    5  C9  UNL     1      45.971  43.376  52.392  1.00  0.00     0.305 C 
HETATM    6  C10 UNL     1      46.697  44.146  53.494  1.00  0.00     0.104 C 
HETATM    7  C11 UNL     1      47.478  44.692  52.351  1.00  0.00     0.193 C 
HETATM    8  N4  UNL     1      47.161  43.508  51.556  1.00  0.00    -0.034 N 
ATOM      9  H41 UNL     1      47.096  43.550  50.539  1.00  0.00     0.280 HD
ATOM     10  H42 UNL     1      47.826  42.741  51.450  1.00  0.00     0.280 HD
HETATM   11  C19 UNL     1      45.607  41.981  52.755  1.00  0.00     0.195 C 
HETATM   12  N5  UNL     1      44.752  41.393  51.760  1.00  0.00    -0.346 N 
HETATM   13  C27 UNL     1      44.169  42.152  50.709  1.00  0.00     0.251 C 
HETATM   14  O2  UNL     1      43.236  41.634  50.022  1.00  0.00    -0.271 OA
ENDROOT
BRANCH   1  15
HETATM   15  C7  UNL     1      43.855  44.335  49.561  1.00  0.00     0.145 C 
BRANCH  15  16
HETATM   16  C6  UNL     1      44.484  44.599  48.255  1.00  0.00     0.220 C 
HETATM   17  N2  UNL     1      44.626  45.881  47.688  1.00  0.00    -0.361 N 
ATOM     18  H2  UNL     1      44.268  46.671  48.224  1.00  0.00     0.162 HD
HETATM   19  O1  UNL     1      44.916  43.607  47.614  1.00  0.00    -0.274 OA
BRANCH  17  20
HETATM   20  C5  UNL     1      45.228  46.166  46.429  1.00  0.00     0.122 C 
BRANCH  20  21
HETATM   21  C4  UNL     1      46.642  46.673  46.532  1.00  0.00     0.020 C 
BRANCH  21  22
HETATM   22  C3  UNL     1      47.223  46.457  47.902  1.00  0.00     0.003 C 
BRANCH  22  23
HETATM   23  C2  UNL     1      48.501  45.662  47.910  1.00  0.00     0.027 C 
BRANCH  23  24
HETATM   24  C1  UNL     1      48.187  44.373  48.680  1.00  0.00     0.229 C 
BRANCH  24  25
HETATM   25  N1  UNL     1      47.733  43.414  47.702  1.00  0.00    -0.079 N 
ATOM     26  H13 UNL     1      48.386  43.287  46.928  1.00  0.00     0.274 HD
ATOM     27  H12 UNL     1      47.749  42.453  48.041  1.00  0.00     0.274 HD
ATOM     28  H11 UNL     1      46.808  43.722  47.404  1.00  0.00     0.274 HD
ENDBRANCH  24  25
ENDBRANCH  23  24
ENDBRANCH  22  23
ENDBRANCH  21  22
ENDBRANCH  20  21
ENDBRANCH  17  20
ENDBRANCH  15  16
ENDBRANCH   1  15
BRANCH  12  29
HETATM   29  C20 UNL     1      44.508  39.954  51.888  1.00  0.00     0.126 C 
BRANCH  29  30
HETATM   30  C21 UNL     1      45.571  39.273  51.081  1.00  0.00     0.024 C 
BRANCH  30  31
HETATM   31  C22 UNL     1      45.017  38.190  50.169  1.00  0.00    -0.010 C 
HETATM   32  C23 UNL     1      45.139  36.875  50.839  1.00  0.00     0.032 C 
HETATM   33  C24 UNL     1      45.296  35.691  49.945  1.00  0.00     0.232 C 
HETATM   34  N6  UNL     1      45.287  36.014  48.537  1.00  0.00    -0.075 N 
HETATM   35  C25 UNL     1      46.309  37.049  48.350  1.00  0.00     0.232 C 
ATOM     36  H62 UNL     1      45.416  35.202  47.933  1.00  0.00     0.277 HD
ATOM     37  H61 UNL     1      44.366  36.283  48.188  1.00  0.00     0.277 HD
HETATM   38  C26 UNL     1      45.669  38.325  48.845  1.00  0.00     0.032 C 
ENDBRANCH  30  31
ENDBRANCH  29  30
ENDBRANCH  12  29
BRANCH   7  39
HETATM   39  C12 UNL     1      48.944  44.896  52.450  1.00  0.00     0.037 C 
BRANCH  39  40
HETATM   40  C13 UNL     1      49.565  46.050  51.755  1.00  0.00    -0.013 C 
HETATM   41  C14 UNL     1      48.732  47.248  51.530  1.00  0.00     0.005 C 
HETATM   42  C15 UNL     1      48.459  48.018  52.812  1.00  0.00     0.000 C 
HETATM   43  C16 UNL     1      49.834  48.475  53.297  1.00  0.00     0.000 C 
HETATM   44  C17 UNL     1      50.604  47.237  53.692  1.00  0.00     0.000 C 
HETATM   45  C18 UNL     1      50.890  46.438  52.442  1.00  0.00     0.005 C 
ENDBRANCH  39  40
ENDBRANCH   7  39
TORSDOF 13
ENDMDL
MODEL 2
REMARK VINA RESULT: -8.293681418      2.633      7.277
REMARK  13 active torsions:
REMARK  status: ('A' for Active; 'I' for Inactive)
REMARK    1  A    between atoms: N1_1  and  C1_5 
REMARK    2  A    between atoms: C1_5  and  C2_6 
REMARK    3  A    between atoms: C2_6  and  C3_7 
REMARK    4  A    between atoms: C3_7  and  C4_8 
REMARK    5  A    between atoms: C4_8  and  C5_9 
REMARK    6  A    between atoms: C5_9  and  N2_10 
REMARK       I    between atoms: N2_10  and  C6_12 
REMARK    7  A    between atoms: C6_12  and  C7_14 
REMARK    8  A    between atoms: C7_14  and  C8_15 
REMARK    9  A    between atoms: C11_21  and  C12_22 
REMARK   10  A    between atoms: C12_22  and  C13_23 
REMARK   11  A    between atoms: N5_33  and  C20_34 
REMARK   12  A    between atoms: C20_34  and  C21_35 
REMARK   13  A    between atoms: C21_35  and  C22_36 
ROOT
HETATM    1  C8  UNL     1      45.167  45.113  48.573  1.00  0.00     0.288 C 
HETATM    2  N3  UNL     1      46.531  44.603  48.466  1.00  0.00    -0.025 N 
ATOM      3  H31 UNL     1      46.661  43.934  47.707  1.00  0.00     0.281 HD
ATOM      4  H32 UNL     1      46.796  43.975  49.225  1.00  0.00     0.281 HD
HETATM    5  C9  UNL     1      47.374  45.778  48.358  1.00  0.00     0.305 C 
HETATM    6  C10 UNL     1      48.824  45.545  48.780  1.00  0.00     0.104 C 
HETATM    7  C11 UNL     1      48.291  45.859  50.134  1.00  0.00     0.193 C 
HETATM    8  N4  UNL     1      47.195  46.620  49.537  1.00  0.00    -0.034 N 
ATOM      9  H41 UNL     1      46.290  46.704  50.000  1.00  0.00     0.280 HD
ATOM     10  H42 UNL     1      47.223  47.638  49.475  1.00  0.00     0.280 HD
HETATM   11  C19 UNL     1      47.220  46.476  47.054  1.00  0.00     0.195 C 
HETATM   12  N5  UNL     1      45.847  46.475  46.625  1.00  0.00    -0.346 N 
HETATM   13  C27 UNL     1      44.846  45.699  47.269  1.00  0.00     0.251 C 
HETATM   14  O2  UNL     1      43.724  45.546  46.697  1.00  0.00    -0.271 OA
ENDROOT
BRANCH   1  15
HETATM   15  C7  UNL     1      44.196  44.097  49.056  1.00  0.00     0.145 C 
BRANCH  15  16
HETATM   16  C6  UNL     1      44.801  43.034  49.878  1.00  0.00     0.220 C 
HETATM   17  N2  UNL     1      44.684  42.951  51.280  1.00  0.00    -0.361 N 
ATOM     18  H2  UNL     1      44.144  43.679  51.747  1.00  0.00     0.162 HD
HETATM   19  O1  UNL     1      45.462  42.149  49.277  1.00  0.00    -0.274 OA
BRANCH  17  20
HETATM   20  C5  UNL     1      45.258  41.937  52.099  1.00  0.00     0.122 C 
BRANCH  20  21
HETATM   21  C4  UNL     1      44.253  40.963  52.653  1.00  0.00     0.020 C 
BRANCH  21  22
HETATM   22  C3  UNL     1      44.366  39.606  52.014  1.00  0.00     0.003 C 
BRANCH  22  23
HETATM   23  C2  UNL     1      43.746  39.516  50.647  1.00  0.00     0.027 C 
BRANCH  23  24
HETATM   24  C1  UNL     1      44.801  38.857  49.751  1.00  0.00     0.229 C 
BRANCH  24  25
HETATM   25  N1  UNL     1      44.682  39.477  48.454  1.00  0.00    -0.079 N 
ATOM     26  H13 UNL     1      45.470  39.280  47.837  1.00  0.00     0.274 HD
ATOM     27  H12 UNL     1      43.957  39.060  47.871  1.00  0.00     0.274 HD
ATOM     28  H11 UNL     1      44.540  40.474  48.624  1.00  0.00     0.274 HD
ENDBRANCH  24  25
ENDBRANCH  23  24
ENDBRANCH  22  23
ENDBRANCH  21  22
ENDBRANCH  20  21
ENDBRANCH  17  20
ENDBRANCH  15  16
ENDBRANCH   1  15
BRANCH  12  29
HETATM   29  C20 UNL     1      45.531  47.324  45.474  1.00  0.00     0.126 C 
BRANCH  29  30
HETATM   30  C21 UNL     1      46.564  47.022  44.431  1.00  0.00     0.024 C 
BRANCH  30  31
HETATM   31  C22 UNL     1      46.219  47.609  43.071  1.00  0.00    -0.010 C 
HETATM   32  C23 UNL     1      44.988  46.967  42.558  1.00  0.00     0.032 C 
HETATM   33  C24 UNL     1      44.858  46.880  41.075  1.00  0.00     0.232 C 
HETATM   34  N6  UNL     1      45.966  47.462  40.353  1.00  0.00    -0.075 N 
HETATM   35  C25 UNL     1      47.177  46.831  40.890  1.00  0.00     0.232 C 
ATOM     36  H62 UNL     1      45.881  47.380  39.340  1.00  0.00     0.277 HD
ATOM     37  H61 UNL     1      45.986  48.482  40.394  1.00  0.00     0.277 HD
HETATM   38  C26 UNL     1      47.423  47.519  42.213  1.00  0.00     0.032 C 
ENDBRANCH  30  31
ENDBRANCH  29  30
ENDBRANCH  12  29
BRANCH   7  39
HETATM   39  C12 UNL     1      49.064  46.691  51.089  1.00  0.00     0.037 C 
BRANCH  39  40
HETATM   40  C13 UNL     1      49.737  46.040  52.240  1.00  0.00    -0.013 C 
HETATM   41  C14 UNL     1      50.687  46.850  53.030  1.00  0.00     0.005 C 
HETATM   42  C15 UNL     1      49.992  47.900  53.880  1.00  0.00     0.000 C 
HETATM   43  C16 UNL     1      49.118  47.106  54.850  1.00  0.00     0.000 C 
HETATM   44  C17 UNL     1      48.041  46.431  54.033  1.00  0.00     0.000 C 
HETATM   45  C18 UNL     1      48.695  45.380  53.165  1.00  0.00     0.005 C 
ENDBRANCH  39  40
ENDBRANCH   7  39
TORSDOF 13
ENDMDL
MODEL 3
REMARK VINA RESULT: -8.288671081      2.648      7.305
REMARK  13 active torsions:
REMARK  status: ('A' for Active; 'I' for Inactive)
REMARK    1  A    between atoms: N1_1  and  C1_5 
REMARK    2  A    between atoms: C1_5  and  C2_6 
REMARK    3  A    between atoms: C2_6  and  C3_7 
REMARK    4  A    between atoms: C3_7  and  C4_8 
REMARK    5  A    between atoms: C4_8  and  C5_9 
REMARK    6  A    between atoms: C5_9  and  N2_10 
REMARK       I    between atoms: N2_10  and  C6_12 
REMARK    7  A    between atoms: C6_12  and  C7_14 
REMARK    8  A    between atoms: C7_14  and  C8_15 
REMARK    9  A    between atoms: C11_21  and  C12_22 
REMARK   10  A    between atoms: C12_22  and  C13_23 
REMARK   11  A    between atoms: N5_33  and  C20_34 
REMARK   12  A    between atoms: C20_34  and  C21_35 
REMARK   13  A    between atoms: C21_35  and  C22_36 
ROOT
HETATM    1  C8  UNL     1      45.230  45.093  48.563  1.00  0.00     0.288 C 
HETATM    2  N3  UNL     1      46.599  44.598  48.436  1.00  0.00    -0.025 N 
ATOM      3  H31 UNL     1      46.728  43.940  47.668  1.00  0.00     0.281 HD
ATOM      4  H32 UNL     1      46.877  43.963  49.185  1.00  0.00     0.281 HD
HETATM    5  C9  UNL     1      47.429  45.782  48.335  1.00  0.00     0.305 C 
HETATM    6  C10 UNL     1      48.885  45.557  48.740  1.00  0.00     0.104 C 
HETATM    7  C11 UNL     1      48.363  45.850  50.103  1.00  0.00     0.193 C 
HETATM    8  N4  UNL     1      47.254  46.607  49.526  1.00  0.00    -0.034 N 
ATOM      9  H41 UNL     1      46.353  46.677  49.999  1.00  0.00     0.280 HD
ATOM     10  H42 UNL     1      47.271  47.626  49.477  1.00  0.00     0.280 HD
HETATM   11  C19 UNL     1      47.255  46.496  47.042  1.00  0.00     0.195 C 
HETATM   12  N5  UNL     1      45.879  46.487  46.626  1.00  0.00    -0.346 N 
HETATM   13  C27 UNL     1      44.891  45.693  47.271  1.00  0.00     0.251 C 
HETATM   14  O2  UNL     1      43.765  45.536  46.707  1.00  0.00    -0.271 OA
ENDROOT
BRANCH   1  15
HETATM   15  C7  UNL     1      44.275  44.062  49.043  1.00  0.00     0.145 C 
BRANCH  15  16
HETATM   16  C6  UNL     1      44.916  42.814  49.495  1.00  0.00     0.220 C 
HETATM   17  N2  UNL     1      44.864  41.595  48.791  1.00  0.00    -0.361 N 
ATOM     18  H2  UNL     1      44.346  41.585  47.912  1.00  0.00     0.162 HD
HETATM   19  O1  UNL     1      45.547  42.854  50.582  1.00  0.00    -0.274 OA
BRANCH  17  20
HETATM   20  C5  UNL     1      45.472  40.375  49.204  1.00  0.00     0.122 C 
BRANCH  20  21
HETATM   21  C4  UNL     1      44.487  39.301  49.579  1.00  0.00     0.020 C 
BRANCH  21  22
HETATM   22  C3  UNL     1      43.606  39.715  50.727  1.00  0.00     0.003 C 
BRANCH  22  23
HETATM   23  C2  UNL     1      43.971  39.082  52.042  1.00  0.00     0.027 C 
BRANCH  23  24
HETATM   24  C1  UNL     1      44.666  40.181  52.856  1.00  0.00     0.229 C 
BRANCH  24  25
HETATM   25  N1  UNL     1      43.933  41.398  52.608  1.00  0.00    -0.079 N 
ATOM     26  H13 UNL     1      42.929  41.250  52.498  1.00  0.00     0.274 HD
ATOM     27  H12 UNL     1      43.881  42.011  53.421  1.00  0.00     0.274 HD
ATOM     28  H11 UNL     1      44.368  41.838  51.797  1.00  0.00     0.274 HD
ENDBRANCH  24  25
ENDBRANCH  23  24
ENDBRANCH  22  23
ENDBRANCH  21  22
ENDBRANCH  20  21
ENDBRANCH  17  20
ENDBRANCH  15  16
ENDBRANCH   1  15
BRANCH  12  29
HETATM   29  C20 UNL     1      45.543  47.347  45.489  1.00  0.00     0.126 C 
BRANCH  29  30
HETATM   30  C21 UNL     1      46.572  47.074  44.435  1.00  0.00     0.024 C 
BRANCH  30  31
HETATM   31  C22 UNL     1      46.183  47.626  43.073  1.00  0.00    -0.010 C 
HETATM   32  C23 UNL     1      44.957  46.942  42.599  1.00  0.00     0.032 C 
HETATM   33  C24 UNL     1      44.798  46.823  41.121  1.00  0.00     0.232 C 
HETATM   34  N6  UNL     1      45.874  47.419  40.365  1.00  0.00    -0.075 N 
HETATM   35  C25 UNL     1      47.113  46.830  40.886  1.00  0.00     0.232 C 
ATOM     36  H62 UNL     1      45.769  47.315  39.356  1.00  0.00     0.277 HD
ATOM     37  H61 UNL     1      45.869  48.439  40.385  1.00  0.00     0.277 HD
HETATM   38  C26 UNL     1      47.370  47.550  42.190  1.00  0.00     0.032 C 
ENDBRANCH  30  31
ENDBRANCH  29  30
ENDBRANCH  12  29
BRANCH   7  39
HETATM   39  C12 UNL     1      49.137  46.676  51.061  1.00  0.00     0.037 C 
BRANCH  39  40
HETATM   40  C13 UNL     1      49.748  46.031  52.249  1.00  0.00    -0.013 C 
HETATM   41  C14 UNL     1      50.711  46.821  53.042  1.00  0.00     0.005 C 
HETATM   42  C15 UNL     1      50.041  47.926  53.842  1.00  0.00     0.000 C 
HETATM   43  C16 UNL     1      49.106  47.200  54.809  1.00  0.00     0.000 C 
HETATM   44  C17 UNL     1      48.023  46.549  53.980  1.00  0.00     0.000 C 
HETATM   45  C18 UNL     1      48.652  45.445  53.163  1.00  0.00     0.005 C 
ENDBRANCH  39  40
ENDBRANCH   7  39
TORSDOF 13
ENDMDL
MODEL 4
REMARK VINA RESULT: -8.255726733      3.173      7.432
REMARK  13 active torsions:
REMARK  status: ('A' for Active; 'I' for Inactive)
REMARK    1  A    between atoms: N1_1  and  C1_5 
REMARK    2  A    between atoms: C1_5  and  C2_6 
REMARK    3  A    between atoms: C2_6  and  C3_7 
REMARK    4  A    between atoms: C3_7  and  C4_8 
REMARK    5  A    between atoms: C4_8  and  C5_9 
REMARK    6  A    between atoms: C5_9  and  N2_10 
REMARK       I    between atoms: N2_10  and  C6_12 
REMARK    7  A    between atoms: C6_12  and  C7_14 
REMARK    8  A    between atoms: C7_14  and  C8_15 
REMARK    9  A    between atoms: C11_21  and  C12_22 
REMARK   10  A    between atoms: C12_22  and  C13_23 
REMARK   11  A    between atoms: N5_33  and  C20_34 
REMARK   12  A    between atoms: C20_34  and  C21_35 
REMARK   13  A    between atoms: C21_35  and  C22_36 
ROOT
HETATM    1  C8  UNL     1      45.233  44.927  48.828  1.00  0.00     0.288 C 
HETATM    2  N3  UNL     1      46.611  44.471  48.664  1.00  0.00    -0.025 N 
ATOM      3  H31 UNL     1      46.735  43.800  47.906  1.00  0.00     0.281 HD
ATOM      4  H32 UNL     1      46.935  43.862  49.416  1.00  0.00     0.281 HD
HETATM    5  C9  UNL     1      47.401  45.677  48.510  1.00  0.00     0.305 C 
HETATM    6  C10 UNL     1      48.876  45.506  48.869  1.00  0.00     0.104 C 
HETATM    7  C11 UNL     1      48.391  45.813  50.243  1.00  0.00     0.193 C 
HETATM    8  N4  UNL     1      47.240  46.523  49.688  1.00  0.00    -0.034 N 
ATOM      9  H41 UNL     1      46.353  46.576  50.191  1.00  0.00     0.280 HD
ATOM     10  H42 UNL     1      47.224  47.540  49.617  1.00  0.00     0.280 HD
HETATM   11  C19 UNL     1      47.160  46.356  47.208  1.00  0.00     0.195 C 
HETATM   12  N5  UNL     1      45.772  46.296  46.840  1.00  0.00    -0.346 N 
HETATM   13  C27 UNL     1      44.832  45.487  47.535  1.00  0.00     0.251 C 
HETATM   14  O2  UNL     1      43.693  45.284  47.015  1.00  0.00    -0.271 OA
ENDROOT
BRANCH   1  15
HETATM   15  C7  UNL     1      44.327  43.878  49.362  1.00  0.00     0.145 C 
BRANCH  15  16
HETATM   16  C6  UNL     1      44.786  43.276  50.626  1.00  0.00     0.220 C 
HETATM   17  N2  UNL     1      45.198  44.015  51.754  1.00  0.00    -0.361 N 
ATOM     18  H2  UNL     1      45.173  45.031  51.680  1.00  0.00     0.162 HD
HETATM   19  O1  UNL     1      44.807  42.020  50.690  1.00  0.00    -0.274 OA
BRANCH  17  20
HETATM   20  C5  UNL     1      45.647  43.461  52.986  1.00  0.00     0.122 C 
BRANCH  20  21
HETATM   21  C4  UNL     1      45.418  44.357  54.174  1.00  0.00     0.020 C 
BRANCH  21  22
HETATM   22  C3  UNL     1      45.703  43.657  55.475  1.00  0.00     0.003 C 
BRANCH  22  23
HETATM   23  C2  UNL     1      44.531  42.897  56.034  1.00  0.00     0.027 C 
BRANCH  23  24
HETATM   24  C1  UNL     1      45.104  41.578  56.566  1.00  0.00     0.229 C 
BRANCH  24  25
HETATM   25  N1  UNL     1      43.988  40.674  56.704  1.00  0.00    -0.079 N 
ATOM     26  H13 UNL     1      43.917  40.000  55.942  1.00  0.00     0.274 HD
ATOM     27  H12 UNL     1      44.104  40.000  57.460  1.00  0.00     0.274 HD
ATOM     28  H11 UNL     1      43.156  41.257  56.807  1.00  0.00     0.274 HD
ENDBRANCH  24  25
ENDBRANCH  23  24
ENDBRANCH  22  23
ENDBRANCH  21  22
ENDBRANCH  20  21
ENDBRANCH  17  20
ENDBRANCH  15  16
ENDBRANCH   1  15
BRANCH  12  29
HETATM   29  C20 UNL     1      45.371  47.120  45.698  1.00  0.00     0.126 C 
BRANCH  29  30
HETATM   30  C21 UNL     1      46.491  47.039  44.706  1.00  0.00     0.024 C 
BRANCH  30  31
HETATM   31  C22 UNL     1      46.134  47.651  43.361  1.00  0.00    -0.010 C 
HETATM   32  C23 UNL     1      44.915  46.996  42.833  1.00  0.00     0.032 C 
HETATM   33  C24 UNL     1      44.786  46.940  41.348  1.00  0.00     0.232 C 
HETATM   34  N6  UNL     1      45.881  47.561  40.640  1.00  0.00    -0.075 N 
HETATM   35  C25 UNL     1      47.105  46.941  41.162  1.00  0.00     0.232 C 
ATOM     36  H62 UNL     1      45.796  47.500  39.626  1.00  0.00     0.277 HD
ATOM     37  H61 UNL     1      45.882  48.579  40.704  1.00  0.00     0.277 HD
HETATM   38  C26 UNL     1      47.339  47.604  42.500  1.00  0.00     0.032 C 
ENDBRANCH  30  31
ENDBRANCH  29  30
ENDBRANCH  12  29
BRANCH   7  39
HETATM   39  C12 UNL     1      49.171  46.684  51.155  1.00  0.00     0.037 C 
BRANCH  39  40
HETATM   40  C13 UNL     1      49.878  46.078  52.310  1.00  0.00    -0.013 C 
HETATM   41  C14 UNL     1      50.843  46.920  53.046  1.00  0.00     0.005 C 
HETATM   42  C15 UNL     1      50.164  47.996  53.877  1.00  0.00     0.000 C 
HETATM   43  C16 UNL     1      49.320  47.231  54.897  1.00  0.00     0.000 C 
HETATM   44  C17 UNL     1      48.227  46.521  54.133  1.00  0.00     0.000 C 
HETATM   45  C18 UNL     1      48.865  45.445  53.285  1.00  0.00     0.005 C 
ENDBRANCH  39  40
ENDBRANCH   7  39
TORSDOF 13
ENDMDL
MODEL 5
REMARK VINA RESULT: -8.241835092      9.994     14.963
REMARK  13 active torsions:
REMARK  status: ('A' for Active; 'I' for Inactive)
REMARK    1  A    between atoms: N1_1  and  C1_5 
REMARK    2  A    between atoms: C1_5  and  C2_6 
REMARK    3  A    between atoms: C2_6  and  C3_7 
REMARK    4  A    between atoms: C3_7  and  C4_8 
REMARK    5  A    between atoms: C4_8  and  C5_9 
REMARK    6  A    between atoms: C5_9  and  N2_10 
REMARK       I    between atoms: N2_10  and  C6_12 
REMARK    7  A    between atoms: C6_12  and  C7_14 
REMARK    8  A    between atoms: C7_14  and  C8_15 
REMARK    9  A    between atoms: C11_21  and  C12_22 
REMARK   10  A    between atoms: C12_22  and  C13_23 
REMARK   11  A    between atoms: N5_33  and  C20_34 
REMARK   12  A    between atoms: C20_34  and  C21_35 
REMARK   13  A    between atoms: C21_35  and  C22_36 
ROOT
HETATM    1  C8  UNL     1      42.308  47.920  38.590  1.00  0.00     0.288 C 
HETATM    2  N3  UNL     1      43.690  48.260  38.262  1.00  0.00    -0.025 N 
ATOM      3  H31 UNL     1      44.114  47.639  37.573  1.00  0.00     0.281 HD
ATOM      4  H32 UNL     1      44.350  48.068  39.017  1.00  0.00     0.281 HD
HETATM    5  C9  UNL     1      43.659  49.650  37.853  1.00  0.00     0.305 C 
HETATM    6  C10 UNL     1      44.999  50.370  37.993  1.00  0.00     0.104 C 
HETATM    7  C11 UNL     1      44.523  50.607  39.383  1.00  0.00     0.193 C 
HETATM    8  N4  UNL     1      43.136  50.470  38.942  1.00  0.00    -0.034 N 
ATOM      9  H41 UNL     1      42.409  50.125  39.568  1.00  0.00     0.280 HD
ATOM     10  H42 UNL     1      42.550  51.285  38.762  1.00  0.00     0.280 HD
HETATM   11  C19 UNL     1      42.990  49.846  36.539  1.00  0.00     0.195 C 
HETATM   12  N5  UNL     1      41.850  48.981  36.403  1.00  0.00    -0.346 N 
HETATM   13  C27 UNL     1      41.573  47.932  37.322  1.00  0.00     0.251 C 
HETATM   14  O2  UNL     1      40.709  47.057  37.013  1.00  0.00    -0.271 OA
ENDROOT
BRANCH   1  15
HETATM   15  C7  UNL     1      42.181  46.663  39.372  1.00  0.00     0.145 C 
BRANCH  15  16
HETATM   16  C6  UNL     1      43.387  46.314  40.144  1.00  0.00     0.220 C 
HETATM   17  N2  UNL     1      43.758  46.927  41.357  1.00  0.00    -0.361 N 
ATOM     18  H2  UNL     1      43.145  47.659  41.716  1.00  0.00     0.162 HD
HETATM   19  O1  UNL     1      44.124  45.408  39.678  1.00  0.00    -0.274 OA
BRANCH  17  20
HETATM   20  C5  UNL     1      44.916  46.611  42.123  1.00  0.00     0.122 C 
BRANCH  20  21
HETATM   21  C4  UNL     1      45.629  47.818  42.672  1.00  0.00     0.020 C 
BRANCH  21  22
HETATM   22  C3  UNL     1      44.680  48.798  43.306  1.00  0.00     0.003 C 
BRANCH  22  23
HETATM   23  C2  UNL     1      44.694  48.782  44.811  1.00  0.00     0.027 C 
BRANCH  23  24
HETATM   24  C1  UNL     1      45.470  47.522  45.209  1.00  0.00     0.229 C 
BRANCH  24  25
HETATM   25  N1  UNL     1      44.828  47.004  46.392  1.00  0.00    -0.079 N 
ATOM     26  H13 UNL     1      43.949  47.472  46.613  1.00  0.00     0.274 HD
ATOM     27  H12 UNL     1      44.444  46.067  46.267  1.00  0.00     0.274 HD
ATOM     28  H11 UNL     1      45.516  47.061  47.143  1.00  0.00     0.274 HD
ENDBRANCH  24  25
ENDBRANCH  23  24
ENDBRANCH  22  23
ENDBRANCH  21  22
ENDBRANCH  20  21
ENDBRANCH  17  20
ENDBRANCH  15  16
ENDBRANCH   1  15
BRANCH  12  29
HETATM   29  C20 UNL     1      40.979  49.237  35.254  1.00  0.00     0.126 C 
BRANCH  29  30
HETATM   30  C21 UNL     1      40.543  50.666  35.366  1.00  0.00     0.024 C 
BRANCH  30  31
HETATM   31  C22 UNL     1      39.067  50.860  35.054  1.00  0.00    -0.010 C 
HETATM   32  C23 UNL     1      38.662  49.912  33.991  1.00  0.00     0.032 C 
HETATM   33  C24 UNL     1      37.545  50.351  33.107  1.00  0.00     0.232 C 
HETATM   34  N6  UNL     1      37.007  51.649  33.441  1.00  0.00    -0.075 N 
HETATM   35  C25 UNL     1      38.150  52.568  33.467  1.00  0.00     0.232 C 
ATOM     36  H62 UNL     1      36.257  51.952  32.819  1.00  0.00     0.277 HD
ATOM     37  H61 UNL     1      36.462  51.654  34.303  1.00  0.00     0.277 HD
HETATM   38  C26 UNL     1      38.839  52.299  34.785  1.00  0.00     0.032 C 
ENDBRANCH  30  31
ENDBRANCH  29  30
ENDBRANCH  12  29
BRANCH   7  39
HETATM   39  C12 UNL     1      44.745  51.908  40.060  1.00  0.00     0.037 C 
BRANCH  39  40
HETATM   40  C13 UNL     1      45.317  51.926  41.428  1.00  0.00    -0.013 C 
HETATM   41  C14 UNL     1      46.684  51.396  41.611  1.00  0.00     0.005 C 
HETATM   42  C15 UNL     1      47.748  52.312  41.028  1.00  0.00     0.000 C 
HETATM   43  C16 UNL     1      47.627  53.611  41.825  1.00  0.00     0.000 C 
HETATM   44  C17 UNL     1      46.292  54.226  41.479  1.00  0.00     0.000 C 
HETATM   45  C18 UNL     1      45.204  53.338  42.037  1.00  0.00     0.005 C 
ENDBRANCH  39  40
ENDBRANCH   7  39
TORSDOF 13
ENDMDL
