MODEL 1
REMARK VINA RESULT: -8.957174714      0.000      0.000
REMARK  15 active torsions:
REMARK  status: ('A' for Active; 'I' for Inactive)
REMARK    1  A    between atoms: C2_2  and  C4_4 
REMARK    2  A    between atoms: C4_4  and  C5_5 
REMARK    3  A    between atoms: C5_5  and  N1_6 
REMARK    4  A    between atoms: C5_5  and  C8_13 
REMARK    5  A    between atoms: N1_6  and  C6_9 
REMARK    6  A    between atoms: C6_9  and  C7_10 
REMARK    7  A    between atoms: C8_13  and  N2_15 
REMARK    8  A    between atoms: N2_15  and  C10_17 
REMARK    9  A    between atoms: C10_17  and  C11_18 
REMARK   10  A    between atoms: C10_17  and  C19_29 
REMARK       I    between atoms: C11_18  and  N3_20 
REMARK   11  A    between atoms: N3_20  and  C12_22 
REMARK   12  A    between atoms: C19_29  and  O4_30 
REMARK   13  A    between atoms: C19_29  and  N4_32 
REMARK   14  A    between atoms: C23_36  and  C24_37 
REMARK   15  A    between atoms: C24_37  and  C25_38 
ROOT
HETATM    1  C10 UNL     1      45.726  50.514  40.091  1.00  0.00     0.245 C 
ENDROOT
BRANCH   1   2
HETATM    2  N2  UNL     1      45.688  49.214  39.712  1.00  0.00    -0.397 N 
ATOM      3  H2  UNL     1      45.617  48.928  38.736  1.00  0.00     0.154 HD
BRANCH   2   4
HETATM    4  C8  UNL     1      45.757  48.241  40.825  1.00  0.00     0.104 C 
HETATM    5  C9  UNL     1      46.595  47.089  40.178  1.00  0.00     0.034 C 
BRANCH   4   6
HETATM    6  C5  UNL     1      44.455  47.570  41.092  1.00  0.00     0.208 C 
BRANCH   6   7
HETATM    7  C4  UNL     1      43.781  46.789  40.064  1.00  0.00     0.039 C 
BRANCH   7   8
HETATM    8  C2  UNL     1      42.275  46.990  40.031  1.00  0.00    -0.021 C 
HETATM    9  C1  UNL     1      41.771  47.083  38.597  1.00  0.00     0.009 C 
HETATM   10  C3  UNL     1      41.962  48.409  40.591  1.00  0.00     0.009 C 
ENDBRANCH   7   8
ENDBRANCH   6   7
BRANCH   6  11
HETATM   11  N1  UNL     1      44.822  46.620  42.221  1.00  0.00    -0.059 N 
ATOM     12  H12 UNL     1      44.174  45.840  42.329  1.00  0.00     0.278 HD
ATOM     13  H11 UNL     1      45.653  46.059  42.033  1.00  0.00     0.278 HD
BRANCH  11  14
HETATM   14  C6  UNL     1      44.934  47.461  43.407  1.00  0.00     0.345 C 
BRANCH  14  15
HETATM   15  C7  UNL     1      45.786  46.857  44.460  1.00  0.00     0.199 C 
HETATM   16  O1  UNL     1      46.948  47.144  44.751  1.00  0.00    -0.647 OA
HETATM   17  O2  UNL     1      45.152  45.828  45.198  1.00  0.00    -0.647 OA
ENDBRANCH  14  15
ENDBRANCH  11  14
ENDBRANCH   6  11
ENDBRANCH   4   6
ENDBRANCH   2   4
ENDBRANCH   1   2
BRANCH   1  18
HETATM   18  C11 UNL     1      45.068  50.940  38.573  1.00  0.00     0.248 C 
HETATM   19  O3  UNL     1      45.947  51.240  37.799  1.00  0.00    -0.271 OA
HETATM   20  N3  UNL     1      43.738  50.909  38.439  1.00  0.00    -0.354 N 
ATOM     21  H3  UNL     1      43.280  50.668  39.317  1.00  0.00     0.162 HD
BRANCH  20  22
HETATM   22  C12 UNL     1      42.792  51.121  37.400  1.00  0.00     0.084 C 
HETATM   23  C13 UNL     1      43.054  50.406  36.113  1.00  0.00     0.025 C 
HETATM   24  C14 UNL     1      42.137  49.222  35.857  1.00  0.00     0.002 C 
HETATM   25  C15 UNL     1      40.803  49.580  35.319  1.00  0.00     0.000 C 
HETATM   26  C16 UNL     1      40.504  51.063  35.396  1.00  0.00     0.000 C 
HETATM   27  C17 UNL     1      40.420  51.578  36.820  1.00  0.00     0.002 C 
HETATM   28  C18 UNL     1      41.326  50.824  37.788  1.00  0.00     0.025 C 
ENDBRANCH  20  22
ENDBRANCH   1  18
BRANCH   1  29
HETATM   29  C19 UNL     1      46.324  51.768  40.305  1.00  0.00     0.146 C 
BRANCH  29  30
HETATM   30  O4  UNL     1      47.594  51.934  40.008  1.00  0.00    -0.347 OA
ATOM     31  H4  UNL     1      47.879  52.759  39.634  1.00  0.00     0.219 HD
ENDBRANCH  29  30
BRANCH  29  32
HETATM   32  N4  UNL     1      45.765  52.963  40.812  1.00  0.00    -0.358 N 
HETATM   33  C20 UNL     1      46.226  54.302  40.781  1.00  0.00     0.125 C 
HETATM   34  C21 UNL     1      45.001  55.196  40.895  1.00  0.00     0.022 C 
HETATM   35  C22 UNL     1      43.876  54.217  41.147  1.00  0.00     0.027 C 
HETATM   36  C23 UNL     1      44.623  53.042  41.771  1.00  0.00     0.096 C 
BRANCH  36  37
HETATM   37  C24 UNL     1      45.187  53.451  43.116  1.00  0.00     0.138 C 
BRANCH  37  38
HETATM   38  C25 UNL     1      45.354  52.286  43.985  1.00  0.00     0.174 C 
HETATM   39  O5  UNL     1      45.025  51.117  43.660  1.00  0.00    -0.648 OA
HETATM   40  O6  UNL     1      45.910  52.400  45.268  1.00  0.00    -0.648 OA
ENDBRANCH  37  38
ENDBRANCH  36  37
ENDBRANCH  29  32
ENDBRANCH   1  29
TORSDOF 15
ENDMDL
MODEL 2
REMARK VINA RESULT: -8.634012202      2.570      7.415
REMARK  15 active torsions:
REMARK  status: ('A' for Active; 'I' for Inactive)
REMARK    1  A    between atoms: C2_2  and  C4_4 
REMARK    2  A    between atoms: C4_4  and  C5_5 
REMARK    3  A    between atoms: C5_5  and  N1_6 
REMARK    4  A    between atoms: C5_5  and  C8_13 
REMARK    5  A    between atoms: N1_6  and  C6_9 
REMARK    6  A    between atoms: C6_9  and  C7_10 
REMARK    7  A    between atoms: C8_13  and  N2_15 
REMARK    8  A    between atoms: N2_15  and  C10_17 
REMARK    9  A    between atoms: C10_17  and  C11_18 
REMARK   10  A    between atoms: C10_17  and  C19_29 
REMARK       I    between atoms: C11_18  and  N3_20 
REMARK   11  A    between atoms: N3_20  and  C12_22 
REMARK   12  A    between atoms: C19_29  and  O4_30 
REMARK   13  A    between atoms: C19_29  and  N4_32 
REMARK   14  A    between atoms: C23_36  and  C24_37 
REMARK   15  A    between atoms: C24_37  and  C25_38 
ROOT
HETATM    1  C10 UNL     1      44.327  50.312  38.330  1.00  0.00     0.245 C 
ENDROOT
BRANCH   1   2
HETATM    2  N2  UNL     1      43.918  51.535  37.916  1.00  0.00    -0.397 N 
ATOM      3  H2  UNL     1      44.540  52.342  37.887  1.00  0.00     0.154 HD
BRANCH   2   4
HETATM    4  C8  UNL     1      42.496  51.608  37.511  1.00  0.00     0.104 C 
HETATM    5  C9  UNL     1      41.834  50.612  38.520  1.00  0.00     0.034 C 
BRANCH   4   6
HETATM    6  C5  UNL     1      42.231  50.951  36.201  1.00  0.00     0.208 C 
BRANCH   6   7
HETATM    7  C4  UNL     1      41.465  49.715  36.116  1.00  0.00     0.039 C 
BRANCH   7   8
HETATM    8  C2  UNL     1      42.328  48.467  36.018  1.00  0.00    -0.021 C 
HETATM    9  C1  UNL     1      42.328  47.918  34.597  1.00  0.00     0.009 C 
HETATM   10  C3  UNL     1      41.631  47.329  36.820  1.00  0.00     0.009 C 
ENDBRANCH   7   8
ENDBRANCH   6   7
BRANCH   6  11
HETATM   11  N1  UNL     1      41.445  52.026  35.469  1.00  0.00    -0.059 N 
ATOM     12  H12 UNL     1      41.741  52.976  35.692  1.00  0.00     0.278 HD
ATOM     13  H11 UNL     1      41.643  52.072  34.469  1.00  0.00     0.278 HD
BRANCH  11  14
HETATM   14  C6  UNL     1      40.046  51.758  35.781  1.00  0.00     0.345 C 
BRANCH  14  15
HETATM   15  C7  UNL     1      39.119  52.256  34.736  1.00  0.00     0.199 C 
HETATM   16  O1  UNL     1      38.931  53.421  34.383  1.00  0.00    -0.647 OA
HETATM   17  O2  UNL     1      38.375  51.238  34.089  1.00  0.00    -0.647 OA
ENDBRANCH  14  15
ENDBRANCH  11  14
ENDBRANCH   6  11
ENDBRANCH   4   6
ENDBRANCH   2   4
ENDBRANCH   1   2
BRANCH   1  18
HETATM   18  C11 UNL     1      45.286  51.074  39.522  1.00  0.00     0.248 C 
HETATM   19  O3  UNL     1      46.302  51.512  39.032  1.00  0.00    -0.271 OA
HETATM   20  N3  UNL     1      44.832  51.079  40.779  1.00  0.00    -0.354 N 
ATOM     21  H3  UNL     1      43.957  50.561  40.862  1.00  0.00     0.162 HD
BRANCH  20  22
HETATM   22  C12 UNL     1      45.241  51.611  42.031  1.00  0.00     0.084 C 
HETATM   23  C13 UNL     1      45.190  53.100  42.163  1.00  0.00     0.025 C 
HETATM   24  C14 UNL     1      44.046  53.612  43.023  1.00  0.00     0.002 C 
HETATM   25  C15 UNL     1      44.297  53.550  44.483  1.00  0.00     0.000 C 
HETATM   26  C16 UNL     1      45.516  52.728  44.847  1.00  0.00     0.000 C 
HETATM   27  C17 UNL     1      45.372  51.263  44.488  1.00  0.00     0.002 C 
HETATM   28  C18 UNL     1      44.503  51.026  43.257  1.00  0.00     0.025 C 
ENDBRANCH  20  22
ENDBRANCH   1  18
BRANCH   1  29
HETATM   29  C19 UNL     1      45.108  49.144  38.295  1.00  0.00     0.146 C 
BRANCH  29  30
HETATM   30  O4  UNL     1      46.103  49.061  37.440  1.00  0.00    -0.347 OA
ATOM     31  H4  UNL     1      46.670  49.812  37.312  1.00  0.00     0.219 HD
ENDBRANCH  29  30
BRANCH  29  32
HETATM   32  N4  UNL     1      45.011  47.966  39.070  1.00  0.00    -0.358 N 
HETATM   33  C20 UNL     1      43.914  47.371  39.740  1.00  0.00     0.125 C 
HETATM   34  C21 UNL     1      44.218  45.886  39.857  1.00  0.00     0.022 C 
HETATM   35  C22 UNL     1      45.632  45.776  39.334  1.00  0.00     0.027 C 
HETATM   36  C23 UNL     1      46.168  47.180  39.594  1.00  0.00     0.096 C 
BRANCH  36  37
HETATM   37  C24 UNL     1      46.246  47.429  41.086  1.00  0.00     0.138 C 
BRANCH  37  38
HETATM   38  C25 UNL     1      47.438  48.210  41.421  1.00  0.00     0.174 C 
HETATM   39  O5  UNL     1      48.475  48.243  40.712  1.00  0.00    -0.648 OA
HETATM   40  O6  UNL     1      47.500  48.996  42.582  1.00  0.00    -0.648 OA
ENDBRANCH  37  38
ENDBRANCH  36  37
ENDBRANCH  29  32
ENDBRANCH   1  29
TORSDOF 15
ENDMDL
MODEL 3
REMARK VINA RESULT: -8.552354910      1.650      5.699
REMARK  15 active torsions:
REMARK  status: ('A' for Active; 'I' for Inactive)
REMARK    1  A    between atoms: C2_2  and  C4_4 
REMARK    2  A    between atoms: C4_4  and  C5_5 
REMARK    3  A    between atoms: C5_5  and  N1_6 
REMARK    4  A    between atoms: C5_5  and  C8_13 
REMARK    5  A    between atoms: N1_6  and  C6_9 
REMARK    6  A    between atoms: C6_9  and  C7_10 
REMARK    7  A    between atoms: C8_13  and  N2_15 
REMARK    8  A    between atoms: N2_15  and  C10_17 
REMARK    9  A    between atoms: C10_17  and  C11_18 
REMARK   10  A    between atoms: C10_17  and  C19_29 
REMARK       I    between atoms: C11_18  and  N3_20 
REMARK   11  A    between atoms: N3_20  and  C12_22 
REMARK   12  A    between atoms: C19_29  and  O4_30 
REMARK   13  A    between atoms: C19_29  and  N4_32 
REMARK   14  A    between atoms: C23_36  and  C24_37 
REMARK   15  A    between atoms: C24_37  and  C25_38 
ROOT
HETATM    1  C10 UNL     1      45.604  51.278  39.932  1.00  0.00     0.245 C 
ENDROOT
BRANCH   1   2
HETATM    2  N2  UNL     1      45.637  52.578  39.552  1.00  0.00    -0.397 N 
ATOM      3  H2  UNL     1      46.103  52.890  38.700  1.00  0.00     0.154 HD
BRANCH   2   4
HETATM    4  C8  UNL     1      44.945  53.510  40.469  1.00  0.00     0.104 C 
HETATM    5  C9  UNL     1      45.481  54.893  39.969  1.00  0.00     0.034 C 
BRANCH   4   6
HETATM    6  C5  UNL     1      45.472  53.455  41.861  1.00  0.00     0.208 C 
BRANCH   6   7
HETATM    7  C4  UNL     1      46.185  54.583  42.446  1.00  0.00     0.039 C 
BRANCH   7   8
HETATM    8  C2  UNL     1      47.525  54.208  43.058  1.00  0.00    -0.021 C 
HETATM    9  C1  UNL     1      48.537  55.332  42.878  1.00  0.00     0.009 C 
HETATM   10  C3  UNL     1      48.143  53.059  42.209  1.00  0.00     0.009 C 
ENDBRANCH   7   8
ENDBRANCH   6   7
BRANCH   6  11
HETATM   11  N1  UNL     1      44.200  53.252  42.666  1.00  0.00    -0.059 N 
ATOM     12  H12 UNL     1      43.371  53.094  42.094  1.00  0.00     0.278 HD
ATOM     13  H11 UNL     1      44.168  52.364  43.168  1.00  0.00     0.278 HD
BRANCH  11  14
HETATM   14  C6  UNL     1      44.103  54.422  43.532  1.00  0.00     0.345 C 
BRANCH  14  15
HETATM   15  C7  UNL     1      43.616  54.091  44.893  1.00  0.00     0.199 C 
HETATM   16  O1  UNL     1      42.468  54.181  45.329  1.00  0.00    -0.647 OA
HETATM   17  O2  UNL     1      44.625  53.619  45.769  1.00  0.00    -0.647 OA
ENDBRANCH  14  15
ENDBRANCH  11  14
ENDBRANCH   6  11
ENDBRANCH   4   6
ENDBRANCH   2   4
ENDBRANCH   1   2
BRANCH   1  18
HETATM   18  C11 UNL     1      45.072  50.868  38.361  1.00  0.00     0.248 C 
HETATM   19  O3  UNL     1      46.015  50.634  37.642  1.00  0.00    -0.271 OA
HETATM   20  N3  UNL     1      43.755  50.873  38.127  1.00  0.00    -0.354 N 
ATOM     21  H3  UNL     1      43.232  51.180  38.946  1.00  0.00     0.162 HD
BRANCH  20  22
HETATM   22  C12 UNL     1      42.891  50.564  37.042  1.00  0.00     0.084 C 
HETATM   23  C13 UNL     1      43.014  49.188  36.471  1.00  0.00     0.025 C 
HETATM   24  C14 UNL     1      41.872  48.255  36.835  1.00  0.00     0.002 C 
HETATM   25  C15 UNL     1      40.651  48.423  36.011  1.00  0.00     0.000 C 
HETATM   26  C16 UNL     1      40.671  49.678  35.161  1.00  0.00     0.000 C 
HETATM   27  C17 UNL     1      40.676  50.951  35.984  1.00  0.00     0.002 C 
HETATM   28  C18 UNL     1      41.389  50.800  37.323  1.00  0.00     0.025 C 
ENDBRANCH  20  22
ENDBRANCH   1  18
BRANCH   1  29
HETATM   29  C19 UNL     1      45.052  50.134  40.534  1.00  0.00     0.146 C 
BRANCH  29  30
HETATM   30  O4  UNL     1      44.070  50.272  41.398  1.00  0.00    -0.347 OA
ATOM     31  H4  UNL     1      43.389  49.612  41.437  1.00  0.00     0.219 HD
ENDBRANCH  29  30
BRANCH  29  32
HETATM   32  N4  UNL     1      45.383  48.771  40.362  1.00  0.00    -0.358 N 
HETATM   33  C20 UNL     1      44.647  47.688  39.823  1.00  0.00     0.125 C 
HETATM   34  C21 UNL     1      45.659  46.668  39.324  1.00  0.00     0.022 C 
HETATM   35  C22 UNL     1      46.982  47.234  39.788  1.00  0.00     0.027 C 
HETATM   36  C23 UNL     1      46.554  48.083  40.981  1.00  0.00     0.096 C 
BRANCH  36  37
HETATM   37  C24 UNL     1      46.024  47.187  42.082  1.00  0.00     0.138 C 
BRANCH  37  38
HETATM   38  C25 UNL     1      46.299  47.765  43.398  1.00  0.00     0.174 C 
HETATM   39  O5  UNL     1      45.873  48.887  43.773  1.00  0.00    -0.648 OA
HETATM   40  O6  UNL     1      47.070  47.086  44.354  1.00  0.00    -0.648 OA
ENDBRANCH  37  38
ENDBRANCH  36  37
ENDBRANCH  29  32
ENDBRANCH   1  29
TORSDOF 15
ENDMDL
MODEL 4
REMARK VINA RESULT: -8.518222463      1.924      5.705
REMARK  15 active torsions:
REMARK  status: ('A' for Active; 'I' for Inactive)
REMARK    1  A    between atoms: C2_2  and  C4_4 
REMARK    2  A    between atoms: C4_4  and  C5_5 
REMARK    3  A    between atoms: C5_5  and  N1_6 
REMARK    4  A    between atoms: C5_5  and  C8_13 
REMARK    5  A    between atoms: N1_6  and  C6_9 
REMARK    6  A    between atoms: C6_9  and  C7_10 
REMARK    7  A    between atoms: C8_13  and  N2_15 
REMARK    8  A    between atoms: N2_15  and  C10_17 
REMARK    9  A    between atoms: C10_17  and  C11_18 
REMARK   10  A    between atoms: C10_17  and  C19_29 
REMARK       I    between atoms: C11_18  and  N3_20 
REMARK   11  A    between atoms: N3_20  and  C12_22 
REMARK   12  A    between atoms: C19_29  and  O4_30 
REMARK   13  A    between atoms: C19_29  and  N4_32 
REMARK   14  A    between atoms: C23_36  and  C24_37 
REMARK   15  A    between atoms: C24_37  and  C25_38 
ROOT
HETATM    1  C10 UNL     1      45.754  51.188  40.212  1.00  0.00     0.245 C 
ENDROOT
BRANCH   1   2
HETATM    2  N2  UNL     1      45.714  52.362  39.538  1.00  0.00    -0.397 N 
ATOM      3  H2  UNL     1      46.093  52.469  38.598  1.00  0.00     0.154 HD
BRANCH   2   4
HETATM    4  C8  UNL     1      45.076  53.478  40.273  1.00  0.00     0.104 C 
HETATM    5  C9  UNL     1      45.688  54.719  39.542  1.00  0.00     0.034 C 
BRANCH   4   6
HETATM    6  C5  UNL     1      45.602  53.638  41.657  1.00  0.00     0.208 C 
BRANCH   6   7
HETATM    7  C4  UNL     1      46.397  54.799  42.035  1.00  0.00     0.039 C 
BRANCH   7   8
HETATM    8  C2  UNL     1      47.895  54.545  42.021  1.00  0.00    -0.021 C 
HETATM    9  C1  UNL     1      48.203  53.098  42.383  1.00  0.00     0.009 C 
HETATM   10  C3  UNL     1      48.533  55.332  43.204  1.00  0.00     0.009 C 
ENDBRANCH   7   8
ENDBRANCH   6   7
BRANCH   6  11
HETATM   11  N1  UNL     1      44.321  53.676  42.473  1.00  0.00    -0.059 N 
ATOM     12  H12 UNL     1      43.644  54.365  42.145  1.00  0.00     0.278 HD
ATOM     13  H11 UNL     1      43.727  52.856  42.344  1.00  0.00     0.278 HD
BRANCH  11  14
HETATM   14  C6  UNL     1      44.750  53.882  43.851  1.00  0.00     0.345 C 
BRANCH  14  15
HETATM   15  C7  UNL     1      45.055  52.612  44.554  1.00  0.00     0.199 C 
HETATM   16  O1  UNL     1      44.518  51.515  44.401  1.00  0.00    -0.647 OA
HETATM   17  O2  UNL     1      46.094  52.715  45.511  1.00  0.00    -0.647 OA
ENDBRANCH  14  15
ENDBRANCH  11  14
ENDBRANCH   6  11
ENDBRANCH   4   6
ENDBRANCH   2   4
ENDBRANCH   1   2
BRANCH   1  18
HETATM   18  C11 UNL     1      44.961  50.444  38.895  1.00  0.00     0.248 C 
HETATM   19  O3  UNL     1      45.736  50.254  37.986  1.00  0.00    -0.271 OA
HETATM   20  N3  UNL     1      43.653  50.192  39.015  1.00  0.00    -0.354 N 
ATOM     21  H3  UNL     1      43.286  50.539  39.901  1.00  0.00     0.162 HD
BRANCH  20  22
HETATM   22  C12 UNL     1      42.638  49.571  38.239  1.00  0.00     0.084 C 
HETATM   23  C13 UNL     1      41.915  50.454  37.272  1.00  0.00     0.025 C 
HETATM   24  C14 UNL     1      42.295  50.231  35.817  1.00  0.00     0.002 C 
HETATM   25  C15 UNL     1      41.624  49.076  35.174  1.00  0.00     0.000 C 
HETATM   26  C16 UNL     1      40.914  48.171  36.160  1.00  0.00     0.000 C 
HETATM   27  C17 UNL     1      41.861  47.489  37.128  1.00  0.00     0.002 C 
HETATM   28  C18 UNL     1      43.096  48.323  37.451  1.00  0.00     0.025 C 
ENDBRANCH  20  22
ENDBRANCH   1  18
BRANCH   1  29
HETATM   29  C19 UNL     1      45.321  50.235  41.150  1.00  0.00     0.146 C 
BRANCH  29  30
HETATM   30  O4  UNL     1      44.254  50.486  41.876  1.00  0.00    -0.347 OA
ATOM     31  H4  UNL     1      43.646  49.782  42.068  1.00  0.00     0.219 HD
ENDBRANCH  29  30
BRANCH  29  32
HETATM   32  N4  UNL     1      45.862  48.969  41.472  1.00  0.00    -0.358 N 
HETATM   33  C20 UNL     1      46.969  48.261  40.944  1.00  0.00     0.125 C 
HETATM   34  C21 UNL     1      47.445  47.309  42.031  1.00  0.00     0.022 C 
HETATM   35  C22 UNL     1      46.400  47.464  43.113  1.00  0.00     0.027 C 
HETATM   36  C23 UNL     1      45.191  47.932  42.310  1.00  0.00     0.096 C 
BRANCH  36  37
HETATM   37  C24 UNL     1      44.733  46.825  41.383  1.00  0.00     0.138 C 
BRANCH  37  38
HETATM   38  C25 UNL     1      43.337  47.021  40.989  1.00  0.00     0.174 C 
HETATM   39  O5  UNL     1      42.697  46.222  40.259  1.00  0.00    -0.648 OA
HETATM   40  O6  UNL     1      42.602  48.138  41.415  1.00  0.00    -0.648 OA
ENDBRANCH  37  38
ENDBRANCH  36  37
ENDBRANCH  29  32
ENDBRANCH   1  29
TORSDOF 15
ENDMDL
MODEL 5
REMARK VINA RESULT: -8.501580016      2.052      5.897
REMARK  15 active torsions:
REMARK  status: ('A' for Active; 'I' for Inactive)
REMARK    1  A    between atoms: C2_2  and  C4_4 
REMARK    2  A    between atoms: C4_4  and  C5_5 
REMARK    3  A    between atoms: C5_5  and  N1_6 
REMARK    4  A    between atoms: C5_5  and  C8_13 
REMARK    5  A    between atoms: N1_6  and  C6_9 
REMARK    6  A    between atoms: C6_9  and  C7_10 
REMARK    7  A    between atoms: C8_13  and  N2_15 
REMARK    8  A    between atoms: N2_15  and  C10_17 
REMARK    9  A    between atoms: C10_17  and  C11_18 
REMARK   10  A    between atoms: C10_17  and  C19_29 
REMARK       I    between atoms: C11_18  and  N3_20 
REMARK   11  A    between atoms: N3_20  and  C12_22 
REMARK   12  A    between atoms: C19_29  and  O4_30 
REMARK   13  A    between atoms: C19_29  and  N4_32 
REMARK   14  A    between atoms: C23_36  and  C24_37 
REMARK   15  A    between atoms: C24_37  and  C25_38 
ROOT
HETATM    1  C10 UNL     1      45.627  51.285  41.046  1.00  0.00     0.245 C 
ENDROOT
BRANCH   1   2
HETATM    2  N2  UNL     1      45.494  52.545  40.567  1.00  0.00    -0.397 N 
ATOM      3  H2  UNL     1      46.053  52.900  39.793  1.00  0.00     0.154 HD
BRANCH   2   4
HETATM    4  C8  UNL     1      44.472  53.365  41.257  1.00  0.00     0.104 C 
HETATM    5  C9  UNL     1      43.735  54.025  40.044  1.00  0.00     0.034 C 
BRANCH   4   6
HETATM    6  C5  UNL     1      45.050  54.548  41.953  1.00  0.00     0.208 C 
BRANCH   6   7
HETATM    7  C4  UNL     1      45.060  54.640  43.407  1.00  0.00     0.039 C 
BRANCH   7   8
HETATM    8  C2  UNL     1      44.324  53.504  44.096  1.00  0.00    -0.021 C 
HETATM    9  C1  UNL     1      43.480  54.026  45.252  1.00  0.00     0.009 C 
HETATM   10  C3  UNL     1      45.375  52.613  44.822  1.00  0.00     0.009 C 
ENDBRANCH   7   8
ENDBRANCH   6   7
BRANCH   6  11
HETATM   11  N1  UNL     1      46.496  54.506  41.487  1.00  0.00    -0.059 N 
ATOM     12  H12 UNL     1      46.786  53.597  41.126  1.00  0.00     0.278 HD
ATOM     13  H11 UNL     1      46.669  55.034  40.632  1.00  0.00     0.278 HD
BRANCH  11  14
HETATM   14  C6  UNL     1      47.280  54.961  42.630  1.00  0.00     0.345 C 
BRANCH  14  15
HETATM   15  C7  UNL     1      48.331  53.994  43.028  1.00  0.00     0.199 C 
HETATM   16  O1  UNL     1      49.161  54.107  43.930  1.00  0.00    -0.647 OA
HETATM   17  O2  UNL     1      48.352  52.809  42.251  1.00  0.00    -0.647 OA
ENDBRANCH  14  15
ENDBRANCH  11  14
ENDBRANCH   6  11
ENDBRANCH   4   6
ENDBRANCH   2   4
ENDBRANCH   1   2
BRANCH   1  18
HETATM   18  C11 UNL     1      44.993  50.695  39.574  1.00  0.00     0.248 C 
HETATM   19  O3  UNL     1      45.847  50.683  38.718  1.00  0.00    -0.271 OA
HETATM   20  N3  UNL     1      43.700  50.354  39.543  1.00  0.00    -0.354 N 
ATOM     21  H3  UNL     1      43.242  50.547  40.433  1.00  0.00     0.162 HD
BRANCH  20  22
HETATM   22  C12 UNL     1      42.794  49.795  38.602  1.00  0.00     0.084 C 
HETATM   23  C13 UNL     1      42.189  50.749  37.622  1.00  0.00     0.025 C 
HETATM   24  C14 UNL     1      42.748  50.637  36.213  1.00  0.00     0.002 C 
HETATM   25  C15 UNL     1      42.172  49.535  35.407  1.00  0.00     0.000 C 
HETATM   26  C16 UNL     1      41.353  48.558  36.226  1.00  0.00     0.000 C 
HETATM   27  C17 UNL     1      42.179  47.804  37.249  1.00  0.00     0.002 C 
HETATM   28  C18 UNL     1      43.357  48.610  37.785  1.00  0.00     0.025 C 
ENDBRANCH  20  22
ENDBRANCH   1  18
BRANCH   1  29
HETATM   29  C19 UNL     1      45.252  50.150  41.787  1.00  0.00     0.146 C 
BRANCH  29  30
HETATM   30  O4  UNL     1      44.172  50.199  42.535  1.00  0.00    -0.347 OA
ATOM     31  H4  UNL     1      44.035  49.532  43.197  1.00  0.00     0.219 HD
ENDBRANCH  29  30
BRANCH  29  32
HETATM   32  N4  UNL     1      45.868  48.881  41.873  1.00  0.00    -0.358 N 
HETATM   33  C20 UNL     1      47.022  48.354  41.245  1.00  0.00     0.125 C 
HETATM   34  C21 UNL     1      47.546  47.242  42.141  1.00  0.00     0.022 C 
HETATM   35  C22 UNL     1      46.483  47.124  43.210  1.00  0.00     0.027 C 
HETATM   36  C23 UNL     1      45.254  47.665  42.484  1.00  0.00     0.096 C 
BRANCH  36  37
HETATM   37  C24 UNL     1      44.876  46.730  41.354  1.00  0.00     0.138 C 
BRANCH  37  38
HETATM   38  C25 UNL     1      43.466  46.889  40.997  1.00  0.00     0.174 C 
HETATM   39  O5  UNL     1      42.750  47.846  41.386  1.00  0.00    -0.648 OA
HETATM   40  O6  UNL     1      42.806  45.963  40.175  1.00  0.00    -0.648 OA
ENDBRANCH  37  38
ENDBRANCH  36  37
ENDBRANCH  29  32
ENDBRANCH   1  29
TORSDOF 15
ENDMDL
