MODEL 1
REMARK VINA RESULT: -7.395559430      0.000      0.000
REMARK  4 active torsions:
REMARK  status: ('A' for Active; 'I' for Inactive)
REMARK    1  A    between atoms: C2_2  and  C4_4 
REMARK    2  A    between atoms: C5_5  and  O1_6 
REMARK       I    between atoms: N1_13  and  C10_14 
REMARK    3  A    between atoms: C10_14  and  C11_16 
REMARK    4  A    between atoms: C11_16  and  C12_17 
ROOT
HETATM    1  C4  UNL     1      -1.390   7.390  13.616  1.00  0.00     0.052 C 
HETATM    2  C5  UNL     1      -0.408   7.121  12.515  1.00  0.00     0.146 C 
HETATM    3  C6  UNL     1      -0.592   5.600  12.344  1.00  0.00     0.118 C 
HETATM    4 CL1  UNL     1      -0.501   5.225  10.593  1.00  0.00    -0.122 Cl
HETATM    5  C7  UNL     1      -1.947   5.280  12.860  1.00  0.00     0.041 C 
HETATM    6  C8  UNL     1      -2.684   4.274  12.042  1.00  0.00     0.120 C 
HETATM    7  C9  UNL     1      -1.761   3.048  11.962  1.00  0.00     0.035 C 
HETATM    8  N1  UNL     1      -3.864   3.840  12.753  1.00  0.00    -0.221 N 
HETATM    9  C10 UNL     1      -4.758   2.906  12.144  1.00  0.00     0.252 C 
HETATM   10  O2  UNL     1      -5.780   2.579  12.815  1.00  0.00    -0.271 OA
HETATM   11  O4  UNL     1      -4.276   4.229  14.008  1.00  0.00    -0.270 OA
HETATM   12  C13 UNL     1      -4.722   5.538  13.832  1.00  0.00     0.149 C 
HETATM   13  C14 UNL     1      -5.913   5.825  14.732  1.00  0.00     0.042 C 
HETATM   14  C15 UNL     1      -3.627   6.477  14.262  1.00  0.00     0.044 C 
HETATM   15  C16 UNL     1      -2.599   6.578  13.156  1.00  0.00    -0.025 C 
HETATM   16  C17 UNL     1      -3.279   7.248  11.989  1.00  0.00     0.016 C 
ENDROOT
BRANCH   9  17
HETATM   17  C11 UNL     1      -4.542   2.336  10.814  1.00  0.00     0.204 C 
BRANCH  17  18
HETATM   18  C12 UNL     1      -4.854   0.895  10.795  1.00  0.00     0.239 C 
HETATM   19  N2  UNL     1      -4.416   0.077  11.913  1.00  0.00    -0.062 NA
HETATM   20  O3  UNL     1      -5.474   0.382   9.855  1.00  0.00    -0.276 OA
ENDBRANCH  17  18
ENDBRANCH   9  17
BRANCH   2  21
HETATM   21  O1  UNL     1      -0.642   7.700  11.307  1.00  0.00    -0.393 OA
ATOM     22  H1  UNL     1      -0.094   7.435  10.578  1.00  0.00     0.210 HD
ENDBRANCH   2  21
BRANCH   1  23
HETATM   23  C2  UNL     1      -1.557   8.731  14.060  1.00  0.00    -0.086 C 
HETATM   24  C1  UNL     1      -1.532   9.783  13.262  1.00  0.00     0.014 C 
HETATM   25  C3  UNL     1      -1.718   9.092  15.513  1.00  0.00     0.043 C 
ENDBRANCH   1  23
TORSDOF 4
ENDMDL
MODEL 2
REMARK VINA RESULT: -7.348995173      3.024      5.096
REMARK  4 active torsions:
REMARK  status: ('A' for Active; 'I' for Inactive)
REMARK    1  A    between atoms: C2_2  and  C4_4 
REMARK    2  A    between atoms: C5_5  and  O1_6 
REMARK       I    between atoms: N1_13  and  C10_14 
REMARK    3  A    between atoms: C10_14  and  C11_16 
REMARK    4  A    between atoms: C11_16  and  C12_17 
ROOT
HETATM    1  C4  UNL     1      -3.647   4.827  10.679  1.00  0.00     0.052 C 
HETATM    2  C5  UNL     1      -3.442   6.061  11.506  1.00  0.00     0.146 C 
HETATM    3  C6  UNL     1      -4.371   5.756  12.697  1.00  0.00     0.118 C 
HETATM    4 CL1  UNL     1      -3.566   6.338  14.191  1.00  0.00    -0.122 Cl
HETATM    5  C7  UNL     1      -4.520   4.279  12.747  1.00  0.00     0.041 C 
HETATM    6  C8  UNL     1      -4.507   3.715  14.127  1.00  0.00     0.120 C 
HETATM    7  C9  UNL     1      -5.613   4.461  14.891  1.00  0.00     0.035 C 
HETATM    8  N1  UNL     1      -4.913   2.330  14.089  1.00  0.00    -0.221 N 
HETATM    9  C10 UNL     1      -4.933   1.561  15.295  1.00  0.00     0.252 C 
HETATM   10  O2  UNL     1      -5.285   0.350  15.189  1.00  0.00    -0.271 OA
HETATM   11  O4  UNL     1      -5.300   1.599  12.988  1.00  0.00    -0.270 OA
HETATM   12  C13 UNL     1      -4.117   1.392  12.281  1.00  0.00     0.149 C 
HETATM   13  C14 UNL     1      -4.121   0.026  11.615  1.00  0.00     0.042 C 
HETATM   14  C15 UNL     1      -4.040   2.406  11.171  1.00  0.00     0.044 C 
HETATM   15  C16 UNL     1      -3.579   3.730  11.741  1.00  0.00    -0.025 C 
HETATM   16  C17 UNL     1      -2.162   3.532  12.213  1.00  0.00     0.016 C 
ENDROOT
BRANCH   9  17
HETATM   17  C11 UNL     1      -4.571   2.107  16.602  1.00  0.00     0.204 C 
BRANCH  17  18
HETATM   18  C12 UNL     1      -5.526   1.680  17.642  1.00  0.00     0.239 C 
HETATM   19  N2  UNL     1      -6.742   2.454  17.823  1.00  0.00    -0.062 NA
HETATM   20  O3  UNL     1      -5.308   0.688  18.348  1.00  0.00    -0.276 OA
ENDBRANCH  17  18
ENDBRANCH   9  17
BRANCH   2  21
HETATM   21  O1  UNL     1      -2.196   6.284  12.004  1.00  0.00    -0.393 OA
ATOM     22  H1  UNL     1      -1.644   5.528  12.166  1.00  0.00     0.210 HD
ENDBRANCH   2  21
BRANCH   1  23
HETATM   23  C2  UNL     1      -2.913   4.695   9.468  1.00  0.00    -0.086 C 
HETATM   24  C1  UNL     1      -3.467   4.580   8.275  1.00  0.00     0.014 C 
HETATM   25  C3  UNL     1      -1.410   4.609   9.435  1.00  0.00     0.043 C 
ENDBRANCH   1  23
TORSDOF 4
ENDMDL
MODEL 3
REMARK VINA RESULT: -7.057142491      2.645      4.722
REMARK  4 active torsions:
REMARK  status: ('A' for Active; 'I' for Inactive)
REMARK    1  A    between atoms: C2_2  and  C4_4 
REMARK    2  A    between atoms: C5_5  and  O1_6 
REMARK       I    between atoms: N1_13  and  C10_14 
REMARK    3  A    between atoms: C10_14  and  C11_16 
REMARK    4  A    between atoms: C11_16  and  C12_17 
ROOT
HETATM    1  C4  UNL     1      -3.110   5.403  10.140  1.00  0.00     0.052 C 
HETATM    2  C5  UNL     1      -2.627   6.549  10.976  1.00  0.00     0.146 C 
HETATM    3  C6  UNL     1      -3.653   6.509  12.125  1.00  0.00     0.118 C 
HETATM    4 CL1  UNL     1      -2.789   6.878  13.653  1.00  0.00    -0.122 Cl
HETATM    5  C7  UNL     1      -4.183   5.122  12.167  1.00  0.00     0.041 C 
HETATM    6  C8  UNL     1      -4.375   4.589  13.546  1.00  0.00     0.120 C 
HETATM    7  C9  UNL     1      -5.281   5.604  14.261  1.00  0.00     0.035 C 
HETATM    8  N1  UNL     1      -5.124   3.356  13.489  1.00  0.00    -0.221 N 
HETATM    9  C10 UNL     1      -5.395   2.631  14.692  1.00  0.00     0.252 C 
HETATM   10  O2  UNL     1      -6.045   1.552  14.570  1.00  0.00    -0.271 OA
HETATM   11  O4  UNL     1      -5.641   2.739  12.371  1.00  0.00    -0.270 OA
HETATM   12  C13 UNL     1      -4.523   2.224  11.717  1.00  0.00     0.149 C 
HETATM   13  C14 UNL     1      -4.853   0.899  11.051  1.00  0.00     0.042 C 
HETATM   14  C15 UNL     1      -4.138   3.172  10.612  1.00  0.00     0.044 C 
HETATM   15  C16 UNL     1      -3.374   4.337  11.203  1.00  0.00    -0.025 C 
HETATM   16  C17 UNL     1      -2.078   3.783  11.736  1.00  0.00     0.016 C 
ENDROOT
BRANCH   9  17
HETATM   17  C11 UNL     1      -4.959   3.079  16.015  1.00  0.00     0.204 C 
BRANCH  17  18
HETATM   18  C12 UNL     1      -4.776   1.937  16.930  1.00  0.00     0.239 C 
HETATM   19  N2  UNL     1      -3.782   0.932  16.593  1.00  0.00    -0.062 NA
HETATM   20  O3  UNL     1      -5.447   1.826  17.964  1.00  0.00    -0.276 OA
ENDBRANCH  17  18
ENDBRANCH   9  17
BRANCH   2  21
HETATM   21  O1  UNL     1      -1.388   6.448  11.529  1.00  0.00    -0.393 OA
ATOM     22  H1  UNL     1      -0.964   7.251  11.809  1.00  0.00     0.210 HD
ENDBRANCH   2  21
BRANCH   1  23
HETATM   23  C2  UNL     1      -2.385   5.072   8.962  1.00  0.00    -0.086 C 
HETATM   24  C1  UNL     1      -1.072   4.941   8.913  1.00  0.00     0.014 C 
HETATM   25  C3  UNL     1      -3.049   4.898   7.621  1.00  0.00     0.043 C 
ENDBRANCH   1  23
TORSDOF 4
ENDMDL
MODEL 4
REMARK VINA RESULT: -6.962241404      1.542      1.824
REMARK  4 active torsions:
REMARK  status: ('A' for Active; 'I' for Inactive)
REMARK    1  A    between atoms: C2_2  and  C4_4 
REMARK    2  A    between atoms: C5_5  and  O1_6 
REMARK       I    between atoms: N1_13  and  C10_14 
REMARK    3  A    between atoms: C10_14  and  C11_16 
REMARK    4  A    between atoms: C11_16  and  C12_17 
ROOT
HETATM    1  C4  UNL     1      -2.176   7.531  11.712  1.00  0.00     0.052 C 
HETATM    2  C5  UNL     1      -1.385   7.020  10.546  1.00  0.00     0.146 C 
HETATM    3  C6  UNL     1      -1.079   5.587  11.023  1.00  0.00     0.118 C 
HETATM    4 CL1  UNL     1      -1.197   4.493   9.607  1.00  0.00    -0.122 Cl
HETATM    5  C7  UNL     1      -2.127   5.242  12.017  1.00  0.00     0.041 C 
HETATM    6  C8  UNL     1      -2.626   3.840  11.910  1.00  0.00     0.120 C 
HETATM    7  C9  UNL     1      -1.379   2.948  12.011  1.00  0.00     0.035 C 
HETATM    8  N1  UNL     1      -3.438   3.524  13.061  1.00  0.00    -0.221 N 
HETATM    9  C10 UNL     1      -4.066   2.244  13.159  1.00  0.00     0.252 C 
HETATM   10  O2  UNL     1      -4.775   2.037  14.187  1.00  0.00    -0.271 OA
HETATM   11  O4  UNL     1      -3.713   4.335  14.140  1.00  0.00    -0.270 OA
HETATM   12  C13 UNL     1      -4.596   5.289  13.636  1.00  0.00     0.149 C 
HETATM   13  C14 UNL     1      -5.623   5.679  14.686  1.00  0.00     0.042 C 
HETATM   14  C15 UNL     1      -3.817   6.537  13.317  1.00  0.00     0.044 C 
HETATM   15  C16 UNL     1      -3.108   6.354  11.992  1.00  0.00    -0.025 C 
HETATM   16  C17 UNL     1      -4.178   6.257  10.935  1.00  0.00     0.016 C 
ENDROOT
BRANCH   9  17
HETATM   17  C11 UNL     1      -3.925   1.200  12.144  1.00  0.00     0.204 C 
BRANCH  17  18
HETATM   18  C12 UNL     1      -4.961   1.326  11.103  1.00  0.00     0.239 C 
HETATM   19  N2  UNL     1      -4.960   0.372  10.006  1.00  0.00    -0.062 NA
HETATM   20  O3  UNL     1      -5.818   2.218  11.150  1.00  0.00    -0.276 OA
ENDBRANCH  17  18
ENDBRANCH   9  17
BRANCH   2  21
HETATM   21  O1  UNL     1      -2.021   6.925   9.347  1.00  0.00    -0.393 OA
ATOM     22  H1  UNL     1      -2.796   6.376   9.302  1.00  0.00     0.210 HD
ENDBRANCH   2  21
BRANCH   1  23
HETATM   23  C2  UNL     1      -2.695   8.854  11.649  1.00  0.00    -0.086 C 
HETATM   24  C1  UNL     1      -2.165   9.889  12.275  1.00  0.00     0.014 C 
HETATM   25  C3  UNL     1      -3.957   9.196  10.901  1.00  0.00     0.043 C 
ENDBRANCH   1  23
TORSDOF 4
ENDMDL
MODEL 5
REMARK VINA RESULT: -6.753325708      4.591      5.824
REMARK  4 active torsions:
REMARK  status: ('A' for Active; 'I' for Inactive)
REMARK    1  A    between atoms: C2_2  and  C4_4 
REMARK    2  A    between atoms: C5_5  and  O1_6 
REMARK       I    between atoms: N1_13  and  C10_14 
REMARK    3  A    between atoms: C10_14  and  C11_16 
REMARK    4  A    between atoms: C11_16  and  C12_17 
ROOT
HETATM    1  C4  UNL     1      -6.386   8.613   7.418  1.00  0.00     0.052 C 
HETATM    2  C5  UNL     1      -5.577   7.873   6.395  1.00  0.00     0.146 C 
HETATM    3  C6  UNL     1      -4.366   7.450   7.250  1.00  0.00     0.118 C 
HETATM    4 CL1  UNL     1      -3.889   5.794   6.754  1.00  0.00    -0.122 Cl
HETATM    5  C7  UNL     1      -4.831   7.441   8.661  1.00  0.00     0.041 C 
HETATM    6  C8  UNL     1      -4.307   6.298   9.463  1.00  0.00     0.120 C 
HETATM    7  C9  UNL     1      -2.777   6.366   9.331  1.00  0.00     0.035 C 
HETATM    8  N1  UNL     1      -4.597   6.514  10.861  1.00  0.00    -0.221 N 
HETATM    9  C10 UNL     1      -4.228   5.524  11.826  1.00  0.00     0.252 C 
HETATM   10  O2  UNL     1      -4.524   5.770  13.032  1.00  0.00    -0.271 OA
HETATM   11  O4  UNL     1      -5.222   7.602  11.430  1.00  0.00    -0.270 OA
HETATM   12  C13 UNL     1      -6.557   7.464  11.056  1.00  0.00     0.149 C 
HETATM   13  C14 UNL     1      -7.478   7.949  12.163  1.00  0.00     0.042 C 
HETATM   14  C15 UNL     1      -6.814   8.353   9.869  1.00  0.00     0.044 C 
HETATM   15  C16 UNL     1      -6.296   7.674   8.619  1.00  0.00    -0.025 C 
HETATM   16  C17 UNL     1      -7.145   6.448   8.405  1.00  0.00     0.016 C 
ENDROOT
BRANCH   9  17
HETATM   17  C11 UNL     1      -3.546   4.278  11.477  1.00  0.00     0.204 C 
BRANCH  17  18
HETATM   18  C12 UNL     1      -4.331   3.104  11.904  1.00  0.00     0.239 C 
HETATM   19  N2  UNL     1      -3.898   2.374  13.083  1.00  0.00    -0.062 NA
HETATM   20  O3  UNL     1      -5.336   2.740  11.281  1.00  0.00    -0.276 OA
ENDBRANCH  17  18
ENDBRANCH   9  17
BRANCH   2  21
HETATM   21  O1  UNL     1      -6.115   6.745   5.861  1.00  0.00    -0.393 OA
ATOM     22  H1  UNL     1      -6.658   6.206   6.425  1.00  0.00     0.210 HD
ENDBRANCH   2  21
BRANCH   1  23
HETATM   23  C2  UNL     1      -7.644   9.150   7.025  1.00  0.00    -0.086 C 
HETATM   24  C1  UNL     1      -7.830   9.883   5.943  1.00  0.00     0.014 C 
HETATM   25  C3  UNL     1      -8.891   8.985   7.852  1.00  0.00     0.043 C 
ENDBRANCH   1  23
TORSDOF 4
ENDMDL
