MODEL 1
REMARK VINA RESULT: -7.034351175      0.000      0.000
REMARK  14 active torsions:
REMARK  status: ('A' for Active; 'I' for Inactive)
REMARK    1  A    between atoms: C2_3  and  C3_4 
REMARK    2  A    between atoms: C2_3  and  C6_11 
REMARK    3  A    between atoms: C3_4  and  C4_5 
REMARK    4  A    between atoms: C4_5  and  C5_6 
REMARK    5  A    between atoms: C5_6  and  N2_7 
REMARK    6  A    between atoms: C6_11  and  O1_12 
REMARK    7  A    between atoms: N3_14  and  C7_16 
REMARK    8  A    between atoms: C10_20  and  C11_21 
REMARK    9  A    between atoms: C11_21  and  N5_22 
REMARK   10  A    between atoms: C13_24  and  N6_25 
REMARK   11  A    between atoms: C14_30  and  N8_31 
REMARK   12  A    between atoms: N10_39  and  C17_40 
REMARK   13  A    between atoms: C17_40  and  C18_41 
REMARK   14  A    between atoms: C18_41  and  C19_42 
ROOT
HETATM    1  C1  UNL     1      33.644  -2.723  -0.709  1.00  0.00     0.229 C 
HETATM    2  N1  UNL     1      32.315  -2.859  -0.876  1.00  0.00    -0.429 NA
HETATM    3  C2  UNL     1      31.141  -2.980  -1.023  1.00  0.00     0.133 C 
ENDROOT
BRANCH   3   4
HETATM    4  C3  UNL     1      30.390  -1.615  -1.210  1.00  0.00     0.079 C 
BRANCH   4   5
HETATM    5  C4  UNL     1      29.588  -1.260  -0.026  1.00  0.00     0.034 C 
BRANCH   5   6
HETATM    6  C5  UNL     1      28.166  -0.906  -0.319  1.00  0.00     0.230 C 
BRANCH   6   7
HETATM    7  N2  UNL     1      27.378  -2.080  -0.667  1.00  0.00    -0.079 N 
ATOM      8  H23 UNL     1      27.943  -2.776  -1.153  1.00  0.00     0.274 HD
ATOM      9  H22 UNL     1      27.135  -2.623   0.161  1.00  0.00     0.274 HD
ATOM     10  H21 UNL     1      26.548  -1.833  -1.206  1.00  0.00     0.274 HD
ENDBRANCH   6   7
ENDBRANCH   5   6
ENDBRANCH   4   5
ENDBRANCH   3   4
BRANCH   3  11
HETATM   11  C6  UNL     1      30.202  -4.085  -1.014  1.00  0.00     0.179 C 
HETATM   12  N3  UNL     1      29.563  -4.862  -0.121  1.00  0.00    -0.320 N 
ATOM     13  H3  UNL     1      28.985  -5.558  -0.592  1.00  0.00     0.169 HD
BRANCH  11  14
HETATM   14  O1  UNL     1      29.862  -4.456  -2.292  1.00  0.00    -0.344 OA
ATOM     15  H1  UNL     1      29.244  -5.177  -2.286  1.00  0.00     0.219 HD
ENDBRANCH  11  14
BRANCH  12  16
HETATM   16  C7  UNL     1      29.463  -4.988   1.271  1.00  0.00     0.124 A 
HETATM   17  C8  UNL     1      29.473  -6.073   2.061  1.00  0.00     0.140 A 
HETATM   18  N4  UNL     1      29.327  -5.640   3.360  1.00  0.00    -0.346 N 
HETATM   19  C9  UNL     1      29.319  -6.551   4.514  1.00  0.00     0.157 C 
HETATM   20  C10 UNL     1      29.226  -4.341   3.411  1.00  0.00     0.104 A 
HETATM   21  N12 UNL     1      29.310  -3.924   2.124  1.00  0.00    -0.329 N 
ATOM     22  H12 UNL     1      29.264  -2.949   1.828  1.00  0.00     0.168 HD
BRANCH  20  23
HETATM   23  C11 UNL     1      29.022  -3.347   4.472  1.00  0.00     0.226 C 
BRANCH  23  24
HETATM   24  N5  UNL     1      28.963  -1.974   4.134  1.00  0.00    -0.274 N 
HETATM   25  C12 UNL     1      30.038  -1.148   3.957  1.00  0.00     0.128 A 
HETATM   26  C13 UNL     1      31.401  -1.300   4.167  1.00  0.00     0.145 A 
HETATM   27  C15 UNL     1      29.549   0.070   3.491  1.00  0.00     0.150 A 
HETATM   28  N7  UNL     1      32.187  -0.241   3.903  1.00  0.00    -0.175 N 
HETATM   29  C14 UNL     1      31.708   0.937   3.452  1.00  0.00     0.678 A 
ATOM     30  H7  UNL     1      33.192  -0.334   4.051  1.00  0.00     0.186 HD
HETATM   31  N9  UNL     1      30.394   1.111   3.240  1.00  0.00    -0.184 N 
ATOM     32  H9  UNL     1      30.035   2.003   2.899  1.00  0.00     0.184 HD
HETATM   33  C16 UNL     1      28.186  -0.030   3.399  1.00  0.00     0.292 A 
HETATM   34  O2  UNL     1      27.396   0.880   3.011  1.00  0.00    -0.264 OA
HETATM   35  N10 UNL     1      27.873  -1.280   3.799  1.00  0.00    -0.252 N 
BRANCH  26  36
HETATM   36  N6  UNL     1      31.913  -2.385   4.612  1.00  0.00    -0.383 N 
ATOM     37  H62 UNL     1      32.786  -2.737   4.218  1.00  0.00     0.157 HD
ATOM     38  H61 UNL     1      31.490  -2.922   5.368  1.00  0.00     0.157 HD
ENDBRANCH  26  36
BRANCH  29  39
HETATM   39  N8  UNL     1      32.504   1.913   3.216  1.00  0.00    -0.234 N 
ATOM     40  H82 UNL     1      33.495   1.715   3.078  1.00  0.00     0.174 HD
ATOM     41  H81 UNL     1      32.150   2.868   3.168  1.00  0.00     0.174 HD
ENDBRANCH  29  39
BRANCH  35  42
HETATM   42  C17 UNL     1      26.530  -1.747   3.776  1.00  0.00     0.161 C 
BRANCH  42  43
HETATM   43  C18 UNL     1      26.131  -2.704   2.706  1.00  0.00     0.121 C 
BRANCH  43  44
HETATM   44  C19 UNL     1      25.194  -3.768   2.964  1.00  0.00     0.232 C 
HETATM   45  N11 UNL     1      25.579  -4.849   3.816  1.00  0.00    -0.062 NA
HETATM   46  O3  UNL     1      24.055  -3.835   2.498  1.00  0.00    -0.277 OA
ENDBRANCH  43  44
ENDBRANCH  42  43
ENDBRANCH  35  42
ENDBRANCH  23  24
ENDBRANCH  20  23
ENDBRANCH  12  16
ENDBRANCH   3  11
TORSDOF 14
ENDMDL
MODEL 2
REMARK VINA RESULT: -6.567635815      2.251      6.112
REMARK  14 active torsions:
REMARK  status: ('A' for Active; 'I' for Inactive)
REMARK    1  A    between atoms: C2_3  and  C3_4 
REMARK    2  A    between atoms: C2_3  and  C6_11 
REMARK    3  A    between atoms: C3_4  and  C4_5 
REMARK    4  A    between atoms: C4_5  and  C5_6 
REMARK    5  A    between atoms: C5_6  and  N2_7 
REMARK    6  A    between atoms: C6_11  and  O1_12 
REMARK    7  A    between atoms: N3_14  and  C7_16 
REMARK    8  A    between atoms: C10_20  and  C11_21 
REMARK    9  A    between atoms: C11_21  and  N5_22 
REMARK   10  A    between atoms: C13_24  and  N6_25 
REMARK   11  A    between atoms: C14_30  and  N8_31 
REMARK   12  A    between atoms: N10_39  and  C17_40 
REMARK   13  A    between atoms: C17_40  and  C18_41 
REMARK   14  A    between atoms: C18_41  and  C19_42 
ROOT
HETATM    1  C1  UNL     1      31.173   0.375   7.085  1.00  0.00     0.229 C 
HETATM    2  N1  UNL     1      31.019   0.463   5.750  1.00  0.00    -0.429 NA
HETATM    3  C2  UNL     1      30.884   0.541   4.571  1.00  0.00     0.133 C 
ENDROOT
BRANCH   3   4
HETATM    4  C3  UNL     1      29.384   0.571   4.113  1.00  0.00     0.079 C 
BRANCH   4   5
HETATM    5  C4  UNL     1      28.900  -0.765   3.723  1.00  0.00     0.034 C 
BRANCH   5   6
HETATM    6  C5  UNL     1      28.023  -0.781   2.512  1.00  0.00     0.230 C 
BRANCH   6   7
HETATM    7  N2  UNL     1      28.774  -0.491   1.298  1.00  0.00    -0.079 N 
ATOM      8  H23 UNL     1      29.624   0.034   1.503  1.00  0.00     0.274 HD
ATOM      9  H22 UNL     1      29.197  -1.335   0.913  1.00  0.00     0.274 HD
ATOM     10  H21 UNL     1      28.200  -0.014   0.603  1.00  0.00     0.274 HD
ENDBRANCH   6   7
ENDBRANCH   5   6
ENDBRANCH   4   5
ENDBRANCH   3   4
BRANCH   3  11
HETATM   11  C6  UNL     1      31.772   0.556   3.424  1.00  0.00     0.179 C 
HETATM   12  N3  UNL     1      32.423  -0.319   2.637  1.00  0.00    -0.320 N 
ATOM     13  H3  UNL     1      32.971   0.167   1.928  1.00  0.00     0.169 HD
BRANCH  11  14
HETATM   14  O1  UNL     1      32.029   1.842   3.015  1.00  0.00    -0.344 OA
ATOM     15  H1  UNL     1      32.717   1.861   2.360  1.00  0.00     0.219 HD
ENDBRANCH  11  14
BRANCH  12  16
HETATM   16  C7  UNL     1      32.563  -1.707   2.513  1.00  0.00     0.124 A 
HETATM   17  C8  UNL     1      33.561  -2.529   2.873  1.00  0.00     0.140 A 
HETATM   18  N4  UNL     1      33.199  -3.806   2.507  1.00  0.00    -0.346 N 
HETATM   19  C9  UNL     1      34.038  -4.985   2.767  1.00  0.00     0.157 C 
HETATM   20  C10 UNL     1      32.026  -3.813   1.937  1.00  0.00     0.104 A 
HETATM   21  N12 UNL     1      31.621  -2.520   1.935  1.00  0.00    -0.329 N 
ATOM     22  H12 UNL     1      30.732  -2.194   1.554  1.00  0.00     0.168 HD
BRANCH  20  23
HETATM   23  C11 UNL     1      31.165  -4.833   1.326  1.00  0.00     0.226 C 
BRANCH  23  24
HETATM   24  N5  UNL     1      29.884  -4.466   0.850  1.00  0.00    -0.274 N 
HETATM   25  C12 UNL     1      28.740  -4.411   1.596  1.00  0.00     0.128 A 
HETATM   26  C13 UNL     1      28.428  -4.797   2.892  1.00  0.00     0.145 A 
HETATM   27  C15 UNL     1      27.746  -3.864   0.787  1.00  0.00     0.150 A 
HETATM   28  N7  UNL     1      27.161  -4.616   3.301  1.00  0.00    -0.175 N 
HETATM   29  C14 UNL     1      26.202  -4.085   2.514  1.00  0.00     0.678 A 
ATOM     30  H7  UNL     1      26.912  -4.892   4.251  1.00  0.00     0.186 HD
HETATM   31  N9  UNL     1      26.475  -3.704   1.256  1.00  0.00    -0.184 N 
ATOM     32  H9  UNL     1      25.748  -3.303   0.664  1.00  0.00     0.184 HD
HETATM   33  C16 UNL     1      28.298  -3.601  -0.438  1.00  0.00     0.292 A 
HETATM   34  O2  UNL     1      27.698  -3.099  -1.434  1.00  0.00    -0.264 OA
HETATM   35  N10 UNL     1      29.590  -3.981  -0.359  1.00  0.00    -0.252 N 
BRANCH  26  36
HETATM   36  N6  UNL     1      29.288  -5.323   3.680  1.00  0.00    -0.383 N 
ATOM     37  H62 UNL     1      29.373  -4.990   4.640  1.00  0.00     0.157 HD
ATOM     38  H61 UNL     1      29.900  -6.088   3.394  1.00  0.00     0.157 HD
ENDBRANCH  26  36
BRANCH  29  39
HETATM   39  N8  UNL     1      25.008  -3.934   2.956  1.00  0.00    -0.234 N 
ATOM     40  H82 UNL     1      24.239  -4.365   2.445  1.00  0.00     0.174 HD
ATOM     41  H81 UNL     1      24.837  -3.392   3.803  1.00  0.00     0.174 HD
ENDBRANCH  29  39
BRANCH  35  42
HETATM   42  C17 UNL     1      30.482  -3.795  -1.450  1.00  0.00     0.161 C 
BRANCH  42  43
HETATM   43  C18 UNL     1      30.816  -2.404  -1.865  1.00  0.00     0.121 C 
BRANCH  43  44
HETATM   44  C19 UNL     1      31.699  -1.579  -1.080  1.00  0.00     0.232 C 
HETATM   45  N11 UNL     1      31.180  -0.415  -0.433  1.00  0.00    -0.062 NA
HETATM   46  O3  UNL     1      32.901  -1.790  -0.913  1.00  0.00    -0.277 OA
ENDBRANCH  43  44
ENDBRANCH  42  43
ENDBRANCH  35  42
ENDBRANCH  23  24
ENDBRANCH  20  23
ENDBRANCH  12  16
ENDBRANCH   3  11
TORSDOF 14
ENDMDL
MODEL 3
REMARK VINA RESULT: -6.527050409      2.089      5.754
REMARK  14 active torsions:
REMARK  status: ('A' for Active; 'I' for Inactive)
REMARK    1  A    between atoms: C2_3  and  C3_4 
REMARK    2  A    between atoms: C2_3  and  C6_11 
REMARK    3  A    between atoms: C3_4  and  C4_5 
REMARK    4  A    between atoms: C4_5  and  C5_6 
REMARK    5  A    between atoms: C5_6  and  N2_7 
REMARK    6  A    between atoms: C6_11  and  O1_12 
REMARK    7  A    between atoms: N3_14  and  C7_16 
REMARK    8  A    between atoms: C10_20  and  C11_21 
REMARK    9  A    between atoms: C11_21  and  N5_22 
REMARK   10  A    between atoms: C13_24  and  N6_25 
REMARK   11  A    between atoms: C14_30  and  N8_31 
REMARK   12  A    between atoms: N10_39  and  C17_40 
REMARK   13  A    between atoms: C17_40  and  C18_41 
REMARK   14  A    between atoms: C18_41  and  C19_42 
ROOT
HETATM    1  C1  UNL     1      28.705  -7.715   6.289  1.00  0.00     0.229 C 
HETATM    2  N1  UNL     1      28.478  -6.851   5.282  1.00  0.00    -0.429 NA
HETATM    3  C2  UNL     1      28.277  -6.088   4.393  1.00  0.00     0.133 C 
ENDROOT
BRANCH   3   4
HETATM    4  C3  UNL     1      29.423  -6.056   3.322  1.00  0.00     0.079 C 
BRANCH   4   5
HETATM    5  C4  UNL     1      28.938  -6.429   1.982  1.00  0.00     0.034 C 
BRANCH   5   6
HETATM    6  C5  UNL     1      29.080  -5.360   0.947  1.00  0.00     0.230 C 
BRANCH   6   7
HETATM    7  N2  UNL     1      28.098  -5.505  -0.118  1.00  0.00    -0.079 N 
ATOM      8  H23 UNL     1      27.729  -6.455  -0.156  1.00  0.00     0.274 HD
ATOM      9  H22 UNL     1      27.236  -5.008   0.101  1.00  0.00     0.274 HD
ATOM     10  H21 UNL     1      28.474  -5.216  -1.021  1.00  0.00     0.274 HD
ENDBRANCH   6   7
ENDBRANCH   5   6
ENDBRANCH   4   5
ENDBRANCH   3   4
BRANCH   3  11
HETATM   11  C6  UNL     1      27.248  -5.116   4.072  1.00  0.00     0.179 C 
HETATM   12  N3  UNL     1      27.146  -3.803   3.802  1.00  0.00    -0.320 N 
ATOM     13  H3  UNL     1      26.174  -3.538   3.644  1.00  0.00     0.169 HD
BRANCH  11  14
HETATM   14  O1  UNL     1      26.008  -5.705   4.031  1.00  0.00    -0.344 OA
ATOM     15  H1  UNL     1      25.647  -5.803   4.904  1.00  0.00     0.219 HD
ENDBRANCH  11  14
BRANCH  12  16
HETATM   16  C7  UNL     1      27.993  -2.694   3.675  1.00  0.00     0.124 A 
HETATM   17  C8  UNL     1      27.905  -1.454   4.179  1.00  0.00     0.140 A 
HETATM   18  N4  UNL     1      28.997  -0.746   3.732  1.00  0.00    -0.346 N 
HETATM   19  C9  UNL     1      29.256   0.653   4.104  1.00  0.00     0.157 C 
HETATM   20  C10 UNL     1      29.757  -1.488   2.975  1.00  0.00     0.104 A 
HETATM   21  N12 UNL     1      29.147  -2.697   2.931  1.00  0.00    -0.329 N 
ATOM     22  H12 UNL     1      29.498  -3.503   2.415  1.00  0.00     0.168 HD
BRANCH  20  23
HETATM   23  C11 UNL     1      30.992  -1.283   2.209  1.00  0.00     0.226 C 
BRANCH  23  24
HETATM   24  N5  UNL     1      31.255  -2.101   1.084  1.00  0.00    -0.274 N 
HETATM   25  C12 UNL     1      31.902  -3.304   1.106  1.00  0.00     0.128 A 
HETATM   26  C13 UNL     1      32.587  -4.000   2.092  1.00  0.00     0.145 A 
HETATM   27  C15 UNL     1      31.817  -3.841  -0.177  1.00  0.00     0.150 A 
HETATM   28  N7  UNL     1      33.137  -5.177   1.746  1.00  0.00    -0.175 N 
HETATM   29  C14 UNL     1      33.051  -5.693   0.502  1.00  0.00     0.678 A 
ATOM     30  H7  UNL     1      33.644  -5.705   2.458  1.00  0.00     0.186 HD
HETATM   31  N9  UNL     1      32.396  -5.041  -0.471  1.00  0.00    -0.184 N 
ATOM     32  H9  UNL     1      32.332  -5.434  -1.410  1.00  0.00     0.184 HD
HETATM   33  C16 UNL     1      31.125  -2.955  -0.960  1.00  0.00     0.292 A 
HETATM   34  O2  UNL     1      30.850  -3.101  -2.187  1.00  0.00    -0.264 OA
HETATM   35  N10 UNL     1      30.806  -1.916  -0.160  1.00  0.00    -0.252 N 
BRANCH  26  36
HETATM   36  N6  UNL     1      32.719  -3.555   3.284  1.00  0.00    -0.383 N 
ATOM     37  H62 UNL     1      32.698  -2.551   3.460  1.00  0.00     0.157 HD
ATOM     38  H61 UNL     1      32.834  -4.170   4.090  1.00  0.00     0.157 HD
ENDBRANCH  26  36
BRANCH  29  39
HETATM   39  N8  UNL     1      33.595  -6.821   0.228  1.00  0.00    -0.234 N 
ATOM     40  H82 UNL     1      33.037  -7.532  -0.243  1.00  0.00     0.174 HD
ATOM     41  H81 UNL     1      34.567  -7.000   0.479  1.00  0.00     0.174 HD
ENDBRANCH  29  39
BRANCH  35  42
HETATM   42  C17 UNL     1      30.030  -0.827  -0.641  1.00  0.00     0.161 C 
BRANCH  42  43
HETATM   43  C18 UNL     1      28.574  -0.802  -0.328  1.00  0.00     0.121 C 
BRANCH  43  44
HETATM   44  C19 UNL     1      27.787  -2.009  -0.316  1.00  0.00     0.232 C 
HETATM   45  N11 UNL     1      27.585  -2.725  -1.537  1.00  0.00    -0.062 NA
HETATM   46  O3  UNL     1      27.254  -2.495   0.682  1.00  0.00    -0.277 OA
ENDBRANCH  43  44
ENDBRANCH  42  43
ENDBRANCH  35  42
ENDBRANCH  23  24
ENDBRANCH  20  23
ENDBRANCH  12  16
ENDBRANCH   3  11
TORSDOF 14
ENDMDL
MODEL 4
REMARK VINA RESULT: -6.496008556      1.886      6.203
REMARK  14 active torsions:
REMARK  status: ('A' for Active; 'I' for Inactive)
REMARK    1  A    between atoms: C2_3  and  C3_4 
REMARK    2  A    between atoms: C2_3  and  C6_11 
REMARK    3  A    between atoms: C3_4  and  C4_5 
REMARK    4  A    between atoms: C4_5  and  C5_6 
REMARK    5  A    between atoms: C5_6  and  N2_7 
REMARK    6  A    between atoms: C6_11  and  O1_12 
REMARK    7  A    between atoms: N3_14  and  C7_16 
REMARK    8  A    between atoms: C10_20  and  C11_21 
REMARK    9  A    between atoms: C11_21  and  N5_22 
REMARK   10  A    between atoms: C13_24  and  N6_25 
REMARK   11  A    between atoms: C14_30  and  N8_31 
REMARK   12  A    between atoms: N10_39  and  C17_40 
REMARK   13  A    between atoms: C17_40  and  C18_41 
REMARK   14  A    between atoms: C18_41  and  C19_42 
ROOT
HETATM    1  C1  UNL     1      27.709  -1.337   7.081  1.00  0.00     0.229 C 
HETATM    2  N1  UNL     1      27.746  -0.791   5.851  1.00  0.00    -0.429 NA
HETATM    3  C2  UNL     1      27.779  -0.308   4.765  1.00  0.00     0.133 C 
ENDROOT
BRANCH   3   4
HETATM    4  C3  UNL     1      27.006  -1.142   3.684  1.00  0.00     0.079 C 
BRANCH   4   5
HETATM    5  C4  UNL     1      27.670  -2.426   3.400  1.00  0.00     0.034 C 
BRANCH   5   6
HETATM    6  C5  UNL     1      26.786  -3.463   2.785  1.00  0.00     0.230 C 
BRANCH   6   7
HETATM    7  N2  UNL     1      26.493  -3.165   1.390  1.00  0.00    -0.079 N 
ATOM      8  H23 UNL     1      25.922  -2.325   1.301  1.00  0.00     0.274 HD
ATOM      9  H22 UNL     1      27.326  -2.844   0.897  1.00  0.00     0.274 HD
ATOM     10  H21 UNL     1      26.063  -3.959   0.915  1.00  0.00     0.274 HD
ENDBRANCH   6   7
ENDBRANCH   5   6
ENDBRANCH   4   5
ENDBRANCH   3   4
BRANCH   3  11
HETATM   11  C6  UNL     1      28.414   0.849   4.162  1.00  0.00     0.179 C 
HETATM   12  N3  UNL     1      29.571   1.165   3.554  1.00  0.00    -0.320 N 
ATOM     13  H3  UNL     1      29.589   2.152   3.297  1.00  0.00     0.169 HD
BRANCH  11  14
HETATM   14  O1  UNL     1      27.599   1.952   4.231  1.00  0.00    -0.344 OA
ATOM     15  H1  UNL     1      28.044   2.727   3.908  1.00  0.00     0.219 HD
ENDBRANCH  11  14
BRANCH  12  16
HETATM   16  C7  UNL     1      30.759   0.528   3.173  1.00  0.00     0.124 A 
HETATM   17  C8  UNL     1      32.036   0.770   3.504  1.00  0.00     0.140 A 
HETATM   18  N4  UNL     1      32.818  -0.145   2.836  1.00  0.00    -0.346 N 
HETATM   19  C9  UNL     1      34.281  -0.204   2.973  1.00  0.00     0.157 C 
HETATM   20  C10 UNL     1      32.086  -0.941   2.107  1.00  0.00     0.104 A 
HETATM   21  N12 UNL     1      30.809  -0.536   2.307  1.00  0.00    -0.329 N 
ATOM     22  H12 UNL     1      29.992  -0.965   1.872  1.00  0.00     0.168 HD
BRANCH  20  23
HETATM   23  C11 UNL     1      32.348  -2.048   1.180  1.00  0.00     0.226 C 
BRANCH  23  24
HETATM   24  N5  UNL     1      31.395  -3.087   1.052  1.00  0.00    -0.274 N 
HETATM   25  C12 UNL     1      31.118  -4.037   1.995  1.00  0.00     0.128 A 
HETATM   26  C13 UNL     1      31.706  -4.379   3.204  1.00  0.00     0.145 A 
HETATM   27  C15 UNL     1      30.024  -4.767   1.535  1.00  0.00     0.150 A 
HETATM   28  N7  UNL     1      31.173  -5.414   3.877  1.00  0.00    -0.175 N 
HETATM   29  C14 UNL     1      30.113  -6.117   3.428  1.00  0.00     0.678 A 
ATOM     30  H7  UNL     1      31.591  -5.680   4.770  1.00  0.00     0.186 HD
HETATM   31  N9  UNL     1      29.526  -5.809   2.261  1.00  0.00    -0.184 N 
ATOM     32  H9  UNL     1      28.725  -6.343   1.924  1.00  0.00     0.184 HD
HETATM   33  C16 UNL     1      29.657  -4.255   0.319  1.00  0.00     0.292 A 
HETATM   34  O2  UNL     1      28.701  -4.663  -0.404  1.00  0.00    -0.264 OA
HETATM   35  N10 UNL     1      30.512  -3.243   0.063  1.00  0.00    -0.252 N 
BRANCH  26  36
HETATM   36  N6  UNL     1      32.724  -3.763   3.675  1.00  0.00    -0.383 N 
ATOM     37  H62 UNL     1      33.243  -3.110   3.087  1.00  0.00     0.157 HD
ATOM     38  H61 UNL     1      33.043  -3.884   4.636  1.00  0.00     0.157 HD
ENDBRANCH  26  36
BRANCH  29  39
HETATM   39  N8  UNL     1      29.646  -7.096   4.112  1.00  0.00    -0.234 N 
ATOM     40  H82 UNL     1      29.377  -6.930   5.081  1.00  0.00     0.174 HD
ATOM     41  H81 UNL     1      29.547  -8.019   3.691  1.00  0.00     0.174 HD
ENDBRANCH  29  39
BRANCH  35  42
HETATM   42  C17 UNL     1      30.382  -2.446  -1.107  1.00  0.00     0.161 C 
BRANCH  42  43
HETATM   43  C18 UNL     1      29.734  -1.111  -0.988  1.00  0.00     0.121 C 
BRANCH  43  44
HETATM   44  C19 UNL     1      28.410  -0.966  -0.438  1.00  0.00     0.232 C 
HETATM   45  N11 UNL     1      27.293  -1.501  -1.152  1.00  0.00    -0.062 NA
HETATM   46  O3  UNL     1      28.144  -0.402   0.624  1.00  0.00    -0.277 OA
ENDBRANCH  43  44
ENDBRANCH  42  43
ENDBRANCH  35  42
ENDBRANCH  23  24
ENDBRANCH  20  23
ENDBRANCH  12  16
ENDBRANCH   3  11
TORSDOF 14
ENDMDL
MODEL 5
REMARK VINA RESULT: -6.492705525      0.591      1.968
REMARK  14 active torsions:
REMARK  status: ('A' for Active; 'I' for Inactive)
REMARK    1  A    between atoms: C2_3  and  C3_4 
REMARK    2  A    between atoms: C2_3  and  C6_11 
REMARK    3  A    between atoms: C3_4  and  C4_5 
REMARK    4  A    between atoms: C4_5  and  C5_6 
REMARK    5  A    between atoms: C5_6  and  N2_7 
REMARK    6  A    between atoms: C6_11  and  O1_12 
REMARK    7  A    between atoms: N3_14  and  C7_16 
REMARK    8  A    between atoms: C10_20  and  C11_21 
REMARK    9  A    between atoms: C11_21  and  N5_22 
REMARK   10  A    between atoms: C13_24  and  N6_25 
REMARK   11  A    between atoms: C14_30  and  N8_31 
REMARK   12  A    between atoms: N10_39  and  C17_40 
REMARK   13  A    between atoms: C17_40  and  C18_41 
REMARK   14  A    between atoms: C18_41  and  C19_42 
ROOT
HETATM    1  C1  UNL     1      27.987  -0.800  -0.507  1.00  0.00     0.229 C 
HETATM    2  N1  UNL     1      28.919  -1.743  -0.741  1.00  0.00    -0.429 NA
HETATM    3  C2  UNL     1      29.742  -2.576  -0.948  1.00  0.00     0.133 C 
ENDROOT
BRANCH   3   4
HETATM    4  C3  UNL     1      31.080  -2.003  -1.535  1.00  0.00     0.079 C 
BRANCH   4   5
HETATM    5  C4  UNL     1      32.223  -2.242  -0.637  1.00  0.00     0.034 C 
BRANCH   5   6
HETATM    6  C5  UNL     1      33.313  -3.081  -1.224  1.00  0.00     0.230 C 
BRANCH   6   7
HETATM    7  N2  UNL     1      33.136  -4.492  -0.911  1.00  0.00    -0.079 N 
ATOM      8  H23 UNL     1      32.500  -4.942  -1.569  1.00  0.00     0.274 HD
ATOM      9  H22 UNL     1      33.980  -5.026  -1.114  1.00  0.00     0.274 HD
ATOM     10  H21 UNL     1      32.832  -4.631   0.053  1.00  0.00     0.274 HD
ENDBRANCH   6   7
ENDBRANCH   5   6
ENDBRANCH   4   5
ENDBRANCH   3   4
BRANCH   3  11
HETATM   11  C6  UNL     1      29.803  -4.022  -0.849  1.00  0.00     0.179 C 
HETATM   12  N3  UNL     1      29.730  -4.975   0.096  1.00  0.00    -0.320 N 
ATOM     13  H3  UNL     1      29.848  -5.903  -0.312  1.00  0.00     0.169 HD
BRANCH  11  14
HETATM   14  O1  UNL     1      29.994  -4.594  -2.083  1.00  0.00    -0.344 OA
ATOM     15  H1  UNL     1      29.261  -4.417  -2.660  1.00  0.00     0.219 HD
ENDBRANCH  11  14
BRANCH  12  16
HETATM   16  C7  UNL     1      29.537  -5.060   1.481  1.00  0.00     0.124 A 
HETATM   17  C8  UNL     1      29.394  -6.121   2.290  1.00  0.00     0.140 A 
HETATM   18  N4  UNL     1      29.217  -5.646   3.569  1.00  0.00    -0.346 N 
HETATM   19  C9  UNL     1      29.052  -6.526   4.737  1.00  0.00     0.157 C 
HETATM   20  C10 UNL     1      29.242  -4.343   3.592  1.00  0.00     0.104 A 
HETATM   21  N12 UNL     1      29.441  -3.966   2.306  1.00  0.00    -0.329 N 
ATOM     22  H12 UNL     1      29.510  -2.998   1.991  1.00  0.00     0.168 HD
BRANCH  20  23
HETATM   23  C11 UNL     1      29.077  -3.310   4.621  1.00  0.00     0.226 C 
BRANCH  23  24
HETATM   24  N5  UNL     1      29.004  -1.950   4.235  1.00  0.00    -0.274 N 
HETATM   25  C12 UNL     1      30.069  -1.115   4.047  1.00  0.00     0.128 A 
HETATM   26  C13 UNL     1      31.430  -1.238   4.287  1.00  0.00     0.145 A 
HETATM   27  C15 UNL     1      29.571   0.079   3.531  1.00  0.00     0.150 A 
HETATM   28  N7  UNL     1      32.205  -0.178   3.999  1.00  0.00    -0.175 N 
HETATM   29  C14 UNL     1      31.717   0.976   3.498  1.00  0.00     0.678 A 
ATOM     30  H7  UNL     1      33.209  -0.250   4.167  1.00  0.00     0.186 HD
HETATM   31  N9  UNL     1      30.405   1.123   3.258  1.00  0.00    -0.184 N 
ATOM     32  H9  UNL     1      30.040   1.997   2.879  1.00  0.00     0.184 HD
HETATM   33  C16 UNL     1      28.211  -0.045   3.418  1.00  0.00     0.292 A 
HETATM   34  O2  UNL     1      27.415   0.839   2.986  1.00  0.00    -0.264 OA
HETATM   35  N10 UNL     1      27.910  -1.285   3.857  1.00  0.00    -0.252 N 
BRANCH  26  36
HETATM   36  N6  UNL     1      31.951  -2.299   4.777  1.00  0.00    -0.383 N 
ATOM     37  H62 UNL     1      32.603  -2.235   5.559  1.00  0.00     0.157 HD
ATOM     38  H61 UNL     1      31.730  -3.232   4.427  1.00  0.00     0.157 HD
ENDBRANCH  26  36
BRANCH  29  39
HETATM   39  N8  UNL     1      32.503   1.956   3.242  1.00  0.00    -0.234 N 
ATOM     40  H82 UNL     1      33.004   2.397   4.013  1.00  0.00     0.174 HD
ATOM     41  H81 UNL     1      32.622   2.285   2.284  1.00  0.00     0.174 HD
ENDBRANCH  29  39
BRANCH  35  42
HETATM   42  C17 UNL     1      26.575  -1.773   3.827  1.00  0.00     0.161 C 
BRANCH  42  43
HETATM   43  C18 UNL     1      26.187  -2.712   2.738  1.00  0.00     0.121 C 
BRANCH  43  44
HETATM   44  C19 UNL     1      25.235  -3.771   2.963  1.00  0.00     0.232 C 
HETATM   45  N11 UNL     1      25.599  -4.874   3.796  1.00  0.00    -0.062 NA
HETATM   46  O3  UNL     1      24.101  -3.815   2.485  1.00  0.00    -0.277 OA
ENDBRANCH  43  44
ENDBRANCH  42  43
ENDBRANCH  35  42
ENDBRANCH  23  24
ENDBRANCH  20  23
ENDBRANCH  12  16
ENDBRANCH   3  11
TORSDOF 14
ENDMDL
