MODEL 1
REMARK VINA RESULT: -6.853906970      0.000      0.000
REMARK  0 active torsions:
REMARK  status: ('A' for Active; 'I' for Inactive)
ROOT
HETATM    1  C1  UNL     1      16.981 -52.145 -38.888  1.00  0.00     0.012 C 
HETATM    2  C2  UNL     1      16.160 -52.101 -40.129  1.00  0.00     0.012 C 
HETATM    3  C3  UNL     1      17.166 -51.951 -41.277  1.00  0.00     0.007 C 
HETATM    4  C4  UNL     1      16.644 -51.112 -42.395  1.00  0.00     0.000 C 
HETATM    5  C5  UNL     1      15.399 -51.710 -43.029  1.00  0.00     0.000 C 
HETATM    6  C6  UNL     1      14.281 -51.529 -42.080  1.00  0.00     0.002 C 
HETATM    7  C7  UNL     1      13.984 -52.612 -41.136  1.00  0.00     0.034 C 
HETATM    8  C8  UNL     1      15.194 -53.187 -40.372  1.00  0.00     0.060 C 
HETATM    9  N1  UNL     1      15.756 -54.140 -41.293  1.00  0.00    -0.352 N 
ATOM     10  H1  UNL     1      15.630 -53.852 -42.263  1.00  0.00     0.163 HD
HETATM   11  C9  UNL     1      16.367 -55.242 -41.206  1.00  0.00     0.191 C 
HETATM   12  N2  UNL     1      16.727 -55.810 -42.464  1.00  0.00    -0.063 NA
HETATM   13  N3  UNL     1      16.709 -55.922 -40.035  1.00  0.00    -0.305 N 
ATOM     14  H3  UNL     1      17.389 -56.676 -40.139  1.00  0.00     0.171 HD
HETATM   15  C10 UNL     1      16.270 -55.715 -38.828  1.00  0.00     0.193 C 
HETATM   16  N4  UNL     1      16.802 -56.574 -37.813  1.00  0.00    -0.063 NA
HETATM   17  N5  UNL     1      15.329 -54.739 -38.425  1.00  0.00    -0.349 N 
HETATM   18  C11 UNL     1      15.135 -54.703 -36.990  1.00  0.00     0.153 C 
HETATM   19  C12 UNL     1      14.561 -53.822 -39.169  1.00  0.00     0.053 C 
HETATM   20  C13 UNL     1      13.389 -54.650 -39.747  1.00  0.00     0.041 C 
HETATM   21  C14 UNL     1      13.901 -52.742 -38.347  1.00  0.00     0.041 C 
ENDROOT
TORSDOF 0
ENDMDL
MODEL 2
REMARK VINA RESULT: -6.826579936      1.962      3.478
REMARK  0 active torsions:
REMARK  status: ('A' for Active; 'I' for Inactive)
ROOT
HETATM    1  C1  UNL     1      16.075 -54.296 -41.810  1.00  0.00     0.012 C 
HETATM    2  C2  UNL     1      16.449 -52.861 -41.673  1.00  0.00     0.012 C 
HETATM    3  C3  UNL     1      15.912 -52.178 -42.937  1.00  0.00     0.007 C 
HETATM    4  C4  UNL     1      16.791 -51.071 -43.412  1.00  0.00     0.000 C 
HETATM    5  C5  UNL     1      16.924 -49.960 -42.383  1.00  0.00     0.000 C 
HETATM    6  C6  UNL     1      17.780 -50.464 -41.288  1.00  0.00     0.002 C 
HETATM    7  C7  UNL     1      17.135 -51.087 -40.128  1.00  0.00     0.034 C 
HETATM    8  C8  UNL     1      16.061 -52.147 -40.445  1.00  0.00     0.060 C 
HETATM    9  N1  UNL     1      14.875 -51.368 -40.690  1.00  0.00    -0.352 N 
ATOM     10  H1  UNL     1      15.094 -50.465 -41.110  1.00  0.00     0.163 HD
HETATM   11  C9  UNL     1      13.632 -51.519 -40.519  1.00  0.00     0.191 C 
HETATM   12  N2  UNL     1      12.847 -50.407 -40.946  1.00  0.00    -0.063 NA
HETATM   13  N3  UNL     1      12.989 -52.632 -39.975  1.00  0.00    -0.305 N 
ATOM     14  H3  UNL     1      11.979 -52.677 -40.116  1.00  0.00     0.171 HD
HETATM   15  C10 UNL     1      13.516 -53.619 -39.311  1.00  0.00     0.193 C 
HETATM   16  N4  UNL     1      12.604 -54.632 -38.870  1.00  0.00    -0.063 NA
HETATM   17  N5  UNL     1      14.881 -53.787 -38.984  1.00  0.00    -0.349 N 
HETATM   18  C11 UNL     1      15.151 -55.050 -38.328  1.00  0.00     0.153 C 
HETATM   19  C12 UNL     1      15.996 -52.949 -39.179  1.00  0.00     0.053 C 
HETATM   20  C13 UNL     1      15.904 -51.886 -38.058  1.00  0.00     0.041 C 
HETATM   21  C14 UNL     1      17.332 -53.618 -38.965  1.00  0.00     0.041 C 
ENDROOT
TORSDOF 0
ENDMDL
MODEL 3
REMARK VINA RESULT: -6.656415591      1.411      1.867
REMARK  0 active torsions:
REMARK  status: ('A' for Active; 'I' for Inactive)
ROOT
HETATM    1  C1  UNL     1      17.348 -51.929 -39.498  1.00  0.00     0.012 C 
HETATM    2  C2  UNL     1      16.562 -51.322 -40.607  1.00  0.00     0.012 C 
HETATM    3  C3  UNL     1      17.604 -50.748 -41.577  1.00  0.00     0.007 C 
HETATM    4  C4  UNL     1      17.148 -49.490 -42.235  1.00  0.00     0.000 C 
HETATM    5  C5  UNL     1      15.896 -49.700 -43.071  1.00  0.00     0.000 C 
HETATM    6  C6  UNL     1      14.761 -49.884 -42.141  1.00  0.00     0.002 C 
HETATM    7  C7  UNL     1      14.395 -51.248 -41.749  1.00  0.00     0.034 C 
HETATM    8  C8  UNL     1      15.558 -52.152 -41.295  1.00  0.00     0.060 C 
HETATM    9  N1  UNL     1      16.104 -52.651 -42.530  1.00  0.00    -0.352 N 
ATOM     10  H1  UNL     1      16.016 -51.972 -43.286  1.00  0.00     0.163 HD
HETATM   11  C9  UNL     1      16.665 -53.715 -42.917  1.00  0.00     0.191 C 
HETATM   12  N2  UNL     1      17.034 -53.711 -44.295  1.00  0.00    -0.063 NA
HETATM   13  N3  UNL     1      16.947 -54.844 -42.145  1.00  0.00    -0.305 N 
ATOM     14  H3  UNL     1      17.597 -55.514 -42.555  1.00  0.00     0.171 HD
HETATM   15  C10 UNL     1      16.485 -55.147 -40.967  1.00  0.00     0.193 C 
HETATM   16  N4  UNL     1      16.953 -56.381 -40.411  1.00  0.00    -0.063 NA
HETATM   17  N5  UNL     1      15.577 -54.389 -40.193  1.00  0.00    -0.349 N 
HETATM   18  C11 UNL     1      15.347 -54.956 -38.879  1.00  0.00     0.153 C 
HETATM   19  C12 UNL     1      14.868 -53.206 -40.480  1.00  0.00     0.053 C 
HETATM   20  C13 UNL     1      13.677 -53.651 -41.362  1.00  0.00     0.041 C 
HETATM   21  C14 UNL     1      14.232 -52.546 -39.281  1.00  0.00     0.041 C 
ENDROOT
TORSDOF 0
ENDMDL
MODEL 4
REMARK VINA RESULT: -6.404911012      1.365      4.482
REMARK  0 active torsions:
REMARK  status: ('A' for Active; 'I' for Inactive)
ROOT
HETATM    1  C1  UNL     1      13.291 -54.385 -40.077  1.00  0.00     0.012 C 
HETATM    2  C2  UNL     1      13.794 -54.093 -38.706  1.00  0.00     0.012 C 
HETATM    3  C3  UNL     1      13.225 -55.207 -37.818  1.00  0.00     0.007 C 
HETATM    4  C4  UNL     1      12.890 -54.734 -36.444  1.00  0.00     0.000 C 
HETATM    5  C5  UNL     1      14.109 -54.213 -35.701  1.00  0.00     0.000 C 
HETATM    6  C6  UNL     1      14.474 -52.910 -36.297  1.00  0.00     0.002 C 
HETATM    7  C7  UNL     1      15.466 -52.890 -37.377  1.00  0.00     0.034 C 
HETATM    8  C8  UNL     1      15.243 -53.909 -38.512  1.00  0.00     0.060 C 
HETATM    9  N1  UNL     1      15.821 -55.123 -37.999  1.00  0.00    -0.352 N 
ATOM     10  H1  UNL     1      15.726 -55.191 -36.986  1.00  0.00     0.163 HD
HETATM   11  C9  UNL     1      16.418 -56.126 -38.484  1.00  0.00     0.191 C 
HETATM   12  N2  UNL     1      16.807 -57.097 -37.514  1.00  0.00    -0.063 NA
HETATM   13  N3  UNL     1      16.712 -56.359 -39.829  1.00  0.00    -0.305 N 
ATOM     14  H3  UNL     1      16.993 -57.311 -40.066  1.00  0.00     0.171 HD
HETATM   15  C10 UNL     1      16.672 -55.514 -40.818  1.00  0.00     0.193 C 
HETATM   16  N4  UNL     1      17.029 -56.038 -42.102  1.00  0.00    -0.063 NA
HETATM   17  N5  UNL     1      16.317 -54.147 -40.750  1.00  0.00    -0.349 N 
HETATM   18  C11 UNL     1      16.272 -53.512 -42.051  1.00  0.00     0.153 C 
HETATM   19  C12 UNL     1      16.015 -53.316 -39.653  1.00  0.00     0.053 C 
HETATM   20  C13 UNL     1      17.385 -52.947 -39.035  1.00  0.00     0.041 C 
HETATM   21  C14 UNL     1      15.390 -51.992 -40.020  1.00  0.00     0.041 C 
ENDROOT
TORSDOF 0
ENDMDL
MODEL 5
REMARK VINA RESULT: -6.398553701      2.112      3.677
REMARK  0 active torsions:
REMARK  status: ('A' for Active; 'I' for Inactive)
ROOT
HETATM    1  C1  UNL     1      14.692 -54.391 -41.331  1.00  0.00     0.012 C 
HETATM    2  C2  UNL     1      15.467 -53.129 -41.178  1.00  0.00     0.012 C 
HETATM    3  C3  UNL     1      14.851 -52.148 -42.185  1.00  0.00     0.007 C 
HETATM    4  C4  UNL     1      15.861 -51.228 -42.784  1.00  0.00     0.000 C 
HETATM    5  C5  UNL     1      16.537 -50.356 -41.739  1.00  0.00     0.000 C 
HETATM    6  C6  UNL     1      17.458 -51.216 -40.966  1.00  0.00     0.002 C 
HETATM    7  C7  UNL     1      16.964 -51.835 -39.731  1.00  0.00     0.034 C 
HETATM    8  C8  UNL     1      15.597 -52.541 -39.834  1.00  0.00     0.060 C 
HETATM    9  N1  UNL     1      14.648 -51.469 -39.680  1.00  0.00    -0.352 N 
ATOM     10  H1  UNL     1      15.000 -50.592 -40.063  1.00  0.00     0.163 HD
HETATM   11  C9  UNL     1      13.491 -51.338 -39.190  1.00  0.00     0.191 C 
HETATM   12  N2  UNL     1      12.963 -50.017 -39.289  1.00  0.00    -0.063 NA
HETATM   13  N3  UNL     1      12.716 -52.332 -38.589  1.00  0.00    -0.305 N 
ATOM     14  H3  UNL     1      11.730 -52.109 -38.453  1.00  0.00     0.171 HD
HETATM   15  C10 UNL     1      13.095 -53.509 -38.181  1.00  0.00     0.193 C 
HETATM   16  N4  UNL     1      12.073 -54.325 -37.597  1.00  0.00    -0.063 NA
HETATM   17  N5  UNL     1      14.398 -54.052 -38.254  1.00  0.00    -0.349 N 
HETATM   18  C11 UNL     1      14.460 -55.429 -37.807  1.00  0.00     0.153 C 
HETATM   19  C12 UNL     1      15.620 -53.489 -38.672  1.00  0.00     0.053 C 
HETATM   20  C13 UNL     1      16.095 -52.623 -37.481  1.00  0.00     0.041 C 
HETATM   21  C14 UNL     1      16.731 -54.488 -38.888  1.00  0.00     0.041 C 
ENDROOT
TORSDOF 0
ENDMDL
