MODEL 1
REMARK VINA RESULT: -4.260962197      0.000      0.000
REMARK  2 active torsions:
REMARK  status: ('A' for Active; 'I' for Inactive)
REMARK       I    between atoms: C1_2  and  N3_8 
REMARK    1  A    between atoms: N2_3  and  C2_5 
REMARK    2  A    between atoms: N3_8  and  C5_10 
ROOT
HETATM    1  N1  UNL     1     -21.426  39.320  92.413  1.00  0.00    -0.064 NA
HETATM    2  C1  UNL     1     -21.531  40.715  92.658  1.00  0.00     0.184 C 
HETATM    3  N2  UNL     1     -21.959  41.450  91.674  1.00  0.00    -0.360 N 
ATOM      4  H2  UNL     1     -22.045  42.457  91.816  1.00  0.00     0.162 HD
HETATM    5  N3  UNL     1     -21.189  41.290  93.904  1.00  0.00    -0.360 N 
ATOM      6  H3  UNL     1     -21.289  42.295  94.050  1.00  0.00     0.162 HD
ENDROOT
BRANCH   3   7
HETATM    7  C2  UNL     1     -22.312  40.907  90.405  1.00  0.00     0.084 A 
HETATM    8  C3  UNL     1     -21.486  41.216  89.212  1.00  0.00     0.027 A 
HETATM    9  C4  UNL     1     -22.866  41.803  89.315  1.00  0.00     0.027 A 
ENDBRANCH   3   7
BRANCH   5  10
HETATM   10  C5  UNL     1     -20.699  40.451  94.966  1.00  0.00     0.084 C 
HETATM   11  C6  UNL     1     -21.655  40.021  96.005  1.00  0.00     0.025 C 
HETATM   12  C7  UNL     1     -21.174  41.127  96.921  1.00  0.00     0.004 C 
HETATM   13  C8  UNL     1     -19.991  41.321  96.003  1.00  0.00     0.025 C 
ENDBRANCH   5  10
TORSDOF 2
ENDMDL
MODEL 2
REMARK VINA RESULT: -4.231277810      9.543     10.676
REMARK  2 active torsions:
REMARK  status: ('A' for Active; 'I' for Inactive)
REMARK       I    between atoms: C1_2  and  N3_8 
REMARK    1  A    between atoms: N2_3  and  C2_5 
REMARK    2  A    between atoms: N3_8  and  C5_10 
ROOT
HETATM    1  N1  UNL     1     -12.286  37.348  98.411  1.00  0.00    -0.064 NA
HETATM    2  C1  UNL     1     -13.418  37.562  97.579  1.00  0.00     0.184 C 
HETATM    3  N2  UNL     1     -13.834  38.789  97.463  1.00  0.00    -0.360 N 
ATOM      4  H2  UNL     1     -14.645  38.977  96.873  1.00  0.00     0.162 HD
HETATM    5  N3  UNL     1     -14.070  36.503  96.905  1.00  0.00    -0.360 N 
ATOM      6  H3  UNL     1     -14.872  36.694  96.304  1.00  0.00     0.162 HD
ENDROOT
BRANCH   3   7
HETATM    7  C2  UNL     1     -13.204  39.881  98.127  1.00  0.00     0.084 A 
HETATM    8  C3  UNL     1     -13.874  40.533  99.279  1.00  0.00     0.027 A 
HETATM    9  C4  UNL     1     -13.756  41.286  97.984  1.00  0.00     0.027 A 
ENDBRANCH   3   7
BRANCH   5  10
HETATM   10  C5  UNL     1     -13.596  35.154  97.071  1.00  0.00     0.084 C 
HETATM   11  C6  UNL     1     -12.716  34.597  96.025  1.00  0.00     0.025 C 
HETATM   12  C7  UNL     1     -13.897  33.895  95.389  1.00  0.00     0.004 C 
HETATM   13  C8  UNL     1     -14.693  34.184  96.640  1.00  0.00     0.025 C 
ENDBRANCH   5  10
TORSDOF 2
ENDMDL
MODEL 3
REMARK VINA RESULT: -4.121737054      9.424     10.142
REMARK  2 active torsions:
REMARK  status: ('A' for Active; 'I' for Inactive)
REMARK       I    between atoms: C1_2  and  N3_8 
REMARK    1  A    between atoms: N2_3  and  C2_5 
REMARK    2  A    between atoms: N3_8  and  C5_10 
ROOT
HETATM    1  N1  UNL     1     -12.409  36.921  98.287  1.00  0.00    -0.064 NA
HETATM    2  C1  UNL     1     -13.454  37.339  97.420  1.00  0.00     0.184 C 
HETATM    3  N2  UNL     1     -14.092  36.402  96.781  1.00  0.00    -0.360 N 
ATOM      4  H2  UNL     1     -14.849  36.668  96.151  1.00  0.00     0.162 HD
HETATM    5  N3  UNL     1     -13.795  38.701  97.251  1.00  0.00    -0.360 N 
ATOM      6  H3  UNL     1     -14.561  38.965  96.630  1.00  0.00     0.162 HD
ENDROOT
BRANCH   3   7
HETATM    7  C2  UNL     1     -13.778  35.020  96.926  1.00  0.00     0.084 A 
HETATM    8  C3  UNL     1     -13.573  34.178  95.722  1.00  0.00     0.027 A 
HETATM    9  C4  UNL     1     -14.798  33.960  96.563  1.00  0.00     0.027 A 
ENDBRANCH   3   7
BRANCH   5  10
HETATM   10  C5  UNL     1     -13.056  39.714  97.958  1.00  0.00     0.084 C 
HETATM   11  C6  UNL     1     -13.690  40.337  99.135  1.00  0.00     0.025 C 
HETATM   12  C7  UNL     1     -14.121  41.519  98.291  1.00  0.00     0.004 C 
HETATM   13  C8  UNL     1     -13.183  41.038  97.209  1.00  0.00     0.025 C 
ENDBRANCH   5  10
TORSDOF 2
ENDMDL
MODEL 4
REMARK VINA RESULT: -4.094940448      3.729      5.047
REMARK  2 active torsions:
REMARK  status: ('A' for Active; 'I' for Inactive)
REMARK       I    between atoms: C1_2  and  N3_8 
REMARK    1  A    between atoms: N2_3  and  C2_5 
REMARK    2  A    between atoms: N3_8  and  C5_10 
ROOT
HETATM    1  N1  UNL     1     -23.795  42.906  93.411  1.00  0.00    -0.064 NA
HETATM    2  C1  UNL     1     -24.111  41.739  94.156  1.00  0.00     0.184 C 
HETATM    3  N2  UNL     1     -25.226  41.759  94.827  1.00  0.00    -0.360 N 
ATOM      4  H2  UNL     1     -25.483  40.936  95.372  1.00  0.00     0.162 HD
HETATM    5  N3  UNL     1     -23.265  40.605  94.178  1.00  0.00    -0.360 N 
ATOM      6  H3  UNL     1     -23.530  39.778  94.714  1.00  0.00     0.162 HD
ENDROOT
BRANCH   3   7
HETATM    7  C2  UNL     1     -26.103  42.882  94.829  1.00  0.00     0.084 A 
HETATM    8  C3  UNL     1     -26.332  43.639  96.084  1.00  0.00     0.027 A 
HETATM    9  C4  UNL     1     -27.447  42.803  95.524  1.00  0.00     0.027 A 
ENDBRANCH   3   7
BRANCH   5  10
HETATM   10  C5  UNL     1     -22.029  40.625  93.441  1.00  0.00     0.084 C 
HETATM   11  C6  UNL     1     -21.989  39.930  92.139  1.00  0.00     0.025 C 
HETATM   12  C7  UNL     1     -21.355  38.720  92.792  1.00  0.00     0.004 C 
HETATM   13  C8  UNL     1     -21.091  39.565  94.015  1.00  0.00     0.025 C 
ENDBRANCH   5  10
TORSDOF 2
ENDMDL
MODEL 5
REMARK VINA RESULT: -4.085907986      7.057      8.060
REMARK  2 active torsions:
REMARK  status: ('A' for Active; 'I' for Inactive)
REMARK       I    between atoms: C1_2  and  N3_8 
REMARK    1  A    between atoms: N2_3  and  C2_5 
REMARK    2  A    between atoms: N3_8  and  C5_10 
ROOT
HETATM    1  N1  UNL     1     -14.691  38.514  95.631  1.00  0.00    -0.064 NA
HETATM    2  C1  UNL     1     -15.503  37.432  95.200  1.00  0.00     0.184 C 
HETATM    3  N2  UNL     1     -16.431  37.708  94.331  1.00  0.00    -0.360 N 
ATOM      4  H2  UNL     1     -17.032  36.953  94.000  1.00  0.00     0.162 HD
HETATM    5  N3  UNL     1     -15.324  36.114  95.683  1.00  0.00    -0.360 N 
ATOM      6  H3  UNL     1     -15.917  35.357  95.341  1.00  0.00     0.162 HD
ENDROOT
BRANCH   3   7
HETATM    7  C2  UNL     1     -16.642  39.022  93.822  1.00  0.00     0.084 A 
HETATM    8  C3  UNL     1     -17.919  39.726  94.097  1.00  0.00     0.027 A 
HETATM    9  C4  UNL     1     -17.631  39.258  92.699  1.00  0.00     0.027 A 
ENDBRANCH   3   7
BRANCH   5  10
HETATM   10  C5  UNL     1     -14.301  35.847  96.659  1.00  0.00     0.084 C 
HETATM   11  C6  UNL     1     -12.894  35.872  96.212  1.00  0.00     0.025 C 
HETATM   12  C7  UNL     1     -12.895  34.362  96.087  1.00  0.00     0.004 C 
HETATM   13  C8  UNL     1     -14.190  34.337  96.864  1.00  0.00     0.025 C 
ENDBRANCH   5  10
TORSDOF 2
ENDMDL
