MODEL 1
REMARK VINA RESULT: -4.989030844      0.000      0.000
REMARK  4 active torsions:
REMARK  status: ('A' for Active; 'I' for Inactive)
REMARK    1  A    between atoms: C5_7  and  C6_8 
REMARK    2  A    between atoms: C6_8  and  C8_10 
REMARK    3  A    between atoms: C8_10  and  N2_11 
REMARK    4  A    between atoms: C8_10  and  N3_15 
ROOT
HETATM    1  C6  UNL     1     -21.797  39.842  92.867  1.00  0.00    -0.014 C 
HETATM    2  C7  UNL     1     -21.529  38.354  92.917  1.00  0.00     0.048 C 
ENDROOT
BRANCH   1   3
HETATM    3  C5  UNL     1     -21.821  40.510  94.163  1.00  0.00    -0.000 A 
HETATM    4  C3  UNL     1     -22.831  41.433  94.476  1.00  0.00     0.016 A 
HETATM    5  N1  UNL     1     -22.562  41.848  95.719  1.00  0.00    -0.362 N 
HETATM    6  C4  UNL     1     -23.987  41.905  93.702  1.00  0.00     0.069 C 
HETATM    7  C2  UNL     1     -21.462  41.249  96.191  1.00  0.00     0.012 A 
ATOM      8  H1  UNL     1     -23.118  42.529  96.236  1.00  0.00     0.165 HD
HETATM    9  C1  UNL     1     -20.832  41.445  97.546  1.00  0.00     0.068 C 
HETATM   10  C12 UNL     1     -20.948  40.385  95.244  1.00  0.00    -0.027 A 
HETATM   11  C13 UNL     1     -19.746  39.534  95.362  1.00  0.00     0.051 C 
ENDBRANCH   1   3
BRANCH   1  12
HETATM   12  C8  UNL     1     -21.061  40.513  91.757  1.00  0.00     0.413 C 
BRANCH  12  13
HETATM   13  N2  UNL     1     -20.155  41.549  92.380  1.00  0.00    -0.046 N 
ATOM     14  H23 UNL     1     -19.738  41.239  93.257  1.00  0.00     0.277 HD
ATOM     15  H22 UNL     1     -19.287  41.685  91.861  1.00  0.00     0.277 HD
ATOM     16  H21 UNL     1     -20.699  42.407  92.479  1.00  0.00     0.277 HD
ENDBRANCH  12  13
BRANCH  12  17
HETATM   17  N3  UNL     1     -21.683  41.192  90.717  1.00  0.00    -0.046 N 
HETATM   18  C9  UNL     1     -20.920  40.926  89.468  1.00  0.00     0.274 C 
HETATM   19  C10 UNL     1     -21.551  42.669  90.816  1.00  0.00     0.274 C 
HETATM   20  C11 UNL     1     -23.032  40.879  90.343  1.00  0.00     0.274 C 
ENDBRANCH  12  17
ENDBRANCH   1  12
TORSDOF 4
ENDMDL
MODEL 2
REMARK VINA RESULT: -4.939414691      8.434     10.995
REMARK  4 active torsions:
REMARK  status: ('A' for Active; 'I' for Inactive)
REMARK    1  A    between atoms: C5_7  and  C6_8 
REMARK    2  A    between atoms: C6_8  and  C8_10 
REMARK    3  A    between atoms: C8_10  and  N2_11 
REMARK    4  A    between atoms: C8_10  and  N3_15 
ROOT
HETATM    1  C6  UNL     1     -11.772  37.596  96.845  1.00  0.00    -0.014 C 
HETATM    2  C7  UNL     1     -10.551  36.927  96.250  1.00  0.00     0.048 C 
ENDROOT
BRANCH   1   3
HETATM    3  C5  UNL     1     -13.033  36.900  96.610  1.00  0.00    -0.000 A 
HETATM    4  C3  UNL     1     -14.162  37.596  96.151  1.00  0.00     0.016 A 
HETATM    5  N1  UNL     1     -15.127  36.677  96.043  1.00  0.00    -0.362 N 
HETATM    6  C4  UNL     1     -14.357  39.013  95.814  1.00  0.00     0.069 C 
HETATM    7  C2  UNL     1     -14.674  35.469  96.400  1.00  0.00     0.012 A 
ATOM      8  H1  UNL     1     -16.079  36.869  95.730  1.00  0.00     0.165 HD
HETATM    9  C1  UNL     1     -15.449  34.177  96.416  1.00  0.00     0.068 C 
HETATM   10  C12 UNL     1     -13.347  35.550  96.771  1.00  0.00    -0.027 A 
HETATM   11  C13 UNL     1     -12.473  34.451  97.232  1.00  0.00     0.051 C 
ENDBRANCH   1   3
BRANCH   1  12
HETATM   12  C8  UNL     1     -11.518  38.123  98.216  1.00  0.00     0.413 C 
BRANCH  12  13
HETATM   13  N2  UNL     1     -12.382  37.332  99.169  1.00  0.00    -0.046 N 
ATOM     14  H23 UNL     1     -13.196  37.853  99.494  1.00  0.00     0.277 HD
ATOM     15  H22 UNL     1     -12.886  36.571  98.713  1.00  0.00     0.277 HD
ATOM     16  H21 UNL     1     -11.782  37.014  99.931  1.00  0.00     0.277 HD
ENDBRANCH  12  13
BRANCH  12  17
HETATM   17  N3  UNL     1     -11.731  39.445  98.587  1.00  0.00    -0.046 N 
HETATM   18  C9  UNL     1     -10.783  39.775  99.685  1.00  0.00     0.274 C 
HETATM   19  C10 UNL     1     -13.034  39.663  99.266  1.00  0.00     0.274 C 
HETATM   20  C11 UNL     1     -11.520  40.510  97.650  1.00  0.00     0.274 C 
ENDBRANCH  12  17
ENDBRANCH   1  12
TORSDOF 4
ENDMDL
MODEL 3
REMARK VINA RESULT: -4.861870782      5.860      7.992
REMARK  4 active torsions:
REMARK  status: ('A' for Active; 'I' for Inactive)
REMARK    1  A    between atoms: C5_7  and  C6_8 
REMARK    2  A    between atoms: C6_8  and  C8_10 
REMARK    3  A    between atoms: C8_10  and  N2_11 
REMARK    4  A    between atoms: C8_10  and  N3_15 
ROOT
HETATM    1  C6  UNL     1     -14.708  40.899  94.859  1.00  0.00    -0.014 C 
HETATM    2  C7  UNL     1     -15.172  41.916  95.879  1.00  0.00     0.048 C 
ENDROOT
BRANCH   1   3
HETATM    3  C5  UNL     1     -15.746  39.999  94.367  1.00  0.00    -0.000 A 
HETATM    4  C3  UNL     1     -15.711  38.629  94.670  1.00  0.00     0.016 A 
HETATM    5  N1  UNL     1     -16.789  38.106  94.076  1.00  0.00    -0.362 N 
HETATM    6  C4  UNL     1     -14.764  37.836  95.465  1.00  0.00     0.069 C 
HETATM    7  C2  UNL     1     -17.483  39.052  93.432  1.00  0.00     0.012 A 
ATOM      8  H1  UNL     1     -17.048  37.120  94.109  1.00  0.00     0.165 HD
HETATM    9  C1  UNL     1     -18.754  38.869  92.645  1.00  0.00     0.068 C 
HETATM   10  C12 UNL     1     -16.866  40.278  93.582  1.00  0.00    -0.027 A 
HETATM   11  C13 UNL     1     -17.302  41.578  93.032  1.00  0.00     0.051 C 
ENDBRANCH   1   3
BRANCH   1  12
HETATM   12  C8  UNL     1     -13.770  41.486  93.859  1.00  0.00     0.413 C 
BRANCH  12  13
HETATM   13  N2  UNL     1     -13.586  40.465  92.762  1.00  0.00    -0.046 N 
ATOM     14  H23 UNL     1     -12.606  40.298  92.533  1.00  0.00     0.277 HD
ATOM     15  H22 UNL     1     -13.816  39.516  93.057  1.00  0.00     0.277 HD
ATOM     16  H21 UNL     1     -14.134  40.778  91.960  1.00  0.00     0.277 HD
ENDBRANCH  12  13
BRANCH  12  17
HETATM   17  N3  UNL     1     -12.477  41.894  94.159  1.00  0.00    -0.046 N 
HETATM   18  C9  UNL     1     -11.621  41.632  92.970  1.00  0.00     0.274 C 
HETATM   19  C10 UNL     1     -11.812  41.041  95.178  1.00  0.00     0.274 C 
HETATM   20  C11 UNL     1     -12.196  43.268  94.460  1.00  0.00     0.274 C 
ENDBRANCH  12  17
ENDBRANCH   1  12
TORSDOF 4
ENDMDL
MODEL 4
REMARK VINA RESULT: -4.825157775      1.987      3.595
REMARK  4 active torsions:
REMARK  status: ('A' for Active; 'I' for Inactive)
REMARK    1  A    between atoms: C5_7  and  C6_8 
REMARK    2  A    between atoms: C6_8  and  C8_10 
REMARK    3  A    between atoms: C8_10  and  N2_11 
REMARK    4  A    between atoms: C8_10  and  N3_15 
ROOT
HETATM    1  C6  UNL     1     -20.582  39.576  92.901  1.00  0.00    -0.014 C 
HETATM    2  C7  UNL     1     -20.802  38.101  93.158  1.00  0.00     0.048 C 
ENDROOT
BRANCH   1   3
HETATM    3  C5  UNL     1     -21.765  40.415  93.061  1.00  0.00    -0.000 A 
HETATM    4  C3  UNL     1     -22.410  40.967  91.943  1.00  0.00     0.016 A 
HETATM    5  N1  UNL     1     -23.439  41.666  92.434  1.00  0.00    -0.362 N 
HETATM    6  C4  UNL     1     -22.123  40.858  90.506  1.00  0.00     0.069 C 
HETATM    7  C2  UNL     1     -23.474  41.583  93.770  1.00  0.00     0.012 A 
ATOM      8  H1  UNL     1     -24.106  42.190  91.869  1.00  0.00     0.165 HD
HETATM    9  C1  UNL     1     -24.475  42.227  94.693  1.00  0.00     0.068 C 
HETATM   10  C12 UNL     1     -22.432  40.799  94.225  1.00  0.00    -0.027 A 
HETATM   11  C13 UNL     1     -22.109  40.457  95.625  1.00  0.00     0.051 C 
ENDBRANCH   1   3
BRANCH   1  12
HETATM   12  C8  UNL     1     -19.301  40.068  93.485  1.00  0.00     0.413 C 
BRANCH  12  13
HETATM   13  N2  UNL     1     -19.314  41.576  93.391  1.00  0.00    -0.046 N 
ATOM     14  H23 UNL     1     -19.910  42.014  94.093  1.00  0.00     0.277 HD
ATOM     15  H22 UNL     1     -18.433  42.002  93.680  1.00  0.00     0.277 HD
ATOM     16  H21 UNL     1     -19.579  41.818  92.435  1.00  0.00     0.277 HD
ENDBRANCH  12  13
BRANCH  12  17
HETATM   17  N3  UNL     1     -18.047  39.713  93.007  1.00  0.00    -0.046 N 
HETATM   18  C9  UNL     1     -17.181  40.922  93.035  1.00  0.00     0.274 C 
HETATM   19  C10 UNL     1     -18.038  39.395  91.556  1.00  0.00     0.274 C 
HETATM   20  C11 UNL     1     -17.254  38.734  93.694  1.00  0.00     0.274 C 
ENDBRANCH  12  17
ENDBRANCH   1  12
TORSDOF 4
ENDMDL
MODEL 5
REMARK VINA RESULT: -4.822253250      7.879     10.391
REMARK  4 active torsions:
REMARK  status: ('A' for Active; 'I' for Inactive)
REMARK    1  A    between atoms: C5_7  and  C6_8 
REMARK    2  A    between atoms: C6_8  and  C8_10 
REMARK    3  A    between atoms: C8_10  and  N2_11 
REMARK    4  A    between atoms: C8_10  and  N3_15 
ROOT
HETATM    1  C6  UNL     1     -13.215  39.656  96.448  1.00  0.00    -0.014 C 
HETATM    2  C7  UNL     1     -13.688  40.482  97.625  1.00  0.00     0.048 C 
ENDROOT
BRANCH   1   3
HETATM    3  C5  UNL     1     -12.959  40.412  95.227  1.00  0.00    -0.000 A 
HETATM    4  C3  UNL     1     -13.658  40.122  94.045  1.00  0.00     0.016 A 
HETATM    5  N1  UNL     1     -13.192  40.985  93.135  1.00  0.00    -0.362 N 
HETATM    6  C4  UNL     1     -14.702  39.131  93.753  1.00  0.00     0.069 C 
HETATM    7  C2  UNL     1     -12.260  41.782  93.671  1.00  0.00     0.012 A 
ATOM      8  H1  UNL     1     -13.504  41.030  92.165  1.00  0.00     0.165 HD
HETATM    9  C1  UNL     1     -11.497  42.881  92.978  1.00  0.00     0.068 C 
HETATM   10  C12 UNL     1     -12.070  41.463  95.001  1.00  0.00    -0.027 A 
HETATM   11  C13 UNL     1     -11.135  42.097  95.953  1.00  0.00     0.051 C 
ENDBRANCH   1   3
BRANCH   1  12
HETATM   12  C8  UNL     1     -12.214  38.624  96.846  1.00  0.00     0.413 C 
BRANCH  12  13
HETATM   13  N2  UNL     1     -11.404  38.287  95.616  1.00  0.00    -0.046 N 
ATOM     14  H23 UNL     1     -11.648  38.860  94.809  1.00  0.00     0.277 HD
ATOM     15  H22 UNL     1     -10.428  38.572  95.691  1.00  0.00     0.277 HD
ATOM     16  H21 UNL     1     -11.516  37.287  95.444  1.00  0.00     0.277 HD
ENDBRANCH  12  13
BRANCH  12  17
HETATM   17  N3  UNL     1     -12.551  37.385  97.376  1.00  0.00    -0.046 N 
HETATM   18  C9  UNL     1     -11.604  36.376  96.831  1.00  0.00     0.274 C 
HETATM   19  C10 UNL     1     -13.845  36.859  96.869  1.00  0.00     0.274 C 
HETATM   20  C11 UNL     1     -12.488  37.155  98.790  1.00  0.00     0.274 C 
ENDBRANCH  12  17
ENDBRANCH   1  12
TORSDOF 4
ENDMDL
