MODEL 1
REMARK VINA RESULT: -7.199048020      0.000      0.000
REMARK  12 active torsions:
REMARK  status: ('A' for Active; 'I' for Inactive)
REMARK    1  A    between atoms: N2_5  and  C3_6 
REMARK    2  A    between atoms: C3_6  and  C4_7 
REMARK    3  A    between atoms: C4_7  and  C5_8 
REMARK    4  A    between atoms: C5_8  and  N3_9 
REMARK    5  A    between atoms: C5_8  and  C6_13 
REMARK       I    between atoms: C6_13  and  N4_15 
REMARK    6  A    between atoms: N4_15  and  N5_17 
REMARK    7  A    between atoms: N5_17  and  O2_19 
REMARK    8  A    between atoms: C8_21  and  N6_22 
REMARK       I    between atoms: N6_22  and  C9_24 
REMARK       I    between atoms: C9_24  and  N8_28 
REMARK    9  A    between atoms: N8_28  and  N9_30 
REMARK   10  A    between atoms: N9_30  and  N10_31 
REMARK   11  A    between atoms: N10_31  and  N11_32 
REMARK   12  A    between atoms: C10_37  and  N13_38 
ROOT
HETATM    1  C1  UNL     1       7.467   3.879   0.033  1.00  0.00     0.074 C 
HETATM    2  C2  UNL     1       8.390   3.422  -1.040  1.00  0.00     0.066 A 
HETATM    3  N1  UNL     1       8.740   4.244  -2.041  1.00  0.00    -0.285 N 
ATOM      4  H1  UNL     1       8.358   5.189  -2.049  1.00  0.00     0.187 HD
HETATM    5  N2  UNL     1       9.564   3.881  -3.026  1.00  0.00    -0.123 N 
HETATM    6  C8  UNL     1      10.095   2.628  -3.054  1.00  0.00     0.715 A 
HETATM    7  N12 UNL     1       9.746   1.805  -2.056  1.00  0.00    -0.173 N 
ATOM      8  H12 UNL     1      10.130   0.860  -2.055  1.00  0.00     0.186 HD
HETATM    9  C10 UNL     1       8.922   2.152  -1.061  1.00  0.00     0.138 A 
ENDROOT
BRANCH   5  10
HETATM   10  C3  UNL     1       9.857   4.797  -4.089  1.00  0.00     0.170 C 
BRANCH  10  11
HETATM   11  C4  UNL     1      10.661   5.982  -3.738  1.00  0.00     0.065 C 
BRANCH  11  12
HETATM   12  C5  UNL     1      11.854   6.326  -4.533  1.00  0.00     0.278 C 
BRANCH  12  13
HETATM   13  N3  UNL     1      12.025   5.516  -5.723  1.00  0.00    -0.066 N 
ATOM     14  H33 UNL     1      12.163   4.537  -5.472  1.00  0.00     0.275 HD
ATOM     15  H32 UNL     1      11.145   5.441  -6.234  1.00  0.00     0.275 HD
ATOM     16  H31 UNL     1      12.771   5.835  -6.340  1.00  0.00     0.275 HD
ENDBRANCH  12  13
BRANCH  12  17
HETATM   17  C6  UNL     1      13.096   6.311  -3.765  1.00  0.00     0.270 C 
HETATM   18  O1  UNL     1      13.156   5.538  -2.745  1.00  0.00    -0.269 OA
HETATM   19  N4  UNL     1      14.234   7.086  -4.066  1.00  0.00    -0.244 N 
HETATM   20  C7  UNL     1      15.396   6.973  -3.184  1.00  0.00     0.183 C 
BRANCH  19  21
HETATM   21  N5  UNL     1      14.287   7.939  -5.185  1.00  0.00    -0.206 N 
ATOM     22  H5  UNL     1      14.316   8.949  -5.046  1.00  0.00     0.216 HD
BRANCH  21  23
HETATM   23  O2  UNL     1      14.299   7.478  -6.341  1.00  0.00    -0.274 OA
ATOM     24  H2  UNL     1      14.892   7.824  -6.999  1.00  0.00     0.246 HD
ENDBRANCH  21  23
ENDBRANCH  19  21
ENDBRANCH  12  17
ENDBRANCH  11  12
ENDBRANCH  10  11
ENDBRANCH   5  10
BRANCH   6  25
HETATM   25  N6  UNL     1      10.880   2.331  -4.024  1.00  0.00    -0.020 N 
HETATM   26  C9  UNL     1      12.217   1.941  -3.897  1.00  0.00     0.703 C 
HETATM   27  N7  UNL     1      13.104   2.833  -3.639  1.00  0.00    -0.233 N 
HETATM   28  N8  UNL     1      12.688   0.614  -4.031  1.00  0.00    -0.118 N 
ATOM     29  H72 UNL     1      12.765   3.790  -3.542  1.00  0.00     0.174 HD
ATOM     30  H71 UNL     1      14.079   2.549  -3.547  1.00  0.00     0.174 HD
ATOM     31  H8  UNL     1      13.306   0.402  -4.814  1.00  0.00     0.202 HD
ATOM     32  H6  UNL     1      10.497   2.384  -4.968  1.00  0.00     0.203 HD
BRANCH  28  33
HETATM   33  N9  UNL     1      12.359  -0.422  -3.159  1.00  0.00     0.005 NA
BRANCH  33  34
HETATM   34  N10 UNL     1      12.303   0.057  -1.837  1.00  0.00    -0.015 NA
BRANCH  34  35
HETATM   35  N11 UNL     1      13.450  -0.311  -1.126  1.00  0.00    -0.330 N 
ATOM     36 2H11 UNL     1      14.012  -1.134  -1.343  1.00  0.00     0.173 HD
ATOM     37 1H11 UNL     1      13.639   0.352  -0.374  1.00  0.00     0.173 HD
ENDBRANCH  34  35
ENDBRANCH  33  34
ENDBRANCH  28  33
ENDBRANCH   6  25
BRANCH   9  38
HETATM   38  N13 UNL     1       8.596   1.349  -0.108  1.00  0.00    -0.383 N 
ATOM     39 2H13 UNL     1       9.273   0.762   0.380  1.00  0.00     0.157 HD
ATOM     40 1H13 UNL     1       7.614   1.306   0.163  1.00  0.00     0.157 HD
ENDBRANCH   9  38
TORSDOF 12
ENDMDL
MODEL 2
REMARK VINA RESULT: -7.083342152      1.499      1.816
REMARK  12 active torsions:
REMARK  status: ('A' for Active; 'I' for Inactive)
REMARK    1  A    between atoms: N2_5  and  C3_6 
REMARK    2  A    between atoms: C3_6  and  C4_7 
REMARK    3  A    between atoms: C4_7  and  C5_8 
REMARK    4  A    between atoms: C5_8  and  N3_9 
REMARK    5  A    between atoms: C5_8  and  C6_13 
REMARK       I    between atoms: C6_13  and  N4_15 
REMARK    6  A    between atoms: N4_15  and  N5_17 
REMARK    7  A    between atoms: N5_17  and  O2_19 
REMARK    8  A    between atoms: C8_21  and  N6_22 
REMARK       I    between atoms: N6_22  and  C9_24 
REMARK       I    between atoms: C9_24  and  N8_28 
REMARK    9  A    between atoms: N8_28  and  N9_30 
REMARK   10  A    between atoms: N9_30  and  N10_31 
REMARK   11  A    between atoms: N10_31  and  N11_32 
REMARK   12  A    between atoms: C10_37  and  N13_38 
ROOT
HETATM    1  C1  UNL     1       7.365   3.429   0.453  1.00  0.00     0.074 C 
HETATM    2  C2  UNL     1       8.345   2.656  -0.357  1.00  0.00     0.066 A 
HETATM    3  N1  UNL     1       8.732   3.092  -1.565  1.00  0.00    -0.285 N 
ATOM      4  H1  UNL     1       8.338   3.965  -1.916  1.00  0.00     0.187 HD
HETATM    5  N2  UNL     1       9.608   2.436  -2.329  1.00  0.00    -0.123 N 
HETATM    6  C8  UNL     1      10.156   1.266  -1.899  1.00  0.00     0.715 A 
HETATM    7  N12 UNL     1       9.770   0.829  -0.693  1.00  0.00    -0.173 N 
ATOM      8  H12 UNL     1      10.166  -0.046  -0.349  1.00  0.00     0.186 HD
HETATM    9  C10 UNL     1       8.894   1.474   0.085  1.00  0.00     0.138 A 
ENDROOT
BRANCH   5  10
HETATM   10  C3  UNL     1       9.940   2.936  -3.630  1.00  0.00     0.170 C 
BRANCH  10  11
HETATM   11  C4  UNL     1      10.181   4.386  -3.740  1.00  0.00     0.065 C 
BRANCH  11  12
HETATM   12  C5  UNL     1      11.153   4.899  -4.723  1.00  0.00     0.278 C 
BRANCH  12  13
HETATM   13  N3  UNL     1      11.686   3.887  -5.611  1.00  0.00    -0.066 N 
ATOM     14  H33 UNL     1      11.963   3.058  -5.085  1.00  0.00     0.275 HD
ATOM     15  H32 UNL     1      10.943   3.487  -6.185  1.00  0.00     0.275 HD
ATOM     16  H31 UNL     1      12.456   4.211  -6.198  1.00  0.00     0.275 HD
ENDBRANCH  12  13
BRANCH  12  17
HETATM   17  C6  UNL     1      12.261   5.638  -4.122  1.00  0.00     0.270 C 
HETATM   18  O1  UNL     1      13.136   4.968  -3.466  1.00  0.00    -0.269 OA
HETATM   19  N4  UNL     1      12.439   7.033  -4.213  1.00  0.00    -0.244 N 
HETATM   20  C7  UNL     1      13.592   7.625  -3.536  1.00  0.00     0.183 C 
BRANCH  19  21
HETATM   21  N5  UNL     1      11.558   7.855  -4.940  1.00  0.00    -0.206 N 
ATOM     22  H5  UNL     1      10.670   8.133  -4.523  1.00  0.00     0.216 HD
BRANCH  21  23
HETATM   23  O2  UNL     1      11.847   8.249  -6.086  1.00  0.00    -0.274 OA
ATOM     24  H2  UNL     1      11.169   8.504  -6.701  1.00  0.00     0.246 HD
ENDBRANCH  21  23
ENDBRANCH  19  21
ENDBRANCH  12  17
ENDBRANCH  11  12
ENDBRANCH  10  11
ENDBRANCH   5  10
BRANCH   6  25
HETATM   25  N6  UNL     1      10.991   0.676  -2.673  1.00  0.00    -0.020 N 
HETATM   26  C9  UNL     1      12.384   0.772  -2.591  1.00  0.00     0.703 C 
HETATM   27  N7  UNL     1      12.961   1.837  -3.016  1.00  0.00    -0.233 N 
HETATM   28  N8  UNL     1      13.233  -0.229  -2.065  1.00  0.00    -0.118 N 
ATOM     29  H72 UNL     1      12.348   2.559  -3.395  1.00  0.00     0.174 HD
ATOM     30  H71 UNL     1      13.977   1.908  -2.956  1.00  0.00     0.174 HD
ATOM     31  H8  UNL     1      13.885  -0.688  -2.701  1.00  0.00     0.202 HD
ATOM     32  H6  UNL     1      10.608   0.086  -3.411  1.00  0.00     0.203 HD
BRANCH  28  33
HETATM   33  N9  UNL     1      13.236  -0.627  -0.729  1.00  0.00     0.005 NA
BRANCH  33  34
HETATM   34  N10 UNL     1      12.757   0.414   0.088  1.00  0.00    -0.015 NA
BRANCH  34  35
HETATM   35  N11 UNL     1      12.255  -0.090   1.293  1.00  0.00    -0.330 N 
ATOM     36 2H11 UNL     1      11.822  -1.009   1.386  1.00  0.00     0.173 HD
ATOM     37 1H11 UNL     1      12.383   0.583   2.048  1.00  0.00     0.173 HD
ENDBRANCH  34  35
ENDBRANCH  33  34
ENDBRANCH  28  33
ENDBRANCH   6  25
BRANCH   9  38
HETATM   38  N13 UNL     1       8.533   1.041   1.244  1.00  0.00    -0.383 N 
ATOM     39 2H13 UNL     1       9.189   0.893   2.011  1.00  0.00     0.157 HD
ATOM     40 1H13 UNL     1       7.544   0.839   1.389  1.00  0.00     0.157 HD
ENDBRANCH   9  38
TORSDOF 12
ENDMDL
MODEL 3
REMARK VINA RESULT: -6.935035405      3.229      7.003
REMARK  12 active torsions:
REMARK  status: ('A' for Active; 'I' for Inactive)
REMARK    1  A    between atoms: N2_5  and  C3_6 
REMARK    2  A    between atoms: C3_6  and  C4_7 
REMARK    3  A    between atoms: C4_7  and  C5_8 
REMARK    4  A    between atoms: C5_8  and  N3_9 
REMARK    5  A    between atoms: C5_8  and  C6_13 
REMARK       I    between atoms: C6_13  and  N4_15 
REMARK    6  A    between atoms: N4_15  and  N5_17 
REMARK    7  A    between atoms: N5_17  and  O2_19 
REMARK    8  A    between atoms: C8_21  and  N6_22 
REMARK       I    between atoms: N6_22  and  C9_24 
REMARK       I    between atoms: C9_24  and  N8_28 
REMARK    9  A    between atoms: N8_28  and  N9_30 
REMARK   10  A    between atoms: N9_30  and  N10_31 
REMARK   11  A    between atoms: N10_31  and  N11_32 
REMARK   12  A    between atoms: C10_37  and  N13_38 
ROOT
HETATM    1  C1  UNL     1      13.708  -1.459  -3.701  1.00  0.00     0.074 C 
HETATM    2  C2  UNL     1      13.357  -0.014  -3.665  1.00  0.00     0.066 A 
HETATM    3  N1  UNL     1      12.760   0.521  -2.590  1.00  0.00    -0.285 N 
ATOM      4  H1  UNL     1      12.551  -0.086  -1.797  1.00  0.00     0.187 HD
HETATM    5  N2  UNL     1      12.425   1.810  -2.509  1.00  0.00    -0.123 N 
HETATM    6  C8  UNL     1      12.683   2.655  -3.546  1.00  0.00     0.715 A 
HETATM    7  N12 UNL     1      13.278   2.122  -4.621  1.00  0.00    -0.173 N 
ATOM      8  H12 UNL     1      13.481   2.734  -5.412  1.00  0.00     0.186 HD
HETATM    9  C10 UNL     1      13.621   0.833  -4.718  1.00  0.00     0.138 A 
ENDROOT
BRANCH   5  10
HETATM   10  C3  UNL     1      11.747   2.304  -1.348  1.00  0.00     0.170 C 
BRANCH  10  11
HETATM   11  C4  UNL     1      11.546   1.349  -0.243  1.00  0.00     0.065 C 
BRANCH  11  12
HETATM   12  C5  UNL     1      10.182   0.931   0.131  1.00  0.00     0.278 C 
BRANCH  12  13
HETATM   13  N3  UNL     1       9.231   0.972  -0.961  1.00  0.00    -0.066 N 
ATOM     14  H33 UNL     1       8.635   1.797  -0.886  1.00  0.00     0.275 HD
ATOM     15  H32 UNL     1       9.704   1.182  -1.840  1.00  0.00     0.275 HD
ATOM     16  H31 UNL     1       8.664   0.129  -1.052  1.00  0.00     0.275 HD
ENDBRANCH  12  13
BRANCH  12  17
HETATM   17  C6  UNL     1       9.634   1.665   1.269  1.00  0.00     0.270 C 
HETATM   18  O1  UNL     1       8.896   2.683   1.020  1.00  0.00    -0.269 OA
HETATM   19  N4  UNL     1       9.856   1.332   2.620  1.00  0.00    -0.244 N 
HETATM   20  C7  UNL     1       9.252   2.182   3.646  1.00  0.00     0.183 C 
BRANCH  19  21
HETATM   21  N5  UNL     1      10.619   0.212   3.001  1.00  0.00    -0.206 N 
ATOM     22  H5  UNL     1      11.248  -0.222   2.326  1.00  0.00     0.216 HD
BRANCH  21  23
HETATM   23  O2  UNL     1      10.538  -0.256   4.153  1.00  0.00    -0.274 OA
ATOM     24  H2  UNL     1      11.270  -0.198   4.756  1.00  0.00     0.246 HD
ENDBRANCH  21  23
ENDBRANCH  19  21
ENDBRANCH  12  17
ENDBRANCH  11  12
ENDBRANCH  10  11
ENDBRANCH   5  10
BRANCH   6  25
HETATM   25  N6  UNL     1      12.340   3.884  -3.417  1.00  0.00    -0.020 N 
HETATM   26  C9  UNL     1      11.488   4.585  -4.276  1.00  0.00     0.703 C 
HETATM   27  N7  UNL     1      11.936   4.977  -5.414  1.00  0.00    -0.233 N 
HETATM   28  N8  UNL     1      10.140   4.907  -3.992  1.00  0.00    -0.118 N 
ATOM     29  H72 UNL     1      12.907   4.745  -5.619  1.00  0.00     0.174 HD
ATOM     30  H71 UNL     1      11.314   5.489  -6.041  1.00  0.00     0.174 HD
ATOM     31  H8  UNL     1       9.895   5.892  -3.888  1.00  0.00     0.202 HD
ATOM     32  H6  UNL     1      12.722   4.394  -2.620  1.00  0.00     0.203 HD
BRANCH  28  33
HETATM   33  N9  UNL     1       9.127   3.961  -3.845  1.00  0.00     0.005 NA
BRANCH  33  34
HETATM   34  N10 UNL     1       9.120   3.459  -2.530  1.00  0.00    -0.015 NA
BRANCH  34  35
HETATM   35  N11 UNL     1       8.388   4.298  -1.682  1.00  0.00    -0.330 N 
ATOM     36 2H11 UNL     1       7.690   4.965  -2.009  1.00  0.00     0.173 HD
ATOM     37 1H11 UNL     1       8.651   4.146  -0.709  1.00  0.00     0.173 HD
ENDBRANCH  34  35
ENDBRANCH  33  34
ENDBRANCH  28  33
ENDBRANCH   6  25
BRANCH   9  38
HETATM   38  N13 UNL     1      14.194   0.335  -5.760  1.00  0.00    -0.383 N 
ATOM     39 2H13 UNL     1      14.450  -0.649  -5.835  1.00  0.00     0.157 HD
ATOM     40 1H13 UNL     1      14.394   0.964  -6.537  1.00  0.00     0.157 HD
ENDBRANCH   9  38
TORSDOF 12
ENDMDL
MODEL 4
REMARK VINA RESULT: -6.891481924      2.781      5.325
REMARK  12 active torsions:
REMARK  status: ('A' for Active; 'I' for Inactive)
REMARK    1  A    between atoms: N2_5  and  C3_6 
REMARK    2  A    between atoms: C3_6  and  C4_7 
REMARK    3  A    between atoms: C4_7  and  C5_8 
REMARK    4  A    between atoms: C5_8  and  N3_9 
REMARK    5  A    between atoms: C5_8  and  C6_13 
REMARK       I    between atoms: C6_13  and  N4_15 
REMARK    6  A    between atoms: N4_15  and  N5_17 
REMARK    7  A    between atoms: N5_17  and  O2_19 
REMARK    8  A    between atoms: C8_21  and  N6_22 
REMARK       I    between atoms: N6_22  and  C9_24 
REMARK       I    between atoms: C9_24  and  N8_28 
REMARK    9  A    between atoms: N8_28  and  N9_30 
REMARK   10  A    between atoms: N9_30  and  N10_31 
REMARK   11  A    between atoms: N10_31  and  N11_32 
REMARK   12  A    between atoms: C10_37  and  N13_38 
ROOT
HETATM    1  C1  UNL     1      11.696  -0.103   2.814  1.00  0.00     0.074 C 
HETATM    2  C2  UNL     1      10.703   0.573   1.935  1.00  0.00     0.066 A 
HETATM    3  N1  UNL     1      10.762   0.436   0.602  1.00  0.00    -0.285 N 
ATOM      4  H1  UNL     1      11.503  -0.141   0.204  1.00  0.00     0.187 HD
HETATM    5  N2  UNL     1       9.895   1.020  -0.228  1.00  0.00    -0.123 N 
HETATM    6  C8  UNL     1       8.893   1.801   0.260  1.00  0.00     0.715 A 
HETATM    7  N12 UNL     1       8.834   1.940   1.592  1.00  0.00    -0.173 N 
ATOM      8  H12 UNL     1       8.091   2.520   1.983  1.00  0.00     0.186 HD
HETATM    9  C10 UNL     1       9.692   1.360   2.437  1.00  0.00     0.138 A 
ENDROOT
BRANCH   5  10
HETATM   10  C3  UNL     1      10.046   0.868  -1.645  1.00  0.00     0.170 C 
BRANCH  10  11
HETATM   11  C4  UNL     1      11.415   0.648  -2.146  1.00  0.00     0.065 C 
BRANCH  11  12
HETATM   12  C5  UNL     1      11.634   0.287  -3.558  1.00  0.00     0.278 C 
BRANCH  12  13
HETATM   13  N3  UNL     1      12.018  -1.095  -3.762  1.00  0.00    -0.066 N 
ATOM     14  H33 UNL     1      12.689  -1.389  -3.053  1.00  0.00     0.275 HD
ATOM     15  H32 UNL     1      11.243  -1.719  -3.535  1.00  0.00     0.275 HD
ATOM     16  H31 UNL     1      12.376  -1.294  -4.697  1.00  0.00     0.275 HD
ENDBRANCH  12  13
BRANCH  12  17
HETATM   17  C6  UNL     1      12.589   1.153  -4.245  1.00  0.00     0.270 C 
HETATM   18  O1  UNL     1      13.777   0.706  -4.422  1.00  0.00    -0.269 OA
HETATM   19  N4  UNL     1      12.297   2.444  -4.728  1.00  0.00    -0.244 N 
HETATM   20  C7  UNL     1      13.372   3.195  -5.376  1.00  0.00     0.183 C 
BRANCH  19  21
HETATM   21  N5  UNL     1      11.015   3.015  -4.618  1.00  0.00    -0.206 N 
ATOM     22  H5  UNL     1      10.279   2.506  -4.129  1.00  0.00     0.216 HD
BRANCH  21  23
HETATM   23  O2  UNL     1      10.767   4.132  -5.110  1.00  0.00    -0.274 OA
ATOM     24  H2  UNL     1      10.384   4.823  -4.582  1.00  0.00     0.246 HD
ENDBRANCH  21  23
ENDBRANCH  19  21
ENDBRANCH  12  17
ENDBRANCH  11  12
ENDBRANCH  10  11
ENDBRANCH   5  10
BRANCH   6  25
HETATM   25  N6  UNL     1       8.088   2.340  -0.581  1.00  0.00    -0.020 N 
HETATM   26  C9  UNL     1       7.992   3.707  -0.853  1.00  0.00     0.703 C 
HETATM   27  N7  UNL     1       7.394   4.470  -0.009  1.00  0.00    -0.233 N 
HETATM   28  N8  UNL     1       8.510   4.341  -2.006  1.00  0.00    -0.118 N 
ATOM     29  H72 UNL     1       7.020   4.014   0.823  1.00  0.00     0.174 HD
ATOM     30  H71 UNL     1       7.324   5.468  -0.207  1.00  0.00     0.174 HD
ATOM     31  H8  UNL     1       7.849   4.756  -2.663  1.00  0.00     0.202 HD
ATOM     32  H6  UNL     1       7.465   1.717  -1.095  1.00  0.00     0.203 HD
BRANCH  28  33
HETATM   33  N9  UNL     1       9.870   4.432  -2.301  1.00  0.00     0.005 NA
BRANCH  33  34
HETATM   34  N10 UNL     1      10.269   5.782  -2.330  1.00  0.00    -0.015 NA
BRANCH  34  35
HETATM   35  N11 UNL     1      11.605   5.896  -2.729  1.00  0.00    -0.330 N 
ATOM     36 2H11 UNL     1      12.255   5.110  -2.766  1.00  0.00     0.173 HD
ATOM     37 1H11 UNL     1      11.829   6.860  -2.973  1.00  0.00     0.173 HD
ENDBRANCH  34  35
ENDBRANCH  33  34
ENDBRANCH  28  33
ENDBRANCH   6  25
BRANCH   9  38
HETATM   38  N13 UNL     1       9.622   1.503   3.716  1.00  0.00    -0.383 N 
ATOM     39 2H13 UNL     1      10.158   0.931   4.369  1.00  0.00     0.157 HD
ATOM     40 1H13 UNL     1       9.000   2.224   4.080  1.00  0.00     0.157 HD
ENDBRANCH   9  38
TORSDOF 12
ENDMDL
MODEL 5
REMARK VINA RESULT: -6.841166728      5.065      8.095
REMARK  12 active torsions:
REMARK  status: ('A' for Active; 'I' for Inactive)
REMARK    1  A    between atoms: N2_5  and  C3_6 
REMARK    2  A    between atoms: C3_6  and  C4_7 
REMARK    3  A    between atoms: C4_7  and  C5_8 
REMARK    4  A    between atoms: C5_8  and  N3_9 
REMARK    5  A    between atoms: C5_8  and  C6_13 
REMARK       I    between atoms: C6_13  and  N4_15 
REMARK    6  A    between atoms: N4_15  and  N5_17 
REMARK    7  A    between atoms: N5_17  and  O2_19 
REMARK    8  A    between atoms: C8_21  and  N6_22 
REMARK       I    between atoms: N6_22  and  C9_24 
REMARK       I    between atoms: C9_24  and  N8_28 
REMARK    9  A    between atoms: N8_28  and  N9_30 
REMARK   10  A    between atoms: N9_30  and  N10_31 
REMARK   11  A    between atoms: N10_31  and  N11_32 
REMARK   12  A    between atoms: C10_37  and  N13_38 
ROOT
HETATM    1  C1  UNL     1       7.467   2.514   3.420  1.00  0.00     0.074 C 
HETATM    2  C2  UNL     1       8.340   2.190   2.259  1.00  0.00     0.066 A 
HETATM    3  N1  UNL     1       9.474   1.494   2.427  1.00  0.00    -0.285 N 
ATOM      4  H1  UNL     1       9.726   1.193   3.368  1.00  0.00     0.187 HD
HETATM    5  N2  UNL     1      10.290   1.178   1.419  1.00  0.00    -0.123 N 
HETATM    6  C8  UNL     1       9.993   1.562   0.147  1.00  0.00     0.715 A 
HETATM    7  N12 UNL     1       8.861   2.258  -0.022  1.00  0.00    -0.173 N 
ATOM      8  H12 UNL     1       8.616   2.557  -0.967  1.00  0.00     0.186 HD
HETATM    9  C10 UNL     1       8.033   2.582   0.976  1.00  0.00     0.138 A 
ENDROOT
BRANCH   5  10
HETATM   10  C3  UNL     1      11.510   0.473   1.677  1.00  0.00     0.170 C 
BRANCH  10  11
HETATM   11  C4  UNL     1      11.407  -0.749   2.497  1.00  0.00     0.065 C 
BRANCH  11  12
HETATM   12  C5  UNL     1      12.155  -0.851   3.763  1.00  0.00     0.278 C 
BRANCH  12  13
HETATM   13  N3  UNL     1      12.508  -2.207   4.134  1.00  0.00    -0.066 N 
ATOM     14  H33 UNL     1      12.493  -2.316   5.148  1.00  0.00     0.275 HD
ATOM     15  H32 UNL     1      11.761  -2.853   3.879  1.00  0.00     0.275 HD
ATOM     16  H31 UNL     1      13.400  -2.524   3.753  1.00  0.00     0.275 HD
ENDBRANCH  12  13
BRANCH  12  17
HETATM   17  C6  UNL     1      11.489  -0.207   4.892  1.00  0.00     0.270 C 
HETATM   18  O1  UNL     1      10.259   0.123   4.748  1.00  0.00    -0.269 OA
HETATM   19  N4  UNL     1      12.101   0.076   6.130  1.00  0.00    -0.244 N 
HETATM   20  C7  UNL     1      11.302   0.746   7.155  1.00  0.00     0.183 C 
BRANCH  19  21
HETATM   21  N5  UNL     1      13.436  -0.278   6.405  1.00  0.00    -0.206 N 
ATOM     22  H5  UNL     1      13.954  -0.843   5.733  1.00  0.00     0.216 HD
BRANCH  21  23
HETATM   23  O2  UNL     1      13.992   0.091   7.456  1.00  0.00    -0.274 OA
ATOM     24  H2  UNL     1      14.530  -0.508   7.960  1.00  0.00     0.246 HD
ENDBRANCH  21  23
ENDBRANCH  19  21
ENDBRANCH  12  17
ENDBRANCH  11  12
ENDBRANCH  10  11
ENDBRANCH   5  10
BRANCH   6  25
HETATM   25  N6  UNL     1      10.811   1.233  -0.785  1.00  0.00    -0.020 N 
HETATM   26  C9  UNL     1      10.651   1.517  -2.145  1.00  0.00     0.703 C 
HETATM   27  N7  UNL     1       9.814   0.826  -2.832  1.00  0.00    -0.233 N 
HETATM   28  N8  UNL     1      11.351   2.526  -2.847  1.00  0.00    -0.118 N 
ATOM     29  H72 UNL     1       9.310   0.098  -2.325  1.00  0.00     0.174 HD
ATOM     30  H71 UNL     1       9.697   1.033  -3.823  1.00  0.00     0.174 HD
ATOM     31  H8  UNL     1      12.000   2.238  -3.579  1.00  0.00     0.202 HD
ATOM     32  H6  UNL     1      11.649   0.720  -0.511  1.00  0.00     0.203 HD
BRANCH  28  33
HETATM   33  N9  UNL     1      11.207   3.890  -2.601  1.00  0.00     0.005 NA
BRANCH  33  34
HETATM   34  N10 UNL     1       9.914   4.161  -2.114  1.00  0.00    -0.015 NA
BRANCH  34  35
HETATM   35  N11 UNL     1       9.073   4.587  -3.148  1.00  0.00    -0.330 N 
ATOM     36 2H11 UNL     1       8.700   5.533  -3.221  1.00  0.00     0.173 HD
ATOM     37 1H11 UNL     1       8.893   3.827  -3.805  1.00  0.00     0.173 HD
ENDBRANCH  34  35
ENDBRANCH  33  34
ENDBRANCH  28  33
ENDBRANCH   6  25
BRANCH   9  38
HETATM   38  N13 UNL     1       6.946   3.252   0.797  1.00  0.00    -0.383 N 
ATOM     39 2H13 UNL     1       6.080   3.049   1.297  1.00  0.00     0.157 HD
ATOM     40 1H13 UNL     1       6.965   4.017   0.124  1.00  0.00     0.157 HD
ENDBRANCH   9  38
TORSDOF 12
ENDMDL
