MODEL 1
REMARK VINA RESULT: -5.397141400      0.000      0.000
REMARK  6 active torsions:
REMARK  status: ('A' for Active; 'I' for Inactive)
REMARK    1  A    between atoms: C1_2  and  C2_4 
REMARK    2  A    between atoms: C3_7  and  N3_8 
REMARK    3  A    between atoms: C4_11  and  N4_12 
REMARK       I    between atoms: N4_12  and  C5_14 
REMARK       I    between atoms: C5_14  and  N5_15 
REMARK       I    between atoms: C5_14  and  N6_19 
REMARK    4  A    between atoms: C6_25  and  C7_26 
REMARK    5  A    between atoms: C7_26  and  O4_27 
REMARK    6  A    between atoms: C7_26  and  O5_29 
ROOT
HETATM    1  C2  UNL     1      74.004  77.606  59.797  1.00  0.00     0.127 A 
HETATM    2  N2  UNL     1      74.954  76.610  59.866  1.00  0.00    -0.329 N 
ATOM      3  H2  UNL     1      75.668  76.546  59.140  1.00  0.00     0.168 HD
HETATM    4  C3  UNL     1      74.955  75.728  60.870  1.00  0.00     0.218 A 
HETATM    5  C4  UNL     1      74.022  75.757  61.883  1.00  0.00     0.155 A 
HETATM    6  N7  UNL     1      73.104  76.719  61.817  1.00  0.00    -0.337 N 
ATOM      7  H7  UNL     1      72.396  76.772  62.550  1.00  0.00     0.167 HD
HETATM    8  C6  UNL     1      73.072  77.651  60.795  1.00  0.00     0.098 A 
ENDROOT
BRANCH   5   9
HETATM    9  N4  UNL     1      74.028  74.905  62.841  1.00  0.00    -0.324 N 
HETATM   10  C5  UNL     1      74.213  75.203  64.220  1.00  0.00     0.481 C 
HETATM   11  N5  UNL     1      73.960  73.973  64.973  1.00  0.00    -0.033 N 
HETATM   12  N6  UNL     1      75.568  75.603  64.548  1.00  0.00    -0.033 N 
ATOM     13  H53 UNL     1      73.047  73.565  64.773  1.00  0.00     0.278 HD
ATOM     14  H52 UNL     1      74.529  73.189  64.656  1.00  0.00     0.278 HD
ATOM     15  H51 UNL     1      74.092  74.187  65.961  1.00  0.00     0.278 HD
ATOM     16  H63 UNL     1      76.238  74.899  64.238  1.00  0.00     0.278 HD
ATOM     17  H62 UNL     1      75.865  76.387  63.966  1.00  0.00     0.278 HD
ATOM     18  H61 UNL     1      75.700  75.816  65.537  1.00  0.00     0.278 HD
ATOM     19  H4  UNL     1      73.888  73.926  62.592  1.00  0.00     0.165 HD
ENDBRANCH   5   9
BRANCH   4  20
HETATM   20  N3  UNL     1      75.952  74.720  60.903  1.00  0.00    -0.094 N 
HETATM   21  O2  UNL     1      75.821  73.744  60.145  1.00  0.00    -0.530 OA
HETATM   22  O3  UNL     1      77.049  74.762  61.723  1.00  0.00    -0.530 OA
ENDBRANCH   4  20
BRANCH   8  23
HETATM   23  C7  UNL     1      72.069  78.732  60.852  1.00  0.00     0.307 C 
BRANCH  23  24
HETATM   24  O4  UNL     1      70.868  78.483  60.251  1.00  0.00    -0.366 OA
ATOM     25  H4  UNL     1      70.188  78.110  60.800  1.00  0.00     0.213 HD
ENDBRANCH  23  24
BRANCH  23  26
HETATM   26  O5  UNL     1      71.915  79.212  62.171  1.00  0.00    -0.366 OA
ATOM     27  H5  UNL     1      72.756  79.436  62.552  1.00  0.00     0.213 HD
ENDBRANCH  23  26
ENDBRANCH   8  23
BRANCH   1  28
HETATM   28  C1  UNL     1      74.030  78.510  58.657  1.00  0.00     0.283 C 
HETATM   29  N1  UNL     1      73.480  77.994  57.419  1.00  0.00    -0.056 NA
HETATM   30  O1  UNL     1      74.454  79.658  58.583  1.00  0.00    -0.269 OA
ENDBRANCH   1  28
TORSDOF 6
ENDMDL
MODEL 2
REMARK VINA RESULT: -5.205908617      2.068      2.321
REMARK  6 active torsions:
REMARK  status: ('A' for Active; 'I' for Inactive)
REMARK    1  A    between atoms: C1_2  and  C2_4 
REMARK    2  A    between atoms: C3_7  and  N3_8 
REMARK    3  A    between atoms: C4_11  and  N4_12 
REMARK       I    between atoms: N4_12  and  C5_14 
REMARK       I    between atoms: C5_14  and  N5_15 
REMARK       I    between atoms: C5_14  and  N6_19 
REMARK    4  A    between atoms: C6_25  and  C7_26 
REMARK    5  A    between atoms: C7_26  and  O4_27 
REMARK    6  A    between atoms: C7_26  and  O5_29 
ROOT
HETATM    1  C2  UNL     1      74.856  77.016  59.380  1.00  0.00     0.127 A 
HETATM    2  N2  UNL     1      75.811  76.931  60.369  1.00  0.00    -0.329 N 
ATOM      3  H2  UNL     1      76.587  77.593  60.376  1.00  0.00     0.168 HD
HETATM    4  C3  UNL     1      75.737  75.993  61.319  1.00  0.00     0.218 A 
HETATM    5  C4  UNL     1      74.718  75.067  61.369  1.00  0.00     0.155 A 
HETATM    6  N7  UNL     1      73.794  75.151  60.414  1.00  0.00    -0.337 N 
ATOM      7  H7  UNL     1      73.023  74.482  60.418  1.00  0.00     0.167 HD
HETATM    8  C6  UNL     1      73.836  76.108  59.416  1.00  0.00     0.098 A 
ENDROOT
BRANCH   5   9
HETATM    9  N4  UNL     1      74.655  74.170  62.282  1.00  0.00    -0.324 N 
HETATM   10  C5  UNL     1      73.761  74.167  63.389  1.00  0.00     0.481 C 
HETATM   11  N5  UNL     1      73.902  72.876  64.064  1.00  0.00    -0.033 N 
HETATM   12  N6  UNL     1      74.069  75.177  64.383  1.00  0.00    -0.033 N 
ATOM     13  H53 UNL     1      73.764  72.082  63.439  1.00  0.00     0.278 HD
ATOM     14  H52 UNL     1      74.865  72.670  64.330  1.00  0.00     0.278 HD
ATOM     15  H51 UNL     1      73.261  72.874  64.857  1.00  0.00     0.278 HD
ATOM     16  H63 UNL     1      75.035  75.090  64.699  1.00  0.00     0.278 HD
ATOM     17  H62 UNL     1      74.113  76.103  63.957  1.00  0.00     0.278 HD
ATOM     18  H61 UNL     1      73.428  75.174  65.176  1.00  0.00     0.278 HD
ATOM     19  H4  UNL     1      75.305  73.388  62.208  1.00  0.00     0.165 HD
ENDBRANCH   5   9
BRANCH   4  20
HETATM   20  N3  UNL     1      76.742  75.941  62.319  1.00  0.00    -0.094 N 
HETATM   21  O2  UNL     1      76.578  76.619  63.347  1.00  0.00    -0.530 OA
HETATM   22  O3  UNL     1      77.881  75.188  62.213  1.00  0.00    -0.530 OA
ENDBRANCH   4  20
BRANCH   8  23
HETATM   23  C7  UNL     1      72.721  76.175  58.450  1.00  0.00     0.307 C 
BRANCH  23  24
HETATM   24  O4  UNL     1      71.936  75.063  58.347  1.00  0.00    -0.366 OA
ATOM     25  H4  UNL     1      71.699  74.791  57.468  1.00  0.00     0.213 HD
ENDBRANCH  23  24
BRANCH  23  26
HETATM   26  O5  UNL     1      71.960  77.350  58.637  1.00  0.00    -0.366 OA
ATOM     27  H5  UNL     1      71.030  77.157  58.632  1.00  0.00     0.213 HD
ENDBRANCH  23  26
ENDBRANCH   8  23
BRANCH   1  28
HETATM   28  C1  UNL     1      75.015  78.032  58.350  1.00  0.00     0.283 C 
HETATM   29  N1  UNL     1      74.342  79.293  58.588  1.00  0.00    -0.056 NA
HETATM   30  O1  UNL     1      75.639  77.981  57.297  1.00  0.00    -0.269 OA
ENDBRANCH   1  28
TORSDOF 6
ENDMDL
MODEL 3
REMARK VINA RESULT: -5.183398086      5.958      8.228
REMARK  6 active torsions:
REMARK  status: ('A' for Active; 'I' for Inactive)
REMARK    1  A    between atoms: C1_2  and  C2_4 
REMARK    2  A    between atoms: C3_7  and  N3_8 
REMARK    3  A    between atoms: C4_11  and  N4_12 
REMARK       I    between atoms: N4_12  and  C5_14 
REMARK       I    between atoms: C5_14  and  N5_15 
REMARK       I    between atoms: C5_14  and  N6_19 
REMARK    4  A    between atoms: C6_25  and  C7_26 
REMARK    5  A    between atoms: C7_26  and  O4_27 
REMARK    6  A    between atoms: C7_26  and  O5_29 
ROOT
HETATM    1  C2  UNL     1      68.643  83.790  62.291  1.00  0.00     0.127 A 
HETATM    2  N2  UNL     1      68.397  82.654  63.030  1.00  0.00    -0.329 N 
ATOM      3  H2  UNL     1      67.566  82.608  63.620  1.00  0.00     0.168 HD
HETATM    4  C3  UNL     1      69.232  81.610  62.986  1.00  0.00     0.218 A 
HETATM    5  C4  UNL     1      70.371  81.604  62.211  1.00  0.00     0.155 A 
HETATM    6  N7  UNL     1      70.608  82.702  61.496  1.00  0.00    -0.337 N 
ATOM      7  H7  UNL     1      71.442  82.734  60.910  1.00  0.00     0.167 HD
HETATM    8  C6  UNL     1      69.767  83.800  61.514  1.00  0.00     0.098 A 
ENDROOT
BRANCH   5   9
HETATM    9  N4  UNL     1      71.167  80.600  62.176  1.00  0.00    -0.324 N 
HETATM   10  C5  UNL     1      71.027  79.453  61.346  1.00  0.00     0.481 C 
HETATM   11  N5  UNL     1      72.245  78.654  61.491  1.00  0.00    -0.033 N 
HETATM   12  N6  UNL     1      69.930  78.587  61.738  1.00  0.00    -0.033 N 
ATOM     13  H53 UNL     1      73.094  79.184  61.295  1.00  0.00     0.278 HD
ATOM     14  H52 UNL     1      72.454  78.420  62.461  1.00  0.00     0.278 HD
ATOM     15  H51 UNL     1      72.144  77.832  60.896  1.00  0.00     0.278 HD
ATOM     16  H63 UNL     1      70.016  78.316  62.718  1.00  0.00     0.278 HD
ATOM     17  H62 UNL     1      69.055  79.110  61.783  1.00  0.00     0.278 HD
ATOM     18  H61 UNL     1      69.830  77.765  61.143  1.00  0.00     0.278 HD
ATOM     19  H4  UNL     1      71.974  80.626  62.800  1.00  0.00     0.165 HD
ENDBRANCH   5   9
BRANCH   4  20
HETATM   20  N3  UNL     1      68.941  80.459  63.763  1.00  0.00    -0.094 N 
HETATM   21  O2  UNL     1      67.851  79.891  63.579  1.00  0.00    -0.530 OA
HETATM   22  O3  UNL     1      69.793  79.941  64.702  1.00  0.00    -0.530 OA
ENDBRANCH   4  20
BRANCH   8  23
HETATM   23  C7  UNL     1      70.067  84.938  60.623  1.00  0.00     0.307 C 
BRANCH  23  24
HETATM   24  O4  UNL     1      71.192  84.832  59.856  1.00  0.00    -0.366 OA
ATOM     25  H4  UNL     1      71.183  85.289  59.023  1.00  0.00     0.213 HD
ENDBRANCH  23  24
BRANCH  23  26
HETATM   26  O5  UNL     1      68.934  85.295  59.859  1.00  0.00    -0.366 OA
ATOM     27  H5  UNL     1      68.777  86.231  59.901  1.00  0.00     0.213 HD
ENDBRANCH  23  26
ENDBRANCH   8  23
BRANCH   1  28
HETATM   28  C1  UNL     1      67.720  84.908  62.414  1.00  0.00     0.283 C 
HETATM   29  N1  UNL     1      67.791  85.662  63.650  1.00  0.00    -0.056 NA
HETATM   30  O1  UNL     1      66.879  85.315  61.620  1.00  0.00    -0.269 OA
ENDBRANCH   1  28
TORSDOF 6
ENDMDL
MODEL 4
REMARK VINA RESULT: -5.077288454      1.925      4.301
REMARK  6 active torsions:
REMARK  status: ('A' for Active; 'I' for Inactive)
REMARK    1  A    between atoms: C1_2  and  C2_4 
REMARK    2  A    between atoms: C3_7  and  N3_8 
REMARK    3  A    between atoms: C4_11  and  N4_12 
REMARK       I    between atoms: N4_12  and  C5_14 
REMARK       I    between atoms: C5_14  and  N5_15 
REMARK       I    between atoms: C5_14  and  N6_19 
REMARK    4  A    between atoms: C6_25  and  C7_26 
REMARK    5  A    between atoms: C7_26  and  O4_27 
REMARK    6  A    between atoms: C7_26  and  O5_29 
ROOT
HETATM    1  C2  UNL     1      75.825  76.377  60.305  1.00  0.00     0.127 A 
HETATM    2  N2  UNL     1      74.573  76.951  60.366  1.00  0.00    -0.329 N 
ATOM      3  H2  UNL     1      74.290  77.618  59.649  1.00  0.00     0.168 HD
HETATM    4  C3  UNL     1      73.724  76.645  61.353  1.00  0.00     0.218 A 
HETATM    5  C4  UNL     1      74.041  75.753  62.354  1.00  0.00     0.155 A 
HETATM    6  N7  UNL     1      75.250  75.198  62.294  1.00  0.00    -0.337 N 
ATOM      7  H7  UNL     1      75.520  74.533  63.018  1.00  0.00     0.167 HD
HETATM    8  C6  UNL     1      76.154  75.488  61.288  1.00  0.00     0.098 A 
ENDROOT
BRANCH   5   9
HETATM    9  N4  UNL     1      73.222  75.467  63.298  1.00  0.00    -0.324 N 
HETATM   10  C5  UNL     1      73.452  74.536  64.349  1.00  0.00     0.481 C 
HETATM   11  N5  UNL     1      72.346  74.663  65.298  1.00  0.00    -0.033 N 
HETATM   12  N6  UNL     1      73.447  73.154  63.908  1.00  0.00    -0.033 N 
ATOM     13  H53 UNL     1      72.216  75.617  65.634  1.00  0.00     0.278 HD
ATOM     14  H52 UNL     1      71.431  74.550  64.861  1.00  0.00     0.278 HD
ATOM     15  H51 UNL     1      72.511  73.995  66.052  1.00  0.00     0.278 HD
ATOM     16  H63 UNL     1      72.582  72.936  63.415  1.00  0.00     0.278 HD
ATOM     17  H62 UNL     1      74.115  73.014  63.148  1.00  0.00     0.278 HD
ATOM     18  H61 UNL     1      73.612  72.487  64.661  1.00  0.00     0.278 HD
ATOM     19  H4  UNL     1      72.324  75.951  63.295  1.00  0.00     0.165 HD
ENDBRANCH   5   9
BRANCH   4  20
HETATM   20  N3  UNL     1      72.445  77.258  61.378  1.00  0.00    -0.094 N 
HETATM   21  O2  UNL     1      72.105  77.939  60.397  1.00  0.00    -0.530 OA
HETATM   22  O3  UNL     1      71.566  77.140  62.423  1.00  0.00    -0.530 OA
ENDBRANCH   4  20
BRANCH   8  23
HETATM   23  C7  UNL     1      77.438  74.760  61.257  1.00  0.00     0.307 C 
BRANCH  23  24
HETATM   24  O4  UNL     1      78.067  74.582  62.455  1.00  0.00    -0.366 OA
ATOM     25  H4  UNL     1      78.986  74.823  62.492  1.00  0.00     0.213 HD
ENDBRANCH  23  24
BRANCH  23  26
HETATM   26  O5  UNL     1      77.318  73.552  60.534  1.00  0.00    -0.366 OA
ATOM     27  H5  UNL     1      77.443  73.699  59.604  1.00  0.00     0.213 HD
ENDBRANCH  23  26
ENDBRANCH   8  23
BRANCH   1  28
HETATM   28  C1  UNL     1      76.718  76.782  59.231  1.00  0.00     0.283 C 
HETATM   29  N1  UNL     1      76.236  76.565  57.881  1.00  0.00    -0.056 NA
HETATM   30  O1  UNL     1      77.834  77.286  59.295  1.00  0.00    -0.269 OA
ENDBRANCH   1  28
TORSDOF 6
ENDMDL
MODEL 5
REMARK VINA RESULT: -4.829334612      2.048      4.010
REMARK  6 active torsions:
REMARK  status: ('A' for Active; 'I' for Inactive)
REMARK    1  A    between atoms: C1_2  and  C2_4 
REMARK    2  A    between atoms: C3_7  and  N3_8 
REMARK    3  A    between atoms: C4_11  and  N4_12 
REMARK       I    between atoms: N4_12  and  C5_14 
REMARK       I    between atoms: C5_14  and  N5_15 
REMARK       I    between atoms: C5_14  and  N6_19 
REMARK    4  A    between atoms: C6_25  and  C7_26 
REMARK    5  A    between atoms: C7_26  and  O4_27 
REMARK    6  A    between atoms: C7_26  and  O5_29 
ROOT
HETATM    1  C2  UNL     1      73.331  76.580  58.600  1.00  0.00     0.127 A 
HETATM    2  N2  UNL     1      72.553  77.016  59.650  1.00  0.00    -0.329 N 
ATOM      3  H2  UNL     1      71.623  77.392  59.464  1.00  0.00     0.168 HD
HETATM    4  C3  UNL     1      72.999  76.954  60.909  1.00  0.00     0.218 A 
HETATM    5  C4  UNL     1      74.243  76.459  61.232  1.00  0.00     0.155 A 
HETATM    6  N7  UNL     1      74.995  76.036  60.217  1.00  0.00    -0.337 N 
ATOM      7  H7  UNL     1      75.923  75.663  60.417  1.00  0.00     0.167 HD
HETATM    8  C6  UNL     1      74.567  76.083  58.902  1.00  0.00     0.098 A 
ENDROOT
BRANCH   5   9
HETATM    9  N4  UNL     1      74.664  76.405  62.441  1.00  0.00    -0.324 N 
HETATM   10  C5  UNL     1      75.011  75.222  63.152  1.00  0.00     0.481 C 
HETATM   11  N5  UNL     1      75.614  75.633  64.421  1.00  0.00    -0.033 N 
HETATM   12  N6  UNL     1      73.867  74.400  63.498  1.00  0.00    -0.033 N 
ATOM     13  H53 UNL     1      76.402  76.269  64.299  1.00  0.00     0.278 HD
ATOM     14  H52 UNL     1      75.018  76.260  64.960  1.00  0.00     0.278 HD
ATOM     15  H51 UNL     1      75.863  74.785  64.930  1.00  0.00     0.278 HD
ATOM     16  H63 UNL     1      73.175  74.943  64.016  1.00  0.00     0.278 HD
ATOM     17  H62 UNL     1      73.318  74.175  62.668  1.00  0.00     0.278 HD
ATOM     18  H61 UNL     1      74.115  73.552  64.008  1.00  0.00     0.278 HD
ATOM     19  H4  UNL     1      74.758  77.290  62.939  1.00  0.00     0.165 HD
ENDBRANCH   5   9
BRANCH   4  20
HETATM   20  N3  UNL     1      72.165  77.413  61.960  1.00  0.00    -0.094 N 
HETATM   21  O2  UNL     1      71.753  78.584  61.910  1.00  0.00    -0.530 OA
HETATM   22  O3  UNL     1      71.789  76.639  63.026  1.00  0.00    -0.530 OA
ENDBRANCH   4  20
BRANCH   8  23
HETATM   23  C7  UNL     1      75.436  75.513  57.853  1.00  0.00     0.307 C 
BRANCH  23  24
HETATM   24  O4  UNL     1      76.780  75.699  58.007  1.00  0.00    -0.366 OA
ATOM     25  H4  UNL     1      77.229  76.155  57.305  1.00  0.00     0.213 HD
ENDBRANCH  23  24
BRANCH  23  26
HETATM   26  O5  UNL     1      75.110  74.162  57.604  1.00  0.00    -0.366 OA
ATOM     27  H5  UNL     1      74.653  74.069  56.776  1.00  0.00     0.213 HD
ENDBRANCH  23  26
ENDBRANCH   8  23
BRANCH   1  28
HETATM   28  C1  UNL     1      72.807  76.713  57.249  1.00  0.00     0.283 C 
HETATM   29  N1  UNL     1      72.350  75.491  56.618  1.00  0.00    -0.056 NA
HETATM   30  O1  UNL     1      72.693  77.715  56.553  1.00  0.00    -0.269 OA
ENDBRANCH   1  28
TORSDOF 6
ENDMDL
