MODEL 1
REMARK VINA RESULT: -7.904388722      0.000      0.000
REMARK  8 active torsions:
REMARK  status: ('A' for Active; 'I' for Inactive)
REMARK    1  A    between atoms: N1_1  and  C1_4 
REMARK    2  A    between atoms: C2_7  and  C3_8 
REMARK    3  A    between atoms: C3_8  and  C4_10 
REMARK    4  A    between atoms: C4_10  and  O2_11 
REMARK    5  A    between atoms: C4_10  and  C5_13 
REMARK    6  A    between atoms: C6_18  and  N5_19 
REMARK    7  A    between atoms: N5_19  and  N6_21 
REMARK    8  A    between atoms: C7_24  and  N7_25 
ROOT
HETATM    1  C1  UNL     1      68.205  84.830  63.176  1.00  0.00     0.138 A 
HETATM    2  N2  UNL     1      68.630  83.554  63.337  1.00  0.00    -0.324 N 
ATOM      3  H2  UNL     1      68.713  83.177  64.281  1.00  0.00     0.169 HD
HETATM    4  C2  UNL     1      68.945  82.769  62.295  1.00  0.00     0.158 A 
HETATM    5  N4  UNL     1      68.826  83.292  61.069  1.00  0.00    -0.322 N 
ATOM      6  H4  UNL     1      69.063  82.708  60.268  1.00  0.00     0.169 HD
HETATM    7  C6  UNL     1      68.410  84.551  60.840  1.00  0.00     0.158 A 
HETATM    8  C7  UNL     1      68.089  85.350  61.904  1.00  0.00     0.191 A 
ENDROOT
BRANCH   4   9
HETATM    9  C3  UNL     1      69.402  81.430  62.531  1.00  0.00     0.230 C 
HETATM   10  O1  UNL     1      68.597  80.623  63.119  1.00  0.00    -0.286 OA
BRANCH   9  11
HETATM   11  C4  UNL     1      70.715  80.857  62.174  1.00  0.00     0.284 C 
BRANCH  11  12
HETATM   12  O2  UNL     1      71.568  80.955  63.304  1.00  0.00    -0.379 OA
ATOM     13  H2  UNL     1      72.099  80.168  63.348  1.00  0.00     0.211 HD
ENDBRANCH  11  12
BRANCH  11  14
HETATM   14  C5  UNL     1      70.706  79.465  61.741  1.00  0.00     0.267 C 
HETATM   15  N3  UNL     1      71.058  78.320  62.477  1.00  0.00    -0.059 NA
HETATM   16  O3  UNL     1      70.332  79.232  60.537  1.00  0.00    -0.273 OA
ENDBRANCH  11  14
ENDBRANCH   9  11
ENDBRANCH   4   9
BRANCH   1  17
HETATM   17  N1  UNL     1      67.898  85.594  64.163  1.00  0.00    -0.383 N 
ATOM     18  H12 UNL     1      67.127  86.250  64.033  1.00  0.00     0.157 HD
ATOM     19  H11 UNL     1      68.388  85.567  65.057  1.00  0.00     0.157 HD
ENDBRANCH   1  17
BRANCH   7  20
HETATM   20  N5  UNL     1      68.308  85.040  59.501  1.00  0.00    -0.290 N 
ATOM     21  H5  UNL     1      69.139  85.380  59.017  1.00  0.00     0.188 HD
BRANCH  20  22
HETATM   22  N6  UNL     1      67.077  85.049  58.860  1.00  0.00    -0.344 N 
ATOM     23  H62 UNL     1      66.681  84.169  58.532  1.00  0.00     0.176 HD
ATOM     24  H61 UNL     1      66.583  85.931  58.726  1.00  0.00     0.176 HD
ENDBRANCH  20  22
ENDBRANCH   7  20
BRANCH   8  25
HETATM   25  N7  UNL     1      67.645  86.688  61.672  1.00  0.00    -0.108 N 
HETATM   26  O4  UNL     1      68.316  87.689  61.996  1.00  0.00    -0.531 OA
HETATM   27  O5  UNL     1      66.427  86.922  61.064  1.00  0.00    -0.531 OA
ENDBRANCH   8  25
TORSDOF 8
ENDMDL
MODEL 2
REMARK VINA RESULT: -7.890478141      1.431      1.862
REMARK  8 active torsions:
REMARK  status: ('A' for Active; 'I' for Inactive)
REMARK    1  A    between atoms: N1_1  and  C1_4 
REMARK    2  A    between atoms: C2_7  and  C3_8 
REMARK    3  A    between atoms: C3_8  and  C4_10 
REMARK    4  A    between atoms: C4_10  and  O2_11 
REMARK    5  A    between atoms: C4_10  and  C5_13 
REMARK    6  A    between atoms: C6_18  and  N5_19 
REMARK    7  A    between atoms: N5_19  and  N6_21 
REMARK    8  A    between atoms: C7_24  and  N7_25 
ROOT
HETATM    1  C1  UNL     1      70.057  84.347  63.479  1.00  0.00     0.138 A 
HETATM    2  N2  UNL     1      70.599  83.128  63.243  1.00  0.00    -0.324 N 
ATOM      3  H2  UNL     1      71.346  82.794  63.851  1.00  0.00     0.169 HD
HETATM    4  C2  UNL     1      70.185  82.346  62.234  1.00  0.00     0.158 A 
HETATM    5  N4  UNL     1      69.204  82.813  61.453  1.00  0.00    -0.322 N 
ATOM      6  H4  UNL     1      68.879  82.230  60.682  1.00  0.00     0.169 HD
HETATM    7  C6  UNL     1      68.623  84.012  61.633  1.00  0.00     0.158 A 
HETATM    8  C7  UNL     1      69.047  84.809  62.663  1.00  0.00     0.191 A 
ENDROOT
BRANCH   4   9
HETATM    9  C3  UNL     1      70.808  81.070  62.026  1.00  0.00     0.230 C 
HETATM   10  O1  UNL     1      71.882  81.042  61.325  1.00  0.00    -0.286 OA
BRANCH   9  11
HETATM   11  C4  UNL     1      70.353  79.760  62.530  1.00  0.00     0.284 C 
BRANCH  11  12
HETATM   12  O2  UNL     1      68.936  79.718  62.453  1.00  0.00    -0.379 OA
ATOM     13  H2  UNL     1      68.678  78.855  62.152  1.00  0.00     0.211 HD
ENDBRANCH  11  12
BRANCH  11  14
HETATM   14  C5  UNL     1      70.872  78.592  61.828  1.00  0.00     0.267 C 
HETATM   15  N3  UNL     1      71.449  77.432  62.373  1.00  0.00    -0.059 NA
HETATM   16  O3  UNL     1      70.802  78.602  60.548  1.00  0.00    -0.273 OA
ENDBRANCH  11  14
ENDBRANCH   9  11
ENDBRANCH   4   9
BRANCH   1  17
HETATM   17  N1  UNL     1      70.442  85.107  64.441  1.00  0.00    -0.383 N 
ATOM     18  H12 UNL     1      69.735  85.427  65.104  1.00  0.00     0.157 HD
ATOM     19  H11 UNL     1      71.412  85.397  64.564  1.00  0.00     0.157 HD
ENDBRANCH   1  17
BRANCH   7  20
HETATM   20  N5  UNL     1      67.579  84.443  60.757  1.00  0.00    -0.290 N 
ATOM     21  H5  UNL     1      66.606  84.229  60.977  1.00  0.00     0.188 HD
BRANCH  20  22
HETATM   22  N6  UNL     1      67.893  85.152  59.606  1.00  0.00    -0.344 N 
ATOM     23  H62 UNL     1      68.587  85.898  59.656  1.00  0.00     0.176 HD
ATOM     24  H61 UNL     1      67.430  84.923  58.726  1.00  0.00     0.176 HD
ENDBRANCH  20  22
ENDBRANCH   7  20
BRANCH   8  25
HETATM   25  N7  UNL     1      68.436  86.085  62.864  1.00  0.00    -0.108 N 
HETATM   26  O4  UNL     1      68.614  87.050  62.091  1.00  0.00    -0.531 OA
HETATM   27  O5  UNL     1      67.608  86.297  63.948  1.00  0.00    -0.531 OA
ENDBRANCH   8  25
TORSDOF 8
ENDMDL
MODEL 3
REMARK VINA RESULT: -7.842831633      0.813      2.614
REMARK  8 active torsions:
REMARK  status: ('A' for Active; 'I' for Inactive)
REMARK    1  A    between atoms: N1_1  and  C1_4 
REMARK    2  A    between atoms: C2_7  and  C3_8 
REMARK    3  A    between atoms: C3_8  and  C4_10 
REMARK    4  A    between atoms: C4_10  and  O2_11 
REMARK    5  A    between atoms: C4_10  and  C5_13 
REMARK    6  A    between atoms: C6_18  and  N5_19 
REMARK    7  A    between atoms: N5_19  and  N6_21 
REMARK    8  A    between atoms: C7_24  and  N7_25 
ROOT
HETATM    1  C1  UNL     1      68.736  84.024  60.923  1.00  0.00     0.138 A 
HETATM    2  N2  UNL     1      69.408  82.891  61.241  1.00  0.00    -0.324 N 
ATOM      3  H2  UNL     1      69.562  82.189  60.517  1.00  0.00     0.169 HD
HETATM    4  C2  UNL     1      69.877  82.661  62.478  1.00  0.00     0.158 A 
HETATM    5  N4  UNL     1      69.658  83.601  63.405  1.00  0.00    -0.322 N 
ATOM      6  H4  UNL     1      70.008  83.440  64.350  1.00  0.00     0.169 HD
HETATM    7  C6  UNL     1      69.000  84.747  63.156  1.00  0.00     0.158 A 
HETATM    8  C7  UNL     1      68.523  84.979  61.894  1.00  0.00     0.191 A 
ENDROOT
BRANCH   4   9
HETATM    9  C3  UNL     1      70.568  81.435  62.756  1.00  0.00     0.230 C 
HETATM   10  O1  UNL     1      71.843  81.489  62.881  1.00  0.00    -0.286 OA
BRANCH   9  11
HETATM   11  C4  UNL     1      69.978  80.093  62.917  1.00  0.00     0.284 C 
BRANCH  11  12
HETATM   12  O2  UNL     1      68.578  80.190  62.697  1.00  0.00    -0.379 OA
ATOM     13  H2  UNL     1      68.147  79.522  63.218  1.00  0.00     0.211 HD
ENDBRANCH  11  12
BRANCH  11  14
HETATM   14  C5  UNL     1      70.497  79.058  62.030  1.00  0.00     0.267 C 
HETATM   15  N3  UNL     1      71.199  77.888  62.372  1.00  0.00    -0.059 NA
HETATM   16  O3  UNL     1      70.299  79.213  60.774  1.00  0.00    -0.273 OA
ENDBRANCH  11  14
ENDBRANCH   9  11
ENDBRANCH   4   9
BRANCH   1  17
HETATM   17  N1  UNL     1      68.282  84.259  59.744  1.00  0.00    -0.383 N 
ATOM     18  H12 UNL     1      68.360  83.516  59.050  1.00  0.00     0.157 HD
ATOM     19  H11 UNL     1      67.853  85.146  59.483  1.00  0.00     0.157 HD
ENDBRANCH   1  17
BRANCH   7  20
HETATM   20  N5  UNL     1      68.805  85.704  64.200  1.00  0.00    -0.290 N 
ATOM     21  H5  UNL     1      69.602  86.216  64.579  1.00  0.00     0.188 HD
BRANCH  20  22
HETATM   22  N6  UNL     1      67.530  85.933  64.696  1.00  0.00    -0.344 N 
ATOM     23  H62 UNL     1      67.140  85.286  65.381  1.00  0.00     0.176 HD
ATOM     24  H61 UNL     1      66.998  86.742  64.374  1.00  0.00     0.176 HD
ENDBRANCH  20  22
ENDBRANCH   7  20
BRANCH   8  25
HETATM   25  N7  UNL     1      67.823  86.194  61.618  1.00  0.00    -0.108 N 
HETATM   26  O4  UNL     1      68.267  87.318  61.932  1.00  0.00    -0.531 OA
HETATM   27  O5  UNL     1      66.600  86.162  60.976  1.00  0.00    -0.531 OA
ENDBRANCH   8  25
TORSDOF 8
ENDMDL
MODEL 4
REMARK VINA RESULT: -7.745910045      0.907      2.432
REMARK  8 active torsions:
REMARK  status: ('A' for Active; 'I' for Inactive)
REMARK    1  A    between atoms: N1_1  and  C1_4 
REMARK    2  A    between atoms: C2_7  and  C3_8 
REMARK    3  A    between atoms: C3_8  and  C4_10 
REMARK    4  A    between atoms: C4_10  and  O2_11 
REMARK    5  A    between atoms: C4_10  and  C5_13 
REMARK    6  A    between atoms: C6_18  and  N5_19 
REMARK    7  A    between atoms: N5_19  and  N6_21 
REMARK    8  A    between atoms: C7_24  and  N7_25 
ROOT
HETATM    1  C1  UNL     1      68.693  84.087  60.952  1.00  0.00     0.138 A 
HETATM    2  N2  UNL     1      69.350  82.955  61.301  1.00  0.00    -0.324 N 
ATOM      3  H2  UNL     1      69.508  82.238  60.594  1.00  0.00     0.169 HD
HETATM    4  C2  UNL     1      69.800  82.746  62.549  1.00  0.00     0.158 A 
HETATM    5  N4  UNL     1      69.575  83.705  63.454  1.00  0.00    -0.322 N 
ATOM      6  H4  UNL     1      69.910  83.560  64.407  1.00  0.00     0.169 HD
HETATM    7  C6  UNL     1      68.931  84.852  63.173  1.00  0.00     0.158 A 
HETATM    8  C7  UNL     1      68.474  85.063  61.900  1.00  0.00     0.191 A 
ENDROOT
BRANCH   4   9
HETATM    9  C3  UNL     1      70.476  81.520  62.861  1.00  0.00     0.230 C 
HETATM   10  O1  UNL     1      70.295  81.023  64.029  1.00  0.00    -0.286 OA
BRANCH   9  11
HETATM   11  C4  UNL     1      71.376  80.747  61.983  1.00  0.00     0.284 C 
BRANCH  11  12
HETATM   12  O2  UNL     1      72.658  80.694  62.591  1.00  0.00    -0.379 OA
ATOM     13  H2  UNL     1      72.872  81.561  62.914  1.00  0.00     0.211 HD
ENDBRANCH  11  12
BRANCH  11  14
HETATM   14  C5  UNL     1      70.963  79.379  61.694  1.00  0.00     0.267 C 
HETATM   15  N3  UNL     1      71.173  78.223  62.467  1.00  0.00    -0.059 NA
HETATM   16  O3  UNL     1      70.325  79.181  60.600  1.00  0.00    -0.273 OA
ENDBRANCH  11  14
ENDBRANCH   9  11
ENDBRANCH   4   9
BRANCH   1  17
HETATM   17  N1  UNL     1      68.258  84.302  59.762  1.00  0.00    -0.383 N 
ATOM     18  H12 UNL     1      67.436  83.781  59.456  1.00  0.00     0.157 HD
ATOM     19  H11 UNL     1      68.697  84.966  59.123  1.00  0.00     0.157 HD
ENDBRANCH   1  17
BRANCH   7  20
HETATM   20  N5  UNL     1      68.729  85.830  64.195  1.00  0.00    -0.290 N 
ATOM     21  H5  UNL     1      69.503  86.425  64.494  1.00  0.00     0.188 HD
BRANCH  20  22
HETATM   22  N6  UNL     1      67.478  85.970  64.780  1.00  0.00    -0.344 N 
ATOM     23  H62 UNL     1      67.211  86.873  65.170  1.00  0.00     0.176 HD
ATOM     24  H61 UNL     1      66.842  85.173  64.814  1.00  0.00     0.176 HD
ENDBRANCH  20  22
ENDBRANCH   7  20
BRANCH   8  25
HETATM   25  N7  UNL     1      67.788  86.277  61.590  1.00  0.00    -0.108 N 
HETATM   26  O4  UNL     1      68.221  87.402  61.917  1.00  0.00    -0.531 OA
HETATM   27  O5  UNL     1      66.593  86.245  60.900  1.00  0.00    -0.531 OA
ENDBRANCH   8  25
TORSDOF 8
ENDMDL
MODEL 5
REMARK VINA RESULT: -7.639221121      0.591      1.192
REMARK  8 active torsions:
REMARK  status: ('A' for Active; 'I' for Inactive)
REMARK    1  A    between atoms: N1_1  and  C1_4 
REMARK    2  A    between atoms: C2_7  and  C3_8 
REMARK    3  A    between atoms: C3_8  and  C4_10 
REMARK    4  A    between atoms: C4_10  and  O2_11 
REMARK    5  A    between atoms: C4_10  and  C5_13 
REMARK    6  A    between atoms: C6_18  and  N5_19 
REMARK    7  A    between atoms: N5_19  and  N6_21 
REMARK    8  A    between atoms: C7_24  and  N7_25 
ROOT
HETATM    1  C1  UNL     1      68.288  84.985  63.221  1.00  0.00     0.138 A 
HETATM    2  N2  UNL     1      68.960  83.834  63.468  1.00  0.00    -0.324 N 
ATOM      3  H2  UNL     1      69.099  83.542  64.435  1.00  0.00     0.169 HD
HETATM    4  C2  UNL     1      69.448  83.066  62.481  1.00  0.00     0.158 A 
HETATM    5  N4  UNL     1      69.249  83.477  61.223  1.00  0.00    -0.322 N 
ATOM      6  H4  UNL     1      69.615  82.904  60.463  1.00  0.00     0.169 HD
HETATM    7  C6  UNL     1      68.591  84.607  60.910  1.00  0.00     0.158 A 
HETATM    8  C7  UNL     1      68.093  85.389  61.918  1.00  0.00     0.191 A 
ENDROOT
BRANCH   4   9
HETATM    9  C3  UNL     1      70.163  81.866  62.807  1.00  0.00     0.230 C 
HETATM   10  O1  UNL     1      71.425  81.964  63.011  1.00  0.00    -0.286 OA
BRANCH   9  11
HETATM   11  C4  UNL     1      69.611  80.504  62.936  1.00  0.00     0.284 C 
BRANCH  11  12
HETATM   12  O2  UNL     1      68.210  80.565  62.716  1.00  0.00    -0.379 OA
ATOM     13  H2  UNL     1      67.807  79.816  63.140  1.00  0.00     0.211 HD
ENDBRANCH  11  12
BRANCH  11  14
HETATM   14  C5  UNL     1      70.161  79.504  62.029  1.00  0.00     0.267 C 
HETATM   15  N3  UNL     1      70.643  78.219  62.335  1.00  0.00    -0.059 NA
HETATM   16  O3  UNL     1      70.222  79.815  60.787  1.00  0.00    -0.273 OA
ENDBRANCH  11  14
ENDBRANCH   9  11
ENDBRANCH   4   9
BRANCH   1  17
HETATM   17  N1  UNL     1      67.813  85.730  64.154  1.00  0.00    -0.383 N 
ATOM     18  H12 UNL     1      67.244  85.284  64.874  1.00  0.00     0.157 HD
ATOM     19  H11 UNL     1      67.983  86.735  64.201  1.00  0.00     0.157 HD
ENDBRANCH   1  17
BRANCH   7  20
HETATM   20  N5  UNL     1      68.418  84.981  59.541  1.00  0.00    -0.290 N 
ATOM     21  H5  UNL     1      69.183  85.424  59.032  1.00  0.00     0.188 HD
BRANCH  20  22
HETATM   22  N6  UNL     1      67.208  84.739  58.906  1.00  0.00    -0.344 N 
ATOM     23  H62 UNL     1      66.369  84.608  59.471  1.00  0.00     0.176 HD
ATOM     24  H61 UNL     1      67.169  84.695  57.888  1.00  0.00     0.176 HD
ENDBRANCH  20  22
ENDBRANCH   7  20
BRANCH   8  25
HETATM   25  N7  UNL     1      67.392  86.592  61.596  1.00  0.00    -0.108 N 
HETATM   26  O4  UNL     1      67.798  87.723  61.934  1.00  0.00    -0.531 OA
HETATM   27  O5  UNL     1      66.212  86.540  60.881  1.00  0.00    -0.531 OA
ENDBRANCH   8  25
TORSDOF 8
ENDMDL
