MODEL 1
REMARK VINA RESULT: -7.833848031      0.000      0.000
REMARK  7 active torsions:
REMARK  status: ('A' for Active; 'I' for Inactive)
REMARK    1  A    between atoms: C1_4  and  C2_6 
REMARK    2  A    between atoms: N5_11  and  C3_12 
REMARK    3  A    between atoms: C3_12  and  C4_13 
REMARK    4  A    between atoms: C4_13  and  N6_14 
REMARK    5  A    between atoms: C4_13  and  C5_18 
REMARK    6  A    between atoms: C6_21  and  N8_22 
REMARK    7  A    between atoms: C7_27  and  N10_28 
ROOT
HETATM    1  C4  UNL     1      66.770  85.768  60.007  1.00  0.00     0.273 C 
ENDROOT
BRANCH   1   2
HETATM    2  C3  UNL     1      67.134  86.505  61.290  1.00  0.00     0.211 C 
BRANCH   2   3
HETATM    3  N5  UNL     1      68.052  85.626  62.018  1.00  0.00    -0.216 N 
HETATM    4  N4  UNL     1      69.094  85.979  62.753  1.00  0.00    -0.224 N 
HETATM    5  N3  UNL     1      69.637  84.875  63.223  1.00  0.00    -0.266 N 
ATOM      6  H4  UNL     1      69.417  86.932  62.924  1.00  0.00     0.210 HD
HETATM    7  C2  UNL     1      68.926  83.800  62.777  1.00  0.00     0.178 A 
ATOM      8  H3  UNL     1      70.459  84.832  63.826  1.00  0.00     0.190 HD
HETATM    9  N12 UNL     1      67.940  84.306  62.024  1.00  0.00    -0.264 N 
ATOM     10  H12 UNL     1      67.223  83.767  61.538  1.00  0.00     0.190 HD
BRANCH   7  11
HETATM   11  C1  UNL     1      69.171  82.405  63.048  1.00  0.00     0.157 C 
HETATM   12  N1  UNL     1      68.258  81.536  62.832  1.00  0.00    -0.385 N 
ATOM     13  H12 UNL     1      68.431  80.549  63.024  1.00  0.00     0.157 HD
ATOM     14  H11 UNL     1      67.355  81.838  62.467  1.00  0.00     0.157 HD
HETATM   15  N2  UNL     1      70.424  81.986  63.554  1.00  0.00    -0.079 NA
ENDBRANCH   7  11
ENDBRANCH   2   3
ENDBRANCH   1   2
BRANCH   1  16
HETATM   16  N6  UNL     1      68.022  85.496  59.324  1.00  0.00    -0.067 N 
ATOM     17  H63 UNL     1      67.985  85.682  58.322  1.00  0.00     0.275 HD
ATOM     18  H62 UNL     1      68.760  86.164  59.549  1.00  0.00     0.275 HD
ATOM     19  H61 UNL     1      68.268  84.532  59.548  1.00  0.00     0.275 HD
ENDBRANCH   1  16
BRANCH   1  20
HETATM   20  C5  UNL     1      65.970  86.684  59.149  1.00  0.00     0.145 A 
HETATM   21  N7  UNL     1      65.099  87.576  59.678  1.00  0.00    -0.178 N 
HETATM   22  C6  UNL     1      64.388  88.392  58.877  1.00  0.00     0.691 A 
ATOM     23  H7  UNL     1      64.982  87.631  60.689  1.00  0.00     0.185 HD
HETATM   24  N9  UNL     1      64.503  88.363  57.537  1.00  0.00    -0.023 N 
HETATM   25  C7  UNL     1      65.368  87.477  57.009  1.00  0.00     0.691 A 
ATOM     26  H9  UNL     1      63.957  88.988  56.945  1.00  0.00     0.203 HD
HETATM   27  N11 UNL     1      66.081  86.660  57.807  1.00  0.00    -0.178 N 
ATOM     28  H11 UNL     1      66.729  85.999  57.379  1.00  0.00     0.185 HD
BRANCH  22  29
HETATM   29  N8  UNL     1      63.543  89.262  59.362  1.00  0.00    -0.234 N 
ATOM     30  H82 UNL     1      62.801  89.567  58.731  1.00  0.00     0.174 HD
ATOM     31  H81 UNL     1      63.624  89.613  60.316  1.00  0.00     0.174 HD
ENDBRANCH  22  29
BRANCH  25  32
HETATM   32  N10 UNL     1      65.485  87.441  55.725  1.00  0.00    -0.234 N 
ATOM     33 2H10 UNL     1      64.945  88.060  55.120  1.00  0.00     0.174 HD
ATOM     34 1H10 UNL     1      66.140  86.769  55.324  1.00  0.00     0.174 HD
ENDBRANCH  25  32
ENDBRANCH   1  20
TORSDOF 7
ENDMDL
MODEL 2
REMARK VINA RESULT: -7.831750344      1.047      2.134
REMARK  7 active torsions:
REMARK  status: ('A' for Active; 'I' for Inactive)
REMARK    1  A    between atoms: C1_4  and  C2_6 
REMARK    2  A    between atoms: N5_11  and  C3_12 
REMARK    3  A    between atoms: C3_12  and  C4_13 
REMARK    4  A    between atoms: C4_13  and  N6_14 
REMARK    5  A    between atoms: C4_13  and  C5_18 
REMARK    6  A    between atoms: C6_21  and  N8_22 
REMARK    7  A    between atoms: C7_27  and  N10_28 
ROOT
HETATM    1  C4  UNL     1      66.999  85.631  60.422  1.00  0.00     0.273 C 
ENDROOT
BRANCH   1   2
HETATM    2  C3  UNL     1      67.765  86.115  61.647  1.00  0.00     0.211 C 
BRANCH   2   3
HETATM    3  N5  UNL     1      68.615  84.997  62.063  1.00  0.00    -0.216 N 
HETATM    4  N4  UNL     1      69.934  84.982  62.165  1.00  0.00    -0.224 N 
HETATM    5  N3  UNL     1      70.285  83.779  62.571  1.00  0.00    -0.266 N 
ATOM      6  H4  UNL     1      70.565  85.759  61.965  1.00  0.00     0.210 HD
HETATM    7  C2  UNL     1      69.165  83.015  62.729  1.00  0.00     0.178 A 
ATOM      8  H3  UNL     1      71.241  83.468  62.741  1.00  0.00     0.190 HD
HETATM    9  N12 UNL     1      68.137  83.810  62.402  1.00  0.00    -0.264 N 
ATOM     10  H12 UNL     1      67.152  83.545  62.412  1.00  0.00     0.190 HD
BRANCH   7  11
HETATM   11  C1  UNL     1      69.087  81.641  63.156  1.00  0.00     0.157 C 
HETATM   12  N1  UNL     1      68.037  80.950  62.921  1.00  0.00    -0.385 N 
ATOM     13  H12 UNL     1      67.982  79.977  63.224  1.00  0.00     0.157 HD
ATOM     14  H11 UNL     1      67.254  81.380  62.428  1.00  0.00     0.157 HD
HETATM   15  N2  UNL     1      70.174  81.043  63.840  1.00  0.00    -0.079 NA
ENDBRANCH   7  11
ENDBRANCH   2   3
ENDBRANCH   1   2
BRANCH   1  16
HETATM   16  N6  UNL     1      67.977  85.493  59.357  1.00  0.00    -0.067 N 
ATOM     17  H63 UNL     1      68.939  85.609  59.674  1.00  0.00     0.275 HD
ATOM     18  H62 UNL     1      68.071  84.536  59.015  1.00  0.00     0.275 HD
ATOM     19  H61 UNL     1      67.708  86.157  58.632  1.00  0.00     0.275 HD
ENDBRANCH   1  16
BRANCH   1  20
HETATM   20  C5  UNL     1      66.034  86.690  60.021  1.00  0.00     0.145 A 
HETATM   21  N7  UNL     1      65.749  86.939  58.720  1.00  0.00    -0.178 N 
HETATM   22  C6  UNL     1      64.872  87.904  58.387  1.00  0.00     0.691 A 
ATOM     23  H7  UNL     1      66.202  86.391  57.989  1.00  0.00     0.185 HD
HETATM   24  N9  UNL     1      64.246  88.656  59.310  1.00  0.00    -0.023 N 
HETATM   25  C7  UNL     1      64.527  88.411  60.603  1.00  0.00     0.691 A 
ATOM     26  H9  UNL     1      63.583  89.383  59.040  1.00  0.00     0.203 HD
HETATM   27  N11 UNL     1      65.403  87.447  60.939  1.00  0.00    -0.178 N 
ATOM     28  H11 UNL     1      65.597  87.283  61.928  1.00  0.00     0.185 HD
BRANCH  22  29
HETATM   29  N8  UNL     1      64.579  88.163  57.140  1.00  0.00    -0.234 N 
ATOM     30  H82 UNL     1      65.346  88.502  56.560  1.00  0.00     0.174 HD
ATOM     31  H81 UNL     1      63.635  88.032  56.774  1.00  0.00     0.174 HD
ENDBRANCH  22  29
BRANCH  25  32
HETATM   32  N10 UNL     1      63.932  89.127  61.495  1.00  0.00    -0.234 N 
ATOM     33 2H10 UNL     1      63.017  89.544  61.324  1.00  0.00     0.174 HD
ATOM     34 1H10 UNL     1      64.405  89.268  62.388  1.00  0.00     0.174 HD
ENDBRANCH  25  32
ENDBRANCH   1  20
TORSDOF 7
ENDMDL
MODEL 3
REMARK VINA RESULT: -7.661733265      1.565      2.898
REMARK  7 active torsions:
REMARK  status: ('A' for Active; 'I' for Inactive)
REMARK    1  A    between atoms: C1_4  and  C2_6 
REMARK    2  A    between atoms: N5_11  and  C3_12 
REMARK    3  A    between atoms: C3_12  and  C4_13 
REMARK    4  A    between atoms: C4_13  and  N6_14 
REMARK    5  A    between atoms: C4_13  and  C5_18 
REMARK    6  A    between atoms: C6_21  and  N8_22 
REMARK    7  A    between atoms: C7_27  and  N10_28 
ROOT
HETATM    1  C4  UNL     1      68.054  85.477  61.484  1.00  0.00     0.273 C 
ENDROOT
BRANCH   1   2
HETATM    2  C3  UNL     1      68.726  84.381  60.666  1.00  0.00     0.211 C 
BRANCH   2   3
HETATM    3  N5  UNL     1      69.417  83.521  61.630  1.00  0.00    -0.216 N 
HETATM    4  N4  UNL     1      70.445  83.837  62.400  1.00  0.00    -0.224 N 
HETATM    5  N3  UNL     1      70.748  82.770  63.110  1.00  0.00    -0.266 N 
ATOM      6  H4  UNL     1      70.917  84.741  62.437  1.00  0.00     0.210 HD
HETATM    7  C2  UNL     1      69.895  81.756  62.784  1.00  0.00     0.178 A 
ATOM      8  H3  UNL     1      71.501  82.711  63.796  1.00  0.00     0.190 HD
HETATM    9  N12 UNL     1      69.074  82.261  61.853  1.00  0.00    -0.264 N 
ATOM     10  H12 UNL     1      68.313  81.760  61.395  1.00  0.00     0.190 HD
BRANCH   7  11
HETATM   11  C1  UNL     1      69.870  80.418  63.318  1.00  0.00     0.157 C 
HETATM   12  N1  UNL     1      69.896  79.409  62.532  1.00  0.00    -0.385 N 
ATOM     13  H12 UNL     1      69.878  78.461  62.910  1.00  0.00     0.157 HD
ATOM     14  H11 UNL     1      69.936  79.559  61.524  1.00  0.00     0.157 HD
HETATM   15  N2  UNL     1      69.816  80.208  64.717  1.00  0.00    -0.079 NA
ENDBRANCH   7  11
ENDBRANCH   2   3
ENDBRANCH   1   2
BRANCH   1  16
HETATM   16  N6  UNL     1      67.371  84.810  62.578  1.00  0.00    -0.067 N 
ATOM     17  H63 UNL     1      66.363  84.738  62.442  1.00  0.00     0.275 HD
ATOM     18  H62 UNL     1      67.564  83.809  62.626  1.00  0.00     0.275 HD
ATOM     19  H61 UNL     1      67.629  85.313  63.427  1.00  0.00     0.275 HD
ENDBRANCH   1  16
BRANCH   1  20
HETATM   20  C5  UNL     1      67.023  86.134  60.634  1.00  0.00     0.145 A 
HETATM   21  N7  UNL     1      66.902  85.850  59.315  1.00  0.00    -0.178 N 
HETATM   22  C6  UNL     1      65.960  86.460  58.570  1.00  0.00     0.691 A 
ATOM     23  H7  UNL     1      67.527  85.170  58.884  1.00  0.00     0.185 HD
HETATM   24  N9  UNL     1      65.110  87.364  59.088  1.00  0.00    -0.023 N 
HETATM   25  C7  UNL     1      65.228  87.648  60.398  1.00  0.00     0.691 A 
ATOM     26  H9  UNL     1      64.402  87.817  58.509  1.00  0.00     0.203 HD
HETATM   27  N11 UNL     1      66.168  87.040  61.145  1.00  0.00    -0.178 N 
ATOM     28  H11 UNL     1      66.235  87.274  62.136  1.00  0.00     0.185 HD
BRANCH  22  29
HETATM   29  N8  UNL     1      65.822  86.204  57.297  1.00  0.00    -0.234 N 
ATOM     30  H82 UNL     1      66.235  85.331  56.967  1.00  0.00     0.174 HD
ATOM     31  H81 UNL     1      65.328  86.843  56.673  1.00  0.00     0.174 HD
ENDBRANCH  22  29
BRANCH  25  32
HETATM   32  N10 UNL     1      64.417  88.514  60.903  1.00  0.00    -0.234 N 
ATOM     33 2H10 UNL     1      64.548  88.885  61.844  1.00  0.00     0.174 HD
ATOM     34 1H10 UNL     1      63.631  88.823  60.331  1.00  0.00     0.174 HD
ENDBRANCH  25  32
ENDBRANCH   1  20
TORSDOF 7
ENDMDL
MODEL 4
REMARK VINA RESULT: -7.647312588      1.303      7.447
REMARK  7 active torsions:
REMARK  status: ('A' for Active; 'I' for Inactive)
REMARK    1  A    between atoms: C1_4  and  C2_6 
REMARK    2  A    between atoms: N5_11  and  C3_12 
REMARK    3  A    between atoms: C3_12  and  C4_13 
REMARK    4  A    between atoms: C4_13  and  N6_14 
REMARK    5  A    between atoms: C4_13  and  C5_18 
REMARK    6  A    between atoms: C6_21  and  N8_22 
REMARK    7  A    between atoms: C7_27  and  N10_28 
ROOT
HETATM    1  C4  UNL     1      68.474  84.764  62.063  1.00  0.00     0.273 C 
ENDROOT
BRANCH   1   2
HETATM    2  C3  UNL     1      68.359  84.829  60.545  1.00  0.00     0.211 C 
BRANCH   2   3
HETATM    3  N5  UNL     1      67.294  85.792  60.258  1.00  0.00    -0.216 N 
HETATM    4  N4  UNL     1      66.621  86.532  61.124  1.00  0.00    -0.224 N 
HETATM    5  N3  UNL     1      65.759  87.255  60.439  1.00  0.00    -0.266 N 
ATOM      6  H4  UNL     1      66.747  86.541  62.137  1.00  0.00     0.210 HD
HETATM    7  C2  UNL     1      65.887  86.967  59.112  1.00  0.00     0.178 A 
ATOM      8  H3  UNL     1      65.101  87.925  60.839  1.00  0.00     0.190 HD
HETATM    9  N12 UNL     1      66.857  86.047  59.034  1.00  0.00    -0.264 N 
ATOM     10  H12 UNL     1      67.201  85.615  58.176  1.00  0.00     0.190 HD
BRANCH   7  11
HETATM   11  C1  UNL     1      65.141  87.527  58.012  1.00  0.00     0.157 C 
HETATM   12  N1  UNL     1      64.371  88.531  58.198  1.00  0.00    -0.385 N 
ATOM     13  H12 UNL     1      63.843  88.926  57.420  1.00  0.00     0.157 HD
ATOM     14  H11 UNL     1      64.288  88.932  59.132  1.00  0.00     0.157 HD
HETATM   15  N2  UNL     1      65.257  86.970  56.716  1.00  0.00    -0.079 NA
ENDBRANCH   7  11
ENDBRANCH   2   3
ENDBRANCH   1   2
BRANCH   1  16
HETATM   16  N6  UNL     1      69.490  85.731  62.437  1.00  0.00    -0.067 N 
ATOM     17  H63 UNL     1      69.834  86.281  61.651  1.00  0.00     0.275 HD
ATOM     18  H62 UNL     1      69.125  86.511  62.985  1.00  0.00     0.275 HD
ATOM     19  H61 UNL     1      70.222  85.207  62.916  1.00  0.00     0.275 HD
ENDBRANCH   1  16
BRANCH   1  20
HETATM   20  C5  UNL     1      68.967  83.412  62.441  1.00  0.00     0.145 A 
HETATM   21  N7  UNL     1      70.290  83.122  62.476  1.00  0.00    -0.178 N 
HETATM   22  C6  UNL     1      70.708  81.889  62.821  1.00  0.00     0.691 A 
ATOM     23  H7  UNL     1      70.973  83.841  62.239  1.00  0.00     0.185 HD
HETATM   24  N9  UNL     1      69.851  80.903  63.142  1.00  0.00    -0.023 N 
HETATM   25  C7  UNL     1      68.537  81.189  63.108  1.00  0.00     0.691 A 
ATOM     26  H9  UNL     1      70.185  79.975  63.401  1.00  0.00     0.203 HD
HETATM   27  N11 UNL     1      68.115  82.421  62.763  1.00  0.00    -0.178 N 
ATOM     28  H11 UNL     1      67.113  82.610  62.746  1.00  0.00     0.185 HD
BRANCH  22  29
HETATM   29  N8  UNL     1      71.978  81.583  62.863  1.00  0.00    -0.234 N 
ATOM     30  H82 UNL     1      72.308  81.156  63.729  1.00  0.00     0.174 HD
ATOM     31  H81 UNL     1      72.598  81.764  62.074  1.00  0.00     0.174 HD
ENDBRANCH  22  29
BRANCH  25  32
HETATM   32  N10 UNL     1      67.707  80.251  63.414  1.00  0.00    -0.234 N 
ATOM     33 2H10 UNL     1      67.847  79.658  64.232  1.00  0.00     0.174 HD
ATOM     34 1H10 UNL     1      66.897  80.113  62.809  1.00  0.00     0.174 HD
ENDBRANCH  25  32
ENDBRANCH   1  20
TORSDOF 7
ENDMDL
MODEL 5
REMARK VINA RESULT: -7.640784992      1.563      2.279
REMARK  7 active torsions:
REMARK  status: ('A' for Active; 'I' for Inactive)
REMARK    1  A    between atoms: C1_4  and  C2_6 
REMARK    2  A    between atoms: N5_11  and  C3_12 
REMARK    3  A    between atoms: C3_12  and  C4_13 
REMARK    4  A    between atoms: C4_13  and  N6_14 
REMARK    5  A    between atoms: C4_13  and  C5_18 
REMARK    6  A    between atoms: C6_21  and  N8_22 
REMARK    7  A    between atoms: C7_27  and  N10_28 
ROOT
HETATM    1  C4  UNL     1      68.058  85.491  61.491  1.00  0.00     0.273 C 
ENDROOT
BRANCH   1   2
HETATM    2  C3  UNL     1      68.689  84.371  60.674  1.00  0.00     0.211 C 
BRANCH   2   3
HETATM    3  N5  UNL     1      69.389  83.513  61.633  1.00  0.00    -0.216 N 
HETATM    4  N4  UNL     1      70.423  83.831  62.394  1.00  0.00    -0.224 N 
HETATM    5  N3  UNL     1      70.733  82.765  63.103  1.00  0.00    -0.266 N 
ATOM      6  H4  UNL     1      70.894  84.735  62.426  1.00  0.00     0.210 HD
HETATM    7  C2  UNL     1      69.879  81.750  62.785  1.00  0.00     0.178 A 
ATOM      8  H3  UNL     1      71.492  82.708  63.783  1.00  0.00     0.190 HD
HETATM    9  N12 UNL     1      69.049  82.253  61.861  1.00  0.00    -0.264 N 
ATOM     10  H12 UNL     1      68.285  81.750  61.409  1.00  0.00     0.190 HD
BRANCH   7  11
HETATM   11  C1  UNL     1      69.859  80.412  63.321  1.00  0.00     0.157 C 
HETATM   12  N1  UNL     1      69.874  79.402  62.536  1.00  0.00    -0.385 N 
ATOM     13  H12 UNL     1      69.859  78.455  62.916  1.00  0.00     0.157 HD
ATOM     14  H11 UNL     1      69.898  79.552  61.527  1.00  0.00     0.157 HD
HETATM   15  N2  UNL     1      69.825  80.204  64.721  1.00  0.00    -0.079 NA
ENDBRANCH   7  11
ENDBRANCH   2   3
ENDBRANCH   1   2
BRANCH   1  16
HETATM   16  N6  UNL     1      67.391  84.853  62.612  1.00  0.00    -0.067 N 
ATOM     17  H63 UNL     1      67.442  83.835  62.587  1.00  0.00     0.275 HD
ATOM     18  H62 UNL     1      67.878  84.983  63.500  1.00  0.00     0.275 HD
ATOM     19  H61 UNL     1      66.436  85.210  62.619  1.00  0.00     0.275 HD
ENDBRANCH   1  16
BRANCH   1  20
HETATM   20  C5  UNL     1      67.018  86.154  60.657  1.00  0.00     0.145 A 
HETATM   21  N7  UNL     1      66.161  87.064  61.179  1.00  0.00    -0.178 N 
HETATM   22  C6  UNL     1      65.229  87.648  60.401  1.00  0.00     0.691 A 
ATOM     23  H7  UNL     1      66.222  87.309  62.167  1.00  0.00     0.185 HD
HETATM   24  N9  UNL     1      65.104  87.361  59.093  1.00  0.00    -0.023 N 
HETATM   25  C7  UNL     1      65.954  86.457  58.573  1.00  0.00     0.691 A 
ATOM     26  H9  UNL     1      64.393  87.813  58.518  1.00  0.00     0.203 HD
HETATM   27  N11 UNL     1      66.887  85.873  59.347  1.00  0.00    -0.178 N 
ATOM     28  H11 UNL     1      67.518  85.191  58.926  1.00  0.00     0.185 HD
BRANCH  22  29
HETATM   29  N8  UNL     1      64.392  88.529  60.879  1.00  0.00    -0.234 N 
ATOM     30  H82 UNL     1      64.696  89.031  61.714  1.00  0.00     0.174 HD
ATOM     31  H81 UNL     1      63.487  88.702  60.440  1.00  0.00     0.174 HD
ENDBRANCH  22  29
BRANCH  25  32
HETATM   32  N10 UNL     1      65.841  86.176  57.319  1.00  0.00    -0.234 N 
ATOM     33 2H10 UNL     1      65.277  85.391  56.995  1.00  0.00     0.174 HD
ATOM     34 1H10 UNL     1      66.337  86.766  56.651  1.00  0.00     0.174 HD
ENDBRANCH  25  32
ENDBRANCH   1  20
TORSDOF 7
ENDMDL
