MODEL 1
REMARK VINA RESULT: -8.185388761      0.000      0.000
REMARK  12 active torsions:
REMARK  status: ('A' for Active; 'I' for Inactive)
REMARK    1  A    between atoms: O1_2  and  C2_3 
REMARK    2  A    between atoms: C2_3  and  C3_5 
REMARK    3  A    between atoms: C3_5  and  O3_6 
REMARK    4  A    between atoms: O3_6  and  C4_7 
REMARK    5  A    between atoms: C10_14  and  C11_15 
REMARK    6  A    between atoms: C11_15  and  O5_16 
REMARK    7  A    between atoms: C11_15  and  C12_18 
REMARK    8  A    between atoms: C12_18  and  C14_20 
REMARK    9  A    between atoms: C15_22  and  C17_24 
REMARK   10  A    between atoms: C22_29  and  O7_30 
REMARK   11  A    between atoms: C22_29  and  C23_32 
REMARK   12  A    between atoms: C23_32  and  O8_33 
ROOT
HETATM    1  C14 UNL     1       1.471  13.175  57.697  1.00  0.00     0.201 C 
HETATM    2  O6  UNL     1       1.392  12.284  56.673  1.00  0.00    -0.368 OA
HETATM    3  C15 UNL     1       0.955  12.897  55.536  1.00  0.00     0.070 C 
HETATM    4  C16 UNL     1       2.062  13.115  54.517  1.00  0.00     0.047 C 
HETATM    5  C25 UNL     1       0.394  14.242  55.905  1.00  0.00     0.120 C 
HETATM    6  C26 UNL     1       1.007  14.510  57.257  1.00  0.00     0.272 C 
HETATM    7  F1  UNL     1       2.039  15.424  57.167  1.00  0.00    -0.203 F 
HETATM    8  F2  UNL     1       0.027  15.064  58.057  1.00  0.00    -0.203 F 
ENDROOT
BRANCH   1   9
HETATM    9  C12 UNL     1       2.914  13.194  58.228  1.00  0.00     0.046 C 
HETATM   10  C13 UNL     1       2.885  13.793  59.611  1.00  0.00     0.015 C 
BRANCH   9  11
HETATM   11  C11 UNL     1       3.363  11.770  58.223  1.00  0.00     0.132 C 
BRANCH  11  12
HETATM   12  C10 UNL     1       4.554  11.502  57.314  1.00  0.00     0.040 C 
HETATM   13  C9  UNL     1       4.801  10.023  57.328  1.00  0.00    -0.023 C 
HETATM   14  C8  UNL     1       5.962   9.355  57.441  1.00  0.00    -0.030 C 
HETATM   15  C7  UNL     1       7.328   9.911  57.583  1.00  0.00     0.030 C 
HETATM   16  C6  UNL     1       7.482  11.023  56.587  1.00  0.00     0.053 C 
HETATM   17  C3  UNL     1       6.909  12.354  57.076  1.00  0.00     0.159 C 
HETATM   18  C27 UNL     1       5.742  12.161  57.969  1.00  0.00     0.060 C 
BRANCH  17  19
HETATM   19  C2  UNL     1       7.982  13.056  57.853  1.00  0.00     0.294 C 
HETATM   20  O2  UNL     1       9.183  13.096  57.495  1.00  0.00    -0.262 OA
BRANCH  19  21
HETATM   21  O1  UNL     1       7.657  13.704  59.028  1.00  0.00    -0.324 OA
HETATM   22  C1  UNL     1       7.754  15.079  59.239  1.00  0.00     0.213 C 
ENDBRANCH  19  21
ENDBRANCH  17  19
BRANCH  17  23
HETATM   23  O3  UNL     1       6.528  13.026  55.914  1.00  0.00    -0.300 OA
BRANCH  23  24
HETATM   24  C4  UNL     1       6.434  14.380  55.826  1.00  0.00     0.256 C 
HETATM   25  C5  UNL     1       7.431  15.226  55.097  1.00  0.00     0.126 C 
HETATM   26  O4  UNL     1       5.483  14.979  56.366  1.00  0.00    -0.266 OA
ENDBRANCH  23  24
ENDBRANCH  17  23
ENDBRANCH  11  12
BRANCH  11  27
HETATM   27  O5  UNL     1       3.684  11.447  59.556  1.00  0.00    -0.394 OA
ATOM     28  H5  UNL     1       3.485  10.535  59.732  1.00  0.00     0.210 HD
ENDBRANCH  11  27
ENDBRANCH   9  11
ENDBRANCH   1   9
BRANCH   3  29
HETATM   29  C17 UNL     1      -0.085  12.020  54.871  1.00  0.00     0.045 C 
HETATM   30  C18 UNL     1       0.404  10.660  54.587  1.00  0.00    -0.017 C 
HETATM   31  C19 UNL     1      -0.172   9.545  55.009  1.00  0.00    -0.084 C 
HETATM   32  C20 UNL     1       0.377   8.201  54.683  1.00  0.00     0.043 C 
HETATM   33  C21 UNL     1      -1.417   9.600  55.842  1.00  0.00     0.073 C 
HETATM   34  C22 UNL     1      -2.192  10.825  55.354  1.00  0.00     0.083 C 
HETATM   35  C24 UNL     1      -1.349  12.038  55.672  1.00  0.00     0.051 C 
BRANCH  34  36
HETATM   36  O7  UNL     1      -2.416  10.727  53.993  1.00  0.00    -0.387 OA
ATOM     37  H7  UNL     1      -2.957   9.969  53.808  1.00  0.00     0.210 HD
ENDBRANCH  34  36
BRANCH  34  38
HETATM   38  C23 UNL     1      -3.532  10.904  56.036  1.00  0.00     0.202 C 
BRANCH  38  39
HETATM   39  O8  UNL     1      -3.551  12.052  56.820  1.00  0.00    -0.398 OA
ATOM     40  H8  UNL     1      -3.962  11.838  57.649  1.00  0.00     0.209 HD
ENDBRANCH  38  39
ENDBRANCH  34  38
ENDBRANCH   3  29
TORSDOF 12
ENDMDL
MODEL 2
REMARK VINA RESULT: -7.973047969      1.793      3.087
REMARK  12 active torsions:
REMARK  status: ('A' for Active; 'I' for Inactive)
REMARK    1  A    between atoms: O1_2  and  C2_3 
REMARK    2  A    between atoms: C2_3  and  C3_5 
REMARK    3  A    between atoms: C3_5  and  O3_6 
REMARK    4  A    between atoms: O3_6  and  C4_7 
REMARK    5  A    between atoms: C10_14  and  C11_15 
REMARK    6  A    between atoms: C11_15  and  O5_16 
REMARK    7  A    between atoms: C11_15  and  C12_18 
REMARK    8  A    between atoms: C12_18  and  C14_20 
REMARK    9  A    between atoms: C15_22  and  C17_24 
REMARK   10  A    between atoms: C22_29  and  O7_30 
REMARK   11  A    between atoms: C22_29  and  C23_32 
REMARK   12  A    between atoms: C23_32  and  O8_33 
ROOT
HETATM    1  C14 UNL     1       1.944  12.870  57.990  1.00  0.00     0.201 C 
HETATM    2  O6  UNL     1       1.886  12.336  56.741  1.00  0.00    -0.368 OA
HETATM    3  C15 UNL     1       1.130  13.119  55.919  1.00  0.00     0.070 C 
HETATM    4  C16 UNL     1       1.965  13.917  54.929  1.00  0.00     0.047 C 
HETATM    5  C25 UNL     1       0.358  14.093  56.764  1.00  0.00     0.120 C 
HETATM    6  C26 UNL     1       1.124  14.101  58.064  1.00  0.00     0.272 C 
HETATM    7  F1  UNL     1       1.895  15.241  58.184  1.00  0.00    -0.203 F 
HETATM    8  F2  UNL     1       0.202  14.110  59.092  1.00  0.00    -0.203 F 
ENDROOT
BRANCH   1   9
HETATM    9  C12 UNL     1       3.416  13.115  58.358  1.00  0.00     0.046 C 
HETATM   10  C13 UNL     1       3.524  13.084  59.861  1.00  0.00     0.015 C 
BRANCH   9  11
HETATM   11  C11 UNL     1       4.183  12.017  57.698  1.00  0.00     0.132 C 
BRANCH  11  12
HETATM   12  C10 UNL     1       5.686  12.251  57.660  1.00  0.00     0.040 C 
HETATM   13  C9  UNL     1       5.939  13.357  56.678  1.00  0.00    -0.023 C 
HETATM   14  C8  UNL     1       6.872  13.441  55.714  1.00  0.00    -0.030 C 
HETATM   15  C7  UNL     1       7.915  12.450  55.359  1.00  0.00     0.030 C 
HETATM   16  C6  UNL     1       8.549  11.969  56.631  1.00  0.00     0.053 C 
HETATM   17  C3  UNL     1       7.753  10.859  57.319  1.00  0.00     0.159 C 
HETATM   18  C27 UNL     1       6.296  10.995  57.088  1.00  0.00     0.060 C 
BRANCH  17  19
HETATM   19  C2  UNL     1       8.197   9.550  56.737  1.00  0.00     0.294 C 
HETATM   20  O2  UNL     1       9.286   9.393  56.135  1.00  0.00    -0.262 OA
BRANCH  19  21
HETATM   21  O1  UNL     1       7.384   8.441  56.858  1.00  0.00    -0.324 OA
HETATM   22  C1  UNL     1       7.623   7.203  56.262  1.00  0.00     0.213 C 
ENDBRANCH  19  21
ENDBRANCH  17  19
BRANCH  17  23
HETATM   23  O3  UNL     1       8.048  10.997  58.675  1.00  0.00    -0.300 OA
BRANCH  23  24
HETATM   24  C4  UNL     1       9.016  10.284  59.310  1.00  0.00     0.256 C 
HETATM   25  C5  UNL     1      10.457  10.689  59.324  1.00  0.00     0.126 C 
HETATM   26  O4  UNL     1       8.726   9.236  59.921  1.00  0.00    -0.266 OA
ENDBRANCH  23  24
ENDBRANCH  17  23
ENDBRANCH  11  12
BRANCH  11  27
HETATM   27  O5  UNL     1       3.890  10.839  58.414  1.00  0.00    -0.394 OA
ATOM     28  H5  UNL     1       3.415  10.228  57.864  1.00  0.00     0.210 HD
ENDBRANCH  11  27
ENDBRANCH   9  11
ENDBRANCH   1   9
BRANCH   3  29
HETATM   29  C17 UNL     1       0.211  12.234  55.102  1.00  0.00     0.045 C 
HETATM   30  C18 UNL     1       0.728  10.864  54.935  1.00  0.00    -0.017 C 
HETATM   31  C19 UNL     1       0.076   9.763  55.274  1.00  0.00    -0.084 C 
HETATM   32  C20 UNL     1       0.658   8.409  55.075  1.00  0.00     0.043 C 
HETATM   33  C21 UNL     1      -1.294   9.846  55.879  1.00  0.00     0.073 C 
HETATM   34  C22 UNL     1      -1.960  11.064  55.240  1.00  0.00     0.083 C 
HETATM   35  C24 UNL     1      -1.171  12.279  55.673  1.00  0.00     0.051 C 
BRANCH  34  36
HETATM   36  O7  UNL     1      -1.947  10.939  53.862  1.00  0.00    -0.387 OA
ATOM     37  H7  UNL     1      -2.837  10.943  53.529  1.00  0.00     0.210 HD
ENDBRANCH  34  36
BRANCH  34  38
HETATM   38  C23 UNL     1      -3.397  11.168  55.678  1.00  0.00     0.202 C 
BRANCH  38  39
HETATM   39  O8  UNL     1      -3.449  11.991  56.798  1.00  0.00    -0.398 OA
ATOM     40  H8  UNL     1      -3.954  11.547  57.469  1.00  0.00     0.209 HD
ENDBRANCH  38  39
ENDBRANCH  34  38
ENDBRANCH   3  29
TORSDOF 12
ENDMDL
MODEL 3
REMARK VINA RESULT: -7.697091119      1.297      2.051
REMARK  12 active torsions:
REMARK  status: ('A' for Active; 'I' for Inactive)
REMARK    1  A    between atoms: O1_2  and  C2_3 
REMARK    2  A    between atoms: C2_3  and  C3_5 
REMARK    3  A    between atoms: C3_5  and  O3_6 
REMARK    4  A    between atoms: O3_6  and  C4_7 
REMARK    5  A    between atoms: C10_14  and  C11_15 
REMARK    6  A    between atoms: C11_15  and  O5_16 
REMARK    7  A    between atoms: C11_15  and  C12_18 
REMARK    8  A    between atoms: C12_18  and  C14_20 
REMARK    9  A    between atoms: C15_22  and  C17_24 
REMARK   10  A    between atoms: C22_29  and  O7_30 
REMARK   11  A    between atoms: C22_29  and  C23_32 
REMARK   12  A    between atoms: C23_32  and  O8_33 
ROOT
HETATM    1  C14 UNL     1       1.320  13.325  57.990  1.00  0.00     0.201 C 
HETATM    2  O6  UNL     1       1.332  12.219  57.200  1.00  0.00    -0.368 OA
HETATM    3  C15 UNL     1       0.835  12.507  55.963  1.00  0.00     0.070 C 
HETATM    4  C16 UNL     1       1.916  12.591  54.896  1.00  0.00     0.047 C 
HETATM    5  C25 UNL     1       0.142  13.839  56.025  1.00  0.00     0.120 C 
HETATM    6  C26 UNL     1       0.723  14.471  57.265  1.00  0.00     0.272 C 
HETATM    7  F1  UNL     1       1.658  15.436  56.945  1.00  0.00    -0.203 F 
HETATM    8  F2  UNL     1      -0.308  15.096  57.939  1.00  0.00    -0.203 F 
ENDROOT
BRANCH   1   9
HETATM    9  C12 UNL     1       2.753  13.608  58.470  1.00  0.00     0.046 C 
HETATM   10  C13 UNL     1       2.659  14.402  59.748  1.00  0.00     0.015 C 
BRANCH   9  11
HETATM   11  C11 UNL     1       3.384  12.268  58.664  1.00  0.00     0.132 C 
BRANCH  11  12
HETATM   12  C10 UNL     1       4.448  11.933  57.630  1.00  0.00     0.040 C 
HETATM   13  C9  UNL     1       4.469  10.440  57.482  1.00  0.00    -0.023 C 
HETATM   14  C8  UNL     1       5.522   9.606  57.425  1.00  0.00    -0.030 C 
HETATM   15  C7  UNL     1       6.963   9.943  57.495  1.00  0.00     0.030 C 
HETATM   16  C6  UNL     1       7.206  11.122  56.598  1.00  0.00     0.053 C 
HETATM   17  C3  UNL     1       6.879  12.461  57.260  1.00  0.00     0.159 C 
HETATM   18  C27 UNL     1       5.768  12.342  58.233  1.00  0.00     0.060 C 
BRANCH  17  19
HETATM   19  C2  UNL     1       8.102  12.917  57.999  1.00  0.00     0.294 C 
HETATM   20  O2  UNL     1       9.263  12.838  57.532  1.00  0.00    -0.262 OA
BRANCH  19  21
HETATM   21  O1  UNL     1       7.970  13.457  59.263  1.00  0.00    -0.324 OA
HETATM   22  C1  UNL     1       8.340  14.752  59.623  1.00  0.00     0.213 C 
ENDBRANCH  19  21
ENDBRANCH  17  19
BRANCH  17  23
HETATM   23  O3  UNL     1       6.517  13.300  56.206  1.00  0.00    -0.300 OA
BRANCH  23  24
HETATM   24  C4  UNL     1       6.596  14.657  56.264  1.00  0.00     0.256 C 
HETATM   25  C5  UNL     1       5.667  15.497  57.083  1.00  0.00     0.126 C 
HETATM   26  O4  UNL     1       7.473  15.264  55.617  1.00  0.00    -0.266 OA
ENDBRANCH  23  24
ENDBRANCH  17  23
ENDBRANCH  11  12
BRANCH  11  27
HETATM   27  O5  UNL     1       3.943  12.274  59.957  1.00  0.00    -0.394 OA
ATOM     28  H5  UNL     1       3.426  12.821  60.537  1.00  0.00     0.210 HD
ENDBRANCH  11  27
ENDBRANCH   9  11
ENDBRANCH   1   9
BRANCH   3  29
HETATM   29  C17 UNL     1      -0.110  11.402  55.541  1.00  0.00     0.045 C 
HETATM   30  C18 UNL     1      -0.776  11.671  54.254  1.00  0.00    -0.017 C 
HETATM   31  C19 UNL     1      -0.740  10.871  53.201  1.00  0.00    -0.084 C 
HETATM   32  C20 UNL     1      -1.438  11.205  51.931  1.00  0.00     0.043 C 
HETATM   33  C21 UNL     1       0.017   9.577  53.254  1.00  0.00     0.073 C 
HETATM   34  C22 UNL     1      -0.105   9.081  54.695  1.00  0.00     0.083 C 
HETATM   35  C24 UNL     1       0.605  10.087  55.572  1.00  0.00     0.051 C 
BRANCH  34  36
HETATM   36  O7  UNL     1      -1.439   8.980  55.046  1.00  0.00    -0.387 OA
ATOM     37  H7  UNL     1      -1.550   8.300  55.701  1.00  0.00     0.210 HD
ENDBRANCH  34  36
BRANCH  34  38
HETATM   38  C23 UNL     1       0.512   7.714  54.834  1.00  0.00     0.202 C 
BRANCH  38  39
HETATM   39  O8  UNL     1       0.526   7.117  53.578  1.00  0.00    -0.398 OA
ATOM     40  H8  UNL     1       0.030   6.308  53.629  1.00  0.00     0.209 HD
ENDBRANCH  38  39
ENDBRANCH  34  38
ENDBRANCH   3  29
TORSDOF 12
ENDMDL
MODEL 4
REMARK VINA RESULT: -7.689744142      2.904      7.676
REMARK  12 active torsions:
REMARK  status: ('A' for Active; 'I' for Inactive)
REMARK    1  A    between atoms: O1_2  and  C2_3 
REMARK    2  A    between atoms: C2_3  and  C3_5 
REMARK    3  A    between atoms: C3_5  and  O3_6 
REMARK    4  A    between atoms: O3_6  and  C4_7 
REMARK    5  A    between atoms: C10_14  and  C11_15 
REMARK    6  A    between atoms: C11_15  and  O5_16 
REMARK    7  A    between atoms: C11_15  and  C12_18 
REMARK    8  A    between atoms: C12_18  and  C14_20 
REMARK    9  A    between atoms: C15_22  and  C17_24 
REMARK   10  A    between atoms: C22_29  and  O7_30 
REMARK   11  A    between atoms: C22_29  and  C23_32 
REMARK   12  A    between atoms: C23_32  and  O8_33 
ROOT
HETATM    1  C14 UNL     1       5.694  12.635  58.695  1.00  0.00     0.201 C 
HETATM    2  O6  UNL     1       4.618  12.810  59.508  1.00  0.00    -0.368 OA
HETATM    3  C15 UNL     1       4.521  14.113  59.901  1.00  0.00     0.070 C 
HETATM    4  C16 UNL     1       3.402  14.863  59.195  1.00  0.00     0.047 C 
HETATM    5  C25 UNL     1       5.816  14.805  59.582  1.00  0.00     0.120 C 
HETATM    6  C26 UNL     1       6.440  13.906  58.544  1.00  0.00     0.272 C 
HETATM    7  F1  UNL     1       6.317  14.441  57.277  1.00  0.00    -0.203 F 
HETATM    8  F2  UNL     1       7.788  13.811  58.830  1.00  0.00    -0.203 F 
ENDROOT
BRANCH   1   9
HETATM    9  C12 UNL     1       5.213  12.066  57.351  1.00  0.00     0.046 C 
HETATM   10  C13 UNL     1       6.192  11.000  56.928  1.00  0.00     0.015 C 
BRANCH   9  11
HETATM   11  C11 UNL     1       3.844  11.527  57.608  1.00  0.00     0.132 C 
BRANCH  11  12
HETATM   12  C10 UNL     1       2.837  11.854  56.516  1.00  0.00     0.040 C 
HETATM   13  C9  UNL     1       3.505  12.801  55.564  1.00  0.00    -0.023 C 
HETATM   14  C8  UNL     1       3.025  13.927  55.007  1.00  0.00    -0.030 C 
HETATM   15  C7  UNL     1       1.689  14.541  55.188  1.00  0.00     0.030 C 
HETATM   16  C6  UNL     1       0.661  13.452  55.086  1.00  0.00     0.053 C 
HETATM   17  C3  UNL     1       0.465  12.683  56.393  1.00  0.00     0.159 C 
HETATM   18  C27 UNL     1       1.715  12.608  57.186  1.00  0.00     0.060 C 
BRANCH  17  19
HETATM   19  C2  UNL     1      -0.560  13.416  57.206  1.00  0.00     0.294 C 
HETATM   20  O2  UNL     1      -1.674  13.774  56.755  1.00  0.00    -0.262 OA
BRANCH  19  21
HETATM   21  O1  UNL     1      -0.289  13.725  58.524  1.00  0.00    -0.324 OA
HETATM   22  C1  UNL     1      -0.295  15.010  59.063  1.00  0.00     0.213 C 
ENDBRANCH  19  21
ENDBRANCH  17  19
BRANCH  17  23
HETATM   23  O3  UNL     1       0.059  11.407  55.999  1.00  0.00    -0.300 OA
BRANCH  23  24
HETATM   24  C4  UNL     1      -0.639  11.160  54.859  1.00  0.00     0.256 C 
HETATM   25  C5  UNL     1       0.014  10.852  53.548  1.00  0.00     0.126 C 
HETATM   26  O4  UNL     1      -1.886  11.182  54.869  1.00  0.00    -0.266 OA
ENDBRANCH  23  24
ENDBRANCH  17  23
ENDBRANCH  11  12
BRANCH  11  27
HETATM   27  O5  UNL     1       3.983  10.132  57.744  1.00  0.00    -0.394 OA
ATOM     28  H5  UNL     1       4.580   9.928  58.454  1.00  0.00     0.210 HD
ENDBRANCH  11  27
ENDBRANCH   9  11
ENDBRANCH   1   9
BRANCH   3  29
HETATM   29  C17 UNL     1       4.211  14.159  61.383  1.00  0.00     0.045 C 
HETATM   30  C18 UNL     1       5.349  14.620  62.197  1.00  0.00    -0.017 C 
HETATM   31  C19 UNL     1       5.316  15.646  63.033  1.00  0.00    -0.084 C 
HETATM   32  C20 UNL     1       6.505  16.056  63.827  1.00  0.00     0.043 C 
HETATM   33  C21 UNL     1       4.057  16.441  63.211  1.00  0.00     0.073 C 
HETATM   34  C22 UNL     1       2.908  15.448  63.039  1.00  0.00     0.083 C 
HETATM   35  C24 UNL     1       2.961  14.951  61.612  1.00  0.00     0.051 C 
BRANCH  34  36
HETATM   36  O7  UNL     1       3.055  14.399  63.929  1.00  0.00    -0.387 OA
ATOM     37  H7  UNL     1       3.418  14.718  64.747  1.00  0.00     0.210 HD
ENDBRANCH  34  36
BRANCH  34  38
HETATM   38  C23 UNL     1       1.589  16.115  63.330  1.00  0.00     0.202 C 
BRANCH  38  39
HETATM   39  O8  UNL     1       0.669  15.685  62.380  1.00  0.00    -0.398 OA
ATOM     40  H8  UNL     1       0.197  14.943  62.740  1.00  0.00     0.209 HD
ENDBRANCH  38  39
ENDBRANCH  34  38
ENDBRANCH   3  29
TORSDOF 12
ENDMDL
MODEL 5
REMARK VINA RESULT: -7.637471343      1.842      3.369
REMARK  12 active torsions:
REMARK  status: ('A' for Active; 'I' for Inactive)
REMARK    1  A    between atoms: O1_2  and  C2_3 
REMARK    2  A    between atoms: C2_3  and  C3_5 
REMARK    3  A    between atoms: C3_5  and  O3_6 
REMARK    4  A    between atoms: O3_6  and  C4_7 
REMARK    5  A    between atoms: C10_14  and  C11_15 
REMARK    6  A    between atoms: C11_15  and  O5_16 
REMARK    7  A    between atoms: C11_15  and  C12_18 
REMARK    8  A    between atoms: C12_18  and  C14_20 
REMARK    9  A    between atoms: C15_22  and  C17_24 
REMARK   10  A    between atoms: C22_29  and  O7_30 
REMARK   11  A    between atoms: C22_29  and  C23_32 
REMARK   12  A    between atoms: C23_32  and  O8_33 
ROOT
HETATM    1  C14 UNL     1       1.555  13.324  58.265  1.00  0.00     0.201 C 
HETATM    2  O6  UNL     1       1.829  12.399  57.307  1.00  0.00    -0.368 OA
HETATM    3  C15 UNL     1       1.205  12.720  56.137  1.00  0.00     0.070 C 
HETATM    4  C16 UNL     1       2.160  13.266  55.087  1.00  0.00     0.047 C 
HETATM    5  C25 UNL     1       0.175  13.777  56.421  1.00  0.00     0.120 C 
HETATM    6  C26 UNL     1       0.627  14.351  57.740  1.00  0.00     0.272 C 
HETATM    7  F1  UNL     1       1.239  15.578  57.570  1.00  0.00    -0.203 F 
HETATM    8  F2  UNL     1      -0.499  14.550  58.516  1.00  0.00    -0.203 F 
ENDROOT
BRANCH   1   9
HETATM    9  C12 UNL     1       2.878  13.923  58.769  1.00  0.00     0.046 C 
HETATM   10  C13 UNL     1       2.615  14.543  60.118  1.00  0.00     0.015 C 
BRANCH   9  11
HETATM   11  C11 UNL     1       3.838  12.780  58.834  1.00  0.00     0.132 C 
BRANCH  11  12
HETATM   12  C10 UNL     1       5.236  13.119  58.338  1.00  0.00     0.040 C 
HETATM   13  C9  UNL     1       5.092  14.205  57.312  1.00  0.00    -0.023 C 
HETATM   14  C8  UNL     1       5.681  14.322  56.110  1.00  0.00    -0.030 C 
HETATM   15  C7  UNL     1       6.642  13.396  55.467  1.00  0.00     0.030 C 
HETATM   16  C6  UNL     1       7.667  13.006  56.492  1.00  0.00     0.053 C 
HETATM   17  C3  UNL     1       7.206  11.867  57.402  1.00  0.00     0.159 C 
HETATM   18  C27 UNL     1       5.741  11.891  57.623  1.00  0.00     0.060 C 
BRANCH  17  19
HETATM   19  C2  UNL     1       7.556  10.574  56.729  1.00  0.00     0.294 C 
HETATM   20  O2  UNL     1       8.465  10.462  55.872  1.00  0.00    -0.262 OA
BRANCH  19  21
HETATM   21  O1  UNL     1       6.857   9.428  57.053  1.00  0.00    -0.324 OA
HETATM   22  C1  UNL     1       7.309   8.126  56.838  1.00  0.00     0.213 C 
ENDBRANCH  19  21
ENDBRANCH  17  19
BRANCH  17  23
HETATM   23  O3  UNL     1       7.885  12.074  58.604  1.00  0.00    -0.300 OA
BRANCH  23  24
HETATM   24  C4  UNL     1       9.002  11.387  58.964  1.00  0.00     0.256 C 
HETATM   25  C5  UNL     1      10.388  11.844  58.631  1.00  0.00     0.126 C 
HETATM   26  O4  UNL     1       8.905  10.321  59.603  1.00  0.00    -0.266 OA
ENDBRANCH  23  24
ENDBRANCH  17  23
ENDBRANCH  11  12
BRANCH  11  27
HETATM   27  O5  UNL     1       3.883  12.372  60.182  1.00  0.00    -0.394 OA
ATOM     28  H5  UNL     1       4.627  11.801  60.329  1.00  0.00     0.210 HD
ENDBRANCH  11  27
ENDBRANCH   9  11
ENDBRANCH   1   9
BRANCH   3  29
HETATM   29  C17 UNL     1       0.581  11.471  55.552  1.00  0.00     0.045 C 
HETATM   30  C18 UNL     1      -0.773  11.205  56.069  1.00  0.00    -0.017 C 
HETATM   31  C19 UNL     1      -1.854  11.060  55.319  1.00  0.00    -0.084 C 
HETATM   32  C20 UNL     1      -3.193  10.791  55.909  1.00  0.00     0.043 C 
HETATM   33  C21 UNL     1      -1.764  11.161  53.826  1.00  0.00     0.073 C 
HETATM   34  C22 UNL     1      -0.390  10.605  53.452  1.00  0.00     0.083 C 
HETATM   35  C24 UNL     1       0.642  11.529  54.057  1.00  0.00     0.051 C 
BRANCH  34  36
HETATM   36  O7  UNL     1      -0.250   9.322  53.950  1.00  0.00    -0.387 OA
ATOM     37  H7  UNL     1       0.632   9.197  54.279  1.00  0.00     0.210 HD
ENDBRANCH  34  36
BRANCH  34  38
HETATM   38  C23 UNL     1      -0.242  10.536  51.955  1.00  0.00     0.202 C 
BRANCH  38  39
HETATM   39  O8  UNL     1       0.135   9.240  51.617  1.00  0.00    -0.398 OA
ATOM     40  H8  UNL     1      -0.374   8.972  50.861  1.00  0.00     0.209 HD
ENDBRANCH  38  39
ENDBRANCH  34  38
ENDBRANCH   3  29
TORSDOF 12
ENDMDL
