MODEL 1
REMARK VINA RESULT: -5.256083945      0.000      0.000
REMARK  3 active torsions:
REMARK  status: ('A' for Active; 'I' for Inactive)
REMARK    1  A    between atoms: C3_3  and  C4_4 
REMARK    2  A    between atoms: C4_4  and  N1_5 
REMARK    3  A    between atoms: C7_11  and  N2_12 
ROOT
HETATM    1  C1  UNL     1     -20.085 -18.341  15.045  1.00  0.00     0.012 C 
HETATM    2  C2  UNL     1     -19.702 -17.299  15.520  1.00  0.00    -0.115 C 
HETATM    3  C3  UNL     1     -19.230 -16.043  16.112  1.00  0.00     0.131 C 
ENDROOT
BRANCH   3   4
HETATM    4  C4  UNL     1     -18.201 -16.354  17.211  1.00  0.00     0.134 C 
HETATM    5  C5  UNL     1     -17.035 -16.998  16.506  1.00  0.00     0.041 C 
HETATM    6  C6  UNL     1     -16.130 -17.692  17.508  1.00  0.00     0.027 C 
HETATM    7  C7  UNL     1     -16.981 -18.796  18.095  1.00  0.00     0.076 C 
HETATM    8  C9  UNL     1     -17.995 -18.138  18.981  1.00  0.00     0.027 C 
HETATM    9  C10 UNL     1     -18.863 -17.182  18.235  1.00  0.00     0.041 C 
BRANCH   4  10
HETATM   10  N1  UNL     1     -17.736 -15.053  17.682  1.00  0.00    -0.070 N 
ATOM     11  H13 UNL     1     -16.746 -14.882  17.507  1.00  0.00     0.275 HD
ATOM     12  H12 UNL     1     -18.092 -14.268  17.137  1.00  0.00     0.275 HD
ATOM     13  H11 UNL     1     -17.992 -15.018  18.669  1.00  0.00     0.275 HD
ENDBRANCH   4  10
BRANCH   7  14
HETATM   14  N2  UNL     1     -16.239 -19.839  18.696  1.00  0.00    -0.421 N 
HETATM   15  C8  UNL     1     -14.954 -19.461  19.205  1.00  0.00     0.140 C 
ATOM     16  H2  UNL     1     -16.593 -20.793  18.763  1.00  0.00     0.153 HD
ENDBRANCH   7  14
ENDBRANCH   3   4
TORSDOF 3
ENDMDL
MODEL 2
REMARK VINA RESULT: -5.164015957      2.150      4.717
REMARK  3 active torsions:
REMARK  status: ('A' for Active; 'I' for Inactive)
REMARK    1  A    between atoms: C3_3  and  C4_4 
REMARK    2  A    between atoms: C4_4  and  N1_5 
REMARK    3  A    between atoms: C7_11  and  N2_12 
ROOT
HETATM    1  C1  UNL     1     -15.088 -18.280  16.544  1.00  0.00     0.012 C 
HETATM    2  C2  UNL     1     -15.939 -17.593  17.057  1.00  0.00    -0.115 C 
HETATM    3  C3  UNL     1     -16.984 -16.767  17.670  1.00  0.00     0.131 C 
ENDROOT
BRANCH   3   4
HETATM    4  C4  UNL     1     -18.362 -17.375  17.355  1.00  0.00     0.134 C 
HETATM    5  C5  UNL     1     -18.411 -17.512  15.856  1.00  0.00     0.041 C 
HETATM    6  C6  UNL     1     -19.841 -17.737  15.394  1.00  0.00     0.027 C 
HETATM    7  C7  UNL     1     -20.569 -16.465  15.766  1.00  0.00     0.076 C 
HETATM    8  C9  UNL     1     -20.711 -16.465  17.258  1.00  0.00     0.027 C 
HETATM    9  C10 UNL     1     -19.391 -16.505  17.952  1.00  0.00     0.041 C 
BRANCH   4  10
HETATM   10  N1  UNL     1     -18.316 -18.730  17.897  1.00  0.00    -0.070 N 
ATOM     11  H13 UNL     1     -17.499 -19.264  17.601  1.00  0.00     0.275 HD
ATOM     12  H12 UNL     1     -18.126 -18.766  18.898  1.00  0.00     0.275 HD
ATOM     13  H11 UNL     1     -19.204 -19.154  17.631  1.00  0.00     0.275 HD
ENDBRANCH   4  10
BRANCH   7  14
HETATM   14  N2  UNL     1     -21.768 -16.255  15.045  1.00  0.00    -0.421 N 
HETATM   15  C8  UNL     1     -22.974 -16.465  15.788  1.00  0.00     0.140 C 
ATOM     16  H2  UNL     1     -21.773 -15.974  14.064  1.00  0.00     0.153 HD
ENDBRANCH   7  14
ENDBRANCH   3   4
TORSDOF 3
ENDMDL
MODEL 3
REMARK VINA RESULT: -5.010156802      1.923      4.768
REMARK  3 active torsions:
REMARK  status: ('A' for Active; 'I' for Inactive)
REMARK    1  A    between atoms: C3_3  and  C4_4 
REMARK    2  A    between atoms: C4_4  and  N1_5 
REMARK    3  A    between atoms: C7_11  and  N2_12 
ROOT
HETATM    1  C1  UNL     1     -14.720 -17.977  16.837  1.00  0.00     0.012 C 
HETATM    2  C2  UNL     1     -15.853 -18.132  17.226  1.00  0.00    -0.115 C 
HETATM    3  C3  UNL     1     -17.232 -18.302  17.695  1.00  0.00     0.131 C 
ENDROOT
BRANCH   3   4
HETATM    4  C4  UNL     1     -18.050 -17.051  17.336  1.00  0.00     0.134 C 
HETATM    5  C5  UNL     1     -19.233 -17.059  18.268  1.00  0.00     0.041 C 
HETATM    6  C6  UNL     1     -20.304 -16.104  17.770  1.00  0.00     0.027 C 
HETATM    7  C7  UNL     1     -20.753 -16.685  16.448  1.00  0.00     0.076 C 
HETATM    8  C9  UNL     1     -19.639 -16.456  15.472  1.00  0.00     0.027 C 
HETATM    9  C10 UNL     1     -18.368 -17.111  15.898  1.00  0.00     0.041 C 
BRANCH   4  10
HETATM   10  N1  UNL     1     -17.215 -15.920  17.731  1.00  0.00    -0.070 N 
ATOM     11  H13 UNL     1     -17.009 -15.275  16.969  1.00  0.00     0.275 HD
ATOM     12  H12 UNL     1     -17.692 -15.247  18.331  1.00  0.00     0.275 HD
ATOM     13  H11 UNL     1     -16.386 -16.335  18.156  1.00  0.00     0.275 HD
ENDBRANCH   4  10
BRANCH   7  14
HETATM   14  N2  UNL     1     -22.028 -16.241  16.026  1.00  0.00    -0.421 N 
HETATM   15  C8  UNL     1     -22.669 -17.065  15.045  1.00  0.00     0.140 C 
ATOM     16  H2  UNL     1     -22.461 -15.395  16.395  1.00  0.00     0.153 HD
ENDBRANCH   7  14
ENDBRANCH   3   4
TORSDOF 3
ENDMDL
MODEL 4
REMARK VINA RESULT: -4.871959940      1.795      2.191
REMARK  3 active torsions:
REMARK  status: ('A' for Active; 'I' for Inactive)
REMARK    1  A    between atoms: C3_3  and  C4_4 
REMARK    2  A    between atoms: C4_4  and  N1_5 
REMARK    3  A    between atoms: C7_11  and  N2_12 
ROOT
HETATM    1  C1  UNL     1     -23.054 -17.202  15.418  1.00  0.00     0.012 C 
HETATM    2  C2  UNL     1     -21.902 -16.887  15.241  1.00  0.00    -0.115 C 
HETATM    3  C3  UNL     1     -20.500 -16.504  15.045  1.00  0.00     0.131 C 
ENDROOT
BRANCH   3   4
HETATM    4  C4  UNL     1     -19.748 -16.622  16.381  1.00  0.00     0.134 C 
HETATM    5  C5  UNL     1     -18.456 -15.872  16.187  1.00  0.00     0.041 C 
HETATM    6  C6  UNL     1     -17.468 -16.232  17.283  1.00  0.00     0.027 C 
HETATM    7  C7  UNL     1     -17.184 -17.703  17.078  1.00  0.00     0.076 C 
HETATM    8  C9  UNL     1     -18.415 -18.446  17.499  1.00  0.00     0.027 C 
HETATM    9  C10 UNL     1     -19.614 -18.054  16.703  1.00  0.00     0.041 C 
BRANCH   4  10
HETATM   10  N1  UNL     1     -20.539 -15.852  17.336  1.00  0.00    -0.070 N 
ATOM     11  H13 UNL     1     -20.544 -16.244  18.277  1.00  0.00     0.275 HD
ATOM     12  H12 UNL     1     -20.123 -14.954  17.583  1.00  0.00     0.275 HD
ATOM     13  H11 UNL     1     -21.465 -15.774  16.917  1.00  0.00     0.275 HD
ENDBRANCH   4  10
BRANCH   7  14
HETATM   14  N2  UNL     1     -15.978 -18.145  17.669  1.00  0.00    -0.421 N 
HETATM   15  C8  UNL     1     -14.794 -17.905  16.899  1.00  0.00     0.140 C 
ATOM     16  H2  UNL     1     -15.953 -18.603  18.581  1.00  0.00     0.153 HD
ENDBRANCH   7  14
ENDBRANCH   3   4
TORSDOF 3
ENDMDL
MODEL 5
REMARK VINA RESULT: -4.831694656      1.803      4.637
REMARK  3 active torsions:
REMARK  status: ('A' for Active; 'I' for Inactive)
REMARK    1  A    between atoms: C3_3  and  C4_4 
REMARK    2  A    between atoms: C4_4  and  N1_5 
REMARK    3  A    between atoms: C7_11  and  N2_12 
ROOT
HETATM    1  C1  UNL     1     -15.544 -19.897  19.114  1.00  0.00     0.012 C 
HETATM    2  C2  UNL     1     -15.763 -18.961  18.383  1.00  0.00    -0.115 C 
HETATM    3  C3  UNL     1     -16.048 -17.827  17.498  1.00  0.00     0.131 C 
ENDROOT
BRANCH   3   4
HETATM    4  C4  UNL     1     -17.520 -17.414  17.658  1.00  0.00     0.134 C 
HETATM    5  C5  UNL     1     -18.306 -18.375  16.804  1.00  0.00     0.041 C 
HETATM    6  C6  UNL     1     -19.711 -17.848  16.572  1.00  0.00     0.027 C 
HETATM    7  C7  UNL     1     -19.518 -16.575  15.778  1.00  0.00     0.076 C 
HETATM    8  C9  UNL     1     -18.945 -15.558  16.718  1.00  0.00     0.027 C 
HETATM    9  C10 UNL     1     -17.638 -15.991  17.292  1.00  0.00     0.041 C 
BRANCH   4  10
HETATM   10  N1  UNL     1     -17.856 -17.718  19.046  1.00  0.00    -0.070 N 
ATOM     11  H13 UNL     1     -18.224 -18.660  19.183  1.00  0.00     0.275 HD
ATOM     12  H12 UNL     1     -17.043 -17.818  19.653  1.00  0.00     0.275 HD
ATOM     13  H11 UNL     1     -18.497 -16.980  19.335  1.00  0.00     0.275 HD
ENDBRANCH   4  10
BRANCH   7  14
HETATM   14  N2  UNL     1     -20.667 -16.160  15.065  1.00  0.00    -0.421 N 
HETATM   15  C8  UNL     1     -21.804 -17.024  15.181  1.00  0.00     0.140 C 
ATOM     16  H2  UNL     1     -20.685 -15.306  14.509  1.00  0.00     0.153 HD
ENDBRANCH   7  14
ENDBRANCH   3   4
TORSDOF 3
ENDMDL
