MODEL 1
REMARK VINA RESULT: -6.260341254      0.000      0.000
REMARK  12 active torsions:
REMARK  status: ('A' for Active; 'I' for Inactive)
REMARK    1  A    between atoms: C1_4  and  C2_5 
REMARK    2  A    between atoms: C1_4  and  N4_15 
REMARK    3  A    between atoms: C2_5  and  N2_6 
REMARK    4  A    between atoms: N2_6  and  C3_9 
REMARK    5  A    between atoms: C3_9  and  C4_10 
REMARK    6  A    between atoms: C4_10  and  N3_11 
REMARK    7  A    between atoms: N3_11  and  C5_13 
REMARK    8  A    between atoms: N4_15  and  C6_17 
REMARK    9  A    between atoms: C6_17  and  C7_18 
REMARK       I    between atoms: C7_18  and  N5_20 
REMARK   10  A    between atoms: N5_20  and  C8_22 
REMARK   11  A    between atoms: C8_22  and  C9_23 
REMARK   12  A    between atoms: C8_22  and  C10_26 
ROOT
HETATM    1  N1  UNL     1      61.195  37.524  48.366  1.00  0.00    -0.388 N 
ATOM      2  H11 UNL     1      61.950  37.797  47.738  1.00  0.00     0.157 HD
ATOM      3  H12 UNL     1      61.189  37.966  49.285  1.00  0.00     0.157 HD
HETATM    4  C1  UNL     1      60.318  36.668  47.998  1.00  0.00     0.097 C 
ENDROOT
BRANCH   4   5
HETATM    5  C2  UNL     1      59.202  36.264  48.926  1.00  0.00     0.307 C 
BRANCH   5   6
HETATM    6  N2  UNL     1      59.209  37.174  50.042  1.00  0.00    -0.067 N 
ATOM      7  H22 UNL     1      60.150  37.515  50.240  1.00  0.00     0.277 HD
ATOM      8  H21 UNL     1      58.767  38.061  49.804  1.00  0.00     0.277 HD
BRANCH   6   9
HETATM    9  C3  UNL     1      58.606  36.581  51.210  1.00  0.00     0.252 C 
BRANCH   9  10
HETATM   10  C4  UNL     1      59.593  36.404  52.319  1.00  0.00     0.149 C 
BRANCH  10  11
HETATM   11  N3  UNL     1      60.329  35.179  52.213  1.00  0.00    -0.367 N 
ATOM     12  H3  UNL     1      59.956  34.338  52.653  1.00  0.00     0.161 HD
BRANCH  11  13
HETATM   13  C5  UNL     1      61.548  35.102  51.520  1.00  0.00     0.348 C 
HETATM   14  O1  UNL     1      62.094  36.086  50.987  1.00  0.00    -0.284 OA
ENDBRANCH  11  13
ENDBRANCH  10  11
ENDBRANCH   9  10
ENDBRANCH   6   9
ENDBRANCH   5   6
ENDBRANCH   4   5
BRANCH   4  15
HETATM   15  N4  UNL     1      60.326  36.052  46.715  1.00  0.00    -0.370 N 
ATOM     16  H4  UNL     1      59.731  35.246  46.522  1.00  0.00     0.161 HD
BRANCH  15  17
HETATM   17  C6  UNL     1      61.189  36.585  45.693  1.00  0.00     0.223 C 
BRANCH  17  18
HETATM   18  C7  UNL     1      60.464  37.555  44.858  1.00  0.00     0.236 C 
HETATM   19  O2  UNL     1      59.747  37.135  43.896  1.00  0.00    -0.272 OA
HETATM   20  N5  UNL     1      60.542  38.953  45.096  1.00  0.00    -0.339 N 
ATOM     21  H5  UNL     1      61.116  39.296  45.867  1.00  0.00     0.163 HD
BRANCH  20  22
HETATM   22  C8  UNL     1      59.822  39.905  44.267  1.00  0.00     0.263 C 
BRANCH  22  23
HETATM   23  C9  UNL     1      58.625  40.427  44.979  1.00  0.00     0.262 C 
HETATM   24  N6  UNL     1      58.690  40.796  46.342  1.00  0.00    -0.060 NA
HETATM   25  O3  UNL     1      57.536  40.548  44.374  1.00  0.00    -0.274 OA
ENDBRANCH  22  23
BRANCH  22  26
HETATM   26  C10 UNL     1      60.686  40.969  43.758  1.00  0.00     0.262 C 
HETATM   27  N7  UNL     1      60.553  41.423  42.431  1.00  0.00    -0.060 NA
HETATM   28  O4  UNL     1      61.554  41.489  44.492  1.00  0.00    -0.274 OA
ENDBRANCH  22  26
ENDBRANCH  20  22
ENDBRANCH  17  18
ENDBRANCH  15  17
ENDBRANCH   4  15
TORSDOF 12
ENDMDL
MODEL 2
REMARK VINA RESULT: -6.167988505      1.298      1.616
REMARK  12 active torsions:
REMARK  status: ('A' for Active; 'I' for Inactive)
REMARK    1  A    between atoms: C1_4  and  C2_5 
REMARK    2  A    between atoms: C1_4  and  N4_15 
REMARK    3  A    between atoms: C2_5  and  N2_6 
REMARK    4  A    between atoms: N2_6  and  C3_9 
REMARK    5  A    between atoms: C3_9  and  C4_10 
REMARK    6  A    between atoms: C4_10  and  N3_11 
REMARK    7  A    between atoms: N3_11  and  C5_13 
REMARK    8  A    between atoms: N4_15  and  C6_17 
REMARK    9  A    between atoms: C6_17  and  C7_18 
REMARK       I    between atoms: C7_18  and  N5_20 
REMARK   10  A    between atoms: N5_20  and  C8_22 
REMARK   11  A    between atoms: C8_22  and  C9_23 
REMARK   12  A    between atoms: C8_22  and  C10_26 
ROOT
HETATM    1  N1  UNL     1      59.922  37.872  48.687  1.00  0.00    -0.388 N 
ATOM      2  H11 UNL     1      60.305  38.728  48.288  1.00  0.00     0.157 HD
ATOM      3  H12 UNL     1      59.344  37.981  49.521  1.00  0.00     0.157 HD
HETATM    4  C1  UNL     1      60.169  36.736  48.155  1.00  0.00     0.097 C 
ENDROOT
BRANCH   4   5
HETATM    5  C2  UNL     1      59.602  35.470  48.744  1.00  0.00     0.307 C 
BRANCH   5   6
HETATM    6  N2  UNL     1      60.704  34.687  49.241  1.00  0.00    -0.067 N 
ATOM      7  H22 UNL     1      60.837  33.839  48.691  1.00  0.00     0.277 HD
ATOM      8  H21 UNL     1      61.599  35.139  49.053  1.00  0.00     0.277 HD
BRANCH   6   9
HETATM    9  C3  UNL     1      60.548  34.388  50.643  1.00  0.00     0.252 C 
BRANCH   9  10
HETATM   10  C4  UNL     1      61.296  35.354  51.506  1.00  0.00     0.149 C 
BRANCH  10  11
HETATM   11  N3  UNL     1      60.454  36.003  52.466  1.00  0.00    -0.367 N 
ATOM     12  H3  UNL     1      60.825  36.202  53.396  1.00  0.00     0.161 HD
BRANCH  11  13
HETATM   13  C5  UNL     1      59.133  36.375  52.167  1.00  0.00     0.348 C 
HETATM   14  O1  UNL     1      58.843  37.373  51.482  1.00  0.00    -0.284 OA
ENDBRANCH  11  13
ENDBRANCH  10  11
ENDBRANCH   9  10
ENDBRANCH   6   9
ENDBRANCH   5   6
ENDBRANCH   4   5
BRANCH   4  15
HETATM   15  N4  UNL     1      60.975  36.584  46.991  1.00  0.00    -0.370 N 
ATOM     16  H4  UNL     1      61.987  36.706  47.040  1.00  0.00     0.161 HD
BRANCH  15  17
HETATM   17  C6  UNL     1      60.338  36.254  45.742  1.00  0.00     0.223 C 
BRANCH  17  18
HETATM   18  C7  UNL     1      59.748  37.454  45.129  1.00  0.00     0.236 C 
HETATM   19  O2  UNL     1      58.646  37.355  44.505  1.00  0.00    -0.272 OA
HETATM   20  N5  UNL     1      60.378  38.724  45.215  1.00  0.00    -0.339 N 
ATOM     21  H5  UNL     1      61.263  38.809  45.714  1.00  0.00     0.163 HD
BRANCH  20  22
HETATM   22  C8  UNL     1      59.788  39.905  44.606  1.00  0.00     0.263 C 
BRANCH  22  23
HETATM   23  C9  UNL     1      59.021  40.689  45.610  1.00  0.00     0.262 C 
HETATM   24  N6  UNL     1      59.175  40.451  46.995  1.00  0.00    -0.060 NA
HETATM   25  O3  UNL     1      58.222  41.578  45.238  1.00  0.00    -0.274 OA
ENDBRANCH  22  23
BRANCH  22  26
HETATM   26  C10 UNL     1      60.771  40.714  43.888  1.00  0.00     0.262 C 
HETATM   27  N7  UNL     1      60.795  40.725  42.479  1.00  0.00    -0.060 NA
HETATM   28  O4  UNL     1      61.603  41.407  44.513  1.00  0.00    -0.274 OA
ENDBRANCH  22  26
ENDBRANCH  20  22
ENDBRANCH  17  18
ENDBRANCH  15  17
ENDBRANCH   4  15
TORSDOF 12
ENDMDL
MODEL 3
REMARK VINA RESULT: -6.151579044      2.034      7.775
REMARK  12 active torsions:
REMARK  status: ('A' for Active; 'I' for Inactive)
REMARK    1  A    between atoms: C1_4  and  C2_5 
REMARK    2  A    between atoms: C1_4  and  N4_15 
REMARK    3  A    between atoms: C2_5  and  N2_6 
REMARK    4  A    between atoms: N2_6  and  C3_9 
REMARK    5  A    between atoms: C3_9  and  C4_10 
REMARK    6  A    between atoms: C4_10  and  N3_11 
REMARK    7  A    between atoms: N3_11  and  C5_13 
REMARK    8  A    between atoms: N4_15  and  C6_17 
REMARK    9  A    between atoms: C6_17  and  C7_18 
REMARK       I    between atoms: C7_18  and  N5_20 
REMARK   10  A    between atoms: N5_20  and  C8_22 
REMARK   11  A    between atoms: C8_22  and  C9_23 
REMARK   12  A    between atoms: C8_22  and  C10_26 
ROOT
HETATM    1  N1  UNL     1      59.069  39.540  45.494  1.00  0.00    -0.388 N 
ATOM      2  H11 UNL     1      58.587  39.013  46.222  1.00  0.00     0.157 HD
ATOM      3  H12 UNL     1      58.722  40.483  45.314  1.00  0.00     0.157 HD
HETATM    4  C1  UNL     1      60.049  39.024  44.854  1.00  0.00     0.097 C 
ENDROOT
BRANCH   4   5
HETATM    5  C2  UNL     1      60.761  39.802  43.779  1.00  0.00     0.307 C 
BRANCH   5   6
HETATM    6  N2  UNL     1      61.206  41.043  44.359  1.00  0.00    -0.067 N 
ATOM      7  H22 UNL     1      60.614  41.324  45.140  1.00  0.00     0.277 HD
ATOM      8  H21 UNL     1      62.085  40.927  44.861  1.00  0.00     0.277 HD
BRANCH   6   9
HETATM    9  C3  UNL     1      61.299  42.085  43.366  1.00  0.00     0.252 C 
BRANCH   9  10
HETATM   10  C4  UNL     1      60.047  42.200  42.558  1.00  0.00     0.149 C 
BRANCH  10  11
HETATM   11  N3  UNL     1      59.144  43.186  43.074  1.00  0.00    -0.367 N 
ATOM     12  H3  UNL     1      59.278  44.163  42.816  1.00  0.00     0.161 HD
BRANCH  11  13
HETATM   13  C5  UNL     1      58.080  42.847  43.926  1.00  0.00     0.348 C 
HETATM   14  O1  UNL     1      58.233  42.229  44.997  1.00  0.00    -0.284 OA
ENDBRANCH  11  13
ENDBRANCH  10  11
ENDBRANCH   9  10
ENDBRANCH   6   9
ENDBRANCH   5   6
ENDBRANCH   4   5
BRANCH   4  15
HETATM   15  N4  UNL     1      60.532  37.708  45.106  1.00  0.00    -0.370 N 
ATOM     16  H4  UNL     1      60.450  36.980  44.396  1.00  0.00     0.161 HD
BRANCH  15  17
HETATM   17  C6  UNL     1      61.139  37.422  46.380  1.00  0.00     0.223 C 
BRANCH  17  18
HETATM   18  C7  UNL     1      60.194  36.710  47.255  1.00  0.00     0.236 C 
HETATM   19  O2  UNL     1      58.988  36.567  46.881  1.00  0.00    -0.272 OA
HETATM   20  N5  UNL     1      60.592  36.177  48.509  1.00  0.00    -0.339 N 
ATOM     21  H5  UNL     1      61.559  36.288  48.814  1.00  0.00     0.163 HD
BRANCH  20  22
HETATM   22  C8  UNL     1      59.653  35.475  49.367  1.00  0.00     0.263 C 
BRANCH  22  23
HETATM   23  C9  UNL     1      60.299  34.297  50.005  1.00  0.00     0.262 C 
HETATM   24  N6  UNL     1      61.426  34.449  50.845  1.00  0.00    -0.060 NA
HETATM   25  O3  UNL     1      59.848  33.146  49.806  1.00  0.00    -0.274 OA
ENDBRANCH  22  23
BRANCH  22  26
HETATM   26  C10 UNL     1      59.010  36.360  50.336  1.00  0.00     0.262 C 
HETATM   27  N7  UNL     1      58.172  35.833  51.339  1.00  0.00    -0.060 NA
HETATM   28  O4  UNL     1      59.193  37.596  50.287  1.00  0.00    -0.274 OA
ENDBRANCH  22  26
ENDBRANCH  20  22
ENDBRANCH  17  18
ENDBRANCH  15  17
ENDBRANCH   4  15
TORSDOF 12
ENDMDL
MODEL 4
REMARK VINA RESULT: -6.149742258      1.979      7.444
REMARK  12 active torsions:
REMARK  status: ('A' for Active; 'I' for Inactive)
REMARK    1  A    between atoms: C1_4  and  C2_5 
REMARK    2  A    between atoms: C1_4  and  N4_15 
REMARK    3  A    between atoms: C2_5  and  N2_6 
REMARK    4  A    between atoms: N2_6  and  C3_9 
REMARK    5  A    between atoms: C3_9  and  C4_10 
REMARK    6  A    between atoms: C4_10  and  N3_11 
REMARK    7  A    between atoms: N3_11  and  C5_13 
REMARK    8  A    between atoms: N4_15  and  C6_17 
REMARK    9  A    between atoms: C6_17  and  C7_18 
REMARK       I    between atoms: C7_18  and  N5_20 
REMARK   10  A    between atoms: N5_20  and  C8_22 
REMARK   11  A    between atoms: C8_22  and  C9_23 
REMARK   12  A    between atoms: C8_22  and  C10_26 
ROOT
HETATM    1  N1  UNL     1      60.411  38.664  44.599  1.00  0.00    -0.388 N 
ATOM      2  H11 UNL     1      61.145  38.008  44.861  1.00  0.00     0.157 HD
ATOM      3  H12 UNL     1      60.710  39.498  44.093  1.00  0.00     0.157 HD
HETATM    4  C1  UNL     1      59.190  38.434  44.903  1.00  0.00     0.097 C 
ENDROOT
BRANCH   4   5
HETATM    5  C2  UNL     1      58.105  39.404  44.515  1.00  0.00     0.307 C 
BRANCH   5   6
HETATM    6  N2  UNL     1      58.365  40.647  45.194  1.00  0.00    -0.067 N 
ATOM      7  H22 UNL     1      57.868  40.699  46.083  1.00  0.00     0.277 HD
ATOM      8  H21 UNL     1      59.321  40.687  45.545  1.00  0.00     0.277 HD
BRANCH   6   9
HETATM    9  C3  UNL     1      58.064  41.779  44.353  1.00  0.00     0.252 C 
BRANCH   9  10
HETATM   10  C4  UNL     1      58.851  41.756  43.082  1.00  0.00     0.149 C 
BRANCH  10  11
HETATM   11  N3  UNL     1      60.058  42.522  43.165  1.00  0.00    -0.367 N 
ATOM     12  H3  UNL     1      60.024  43.523  42.970  1.00  0.00     0.161 HD
BRANCH  11  13
HETATM   13  C5  UNL     1      61.289  41.938  43.508  1.00  0.00     0.348 C 
HETATM   14  O1  UNL     1      61.507  41.403  44.611  1.00  0.00    -0.284 OA
ENDBRANCH  11  13
ENDBRANCH  10  11
ENDBRANCH   9  10
ENDBRANCH   6   9
ENDBRANCH   5   6
ENDBRANCH   4   5
BRANCH   4  15
HETATM   15  N4  UNL     1      58.773  37.270  45.609  1.00  0.00    -0.370 N 
ATOM     16  H4  UNL     1      57.790  37.128  45.841  1.00  0.00     0.161 HD
BRANCH  15  17
HETATM   17  C6  UNL     1      59.763  36.297  45.992  1.00  0.00     0.223 C 
BRANCH  17  18
HETATM   18  C7  UNL     1      60.179  36.503  47.388  1.00  0.00     0.236 C 
HETATM   19  O2  UNL     1      60.822  37.555  47.696  1.00  0.00    -0.272 OA
HETATM   20  N5  UNL     1      59.882  35.557  48.404  1.00  0.00    -0.339 N 
ATOM     21  H5  UNL     1      59.366  34.711  48.163  1.00  0.00     0.163 HD
BRANCH  20  22
HETATM   22  C8  UNL     1      60.296  35.768  49.781  1.00  0.00     0.263 C 
BRANCH  22  23
HETATM   23  C9  UNL     1      59.201  36.389  50.574  1.00  0.00     0.262 C 
HETATM   24  N6  UNL     1      58.310  35.596  51.332  1.00  0.00    -0.060 NA
HETATM   25  O3  UNL     1      59.054  37.632  50.579  1.00  0.00    -0.274 OA
ENDBRANCH  22  23
BRANCH  22  26
HETATM   26  C10 UNL     1      60.823  34.554  50.400  1.00  0.00     0.262 C 
HETATM   27  N7  UNL     1      61.658  34.633  51.532  1.00  0.00    -0.060 NA
HETATM   28  O4  UNL     1      60.540  33.429  49.934  1.00  0.00    -0.274 OA
ENDBRANCH  22  26
ENDBRANCH  20  22
ENDBRANCH  17  18
ENDBRANCH  15  17
ENDBRANCH   4  15
TORSDOF 12
ENDMDL
MODEL 5
REMARK VINA RESULT: -6.097659368      1.570      2.504
REMARK  12 active torsions:
REMARK  status: ('A' for Active; 'I' for Inactive)
REMARK    1  A    between atoms: C1_4  and  C2_5 
REMARK    2  A    between atoms: C1_4  and  N4_15 
REMARK    3  A    between atoms: C2_5  and  N2_6 
REMARK    4  A    between atoms: N2_6  and  C3_9 
REMARK    5  A    between atoms: C3_9  and  C4_10 
REMARK    6  A    between atoms: C4_10  and  N3_11 
REMARK    7  A    between atoms: N3_11  and  C5_13 
REMARK    8  A    between atoms: N4_15  and  C6_17 
REMARK    9  A    between atoms: C6_17  and  C7_18 
REMARK       I    between atoms: C7_18  and  N5_20 
REMARK   10  A    between atoms: N5_20  and  C8_22 
REMARK   11  A    between atoms: C8_22  and  C9_23 
REMARK   12  A    between atoms: C8_22  and  C10_26 
ROOT
HETATM    1  N1  UNL     1      60.217  35.502  47.762  1.00  0.00    -0.388 N 
ATOM      2  H11 UNL     1      60.694  35.117  46.948  1.00  0.00     0.157 HD
ATOM      3  H12 UNL     1      59.637  34.853  48.295  1.00  0.00     0.157 HD
HETATM    4  C1  UNL     1      60.350  36.735  48.075  1.00  0.00     0.097 C 
ENDROOT
BRANCH   4   5
HETATM    5  C2  UNL     1      59.645  37.303  49.279  1.00  0.00     0.307 C 
BRANCH   5   6
HETATM    6  N2  UNL     1      58.820  36.262  49.835  1.00  0.00    -0.067 N 
ATOM      7  H22 UNL     1      57.944  36.165  49.322  1.00  0.00     0.277 HD
ATOM      8  H21 UNL     1      59.211  35.338  49.654  1.00  0.00     0.277 HD
BRANCH   6   9
HETATM    9  C3  UNL     1      58.587  36.469  51.243  1.00  0.00     0.252 C 
BRANCH   9  10
HETATM   10  C4  UNL     1      59.864  36.514  52.019  1.00  0.00     0.149 C 
BRANCH  10  11
HETATM   11  N3  UNL     1      60.451  35.218  52.191  1.00  0.00    -0.367 N 
ATOM     12  H3  UNL     1      60.158  34.642  52.980  1.00  0.00     0.161 HD
BRANCH  11  13
HETATM   13  C5  UNL     1      61.419  34.716  51.305  1.00  0.00     0.348 C 
HETATM   14  O1  UNL     1      61.135  34.081  50.272  1.00  0.00    -0.284 OA
ENDBRANCH  11  13
ENDBRANCH  10  11
ENDBRANCH   9  10
ENDBRANCH   6   9
ENDBRANCH   5   6
ENDBRANCH   4   5
BRANCH   4  15
HETATM   15  N4  UNL     1      61.159  37.640  47.332  1.00  0.00    -0.370 N 
ATOM     16  H4  UNL     1      61.756  37.303  46.577  1.00  0.00     0.161 HD
BRANCH  15  17
HETATM   17  C6  UNL     1      61.120  39.041  47.664  1.00  0.00     0.223 C 
BRANCH  17  18
HETATM   18  C7  UNL     1      60.374  39.794  46.643  1.00  0.00     0.236 C 
HETATM   19  O2  UNL     1      59.305  40.398  46.972  1.00  0.00    -0.272 OA
HETATM   20  N5  UNL     1      60.816  39.866  45.295  1.00  0.00    -0.339 N 
ATOM     21  H5  UNL     1      61.673  39.383  45.025  1.00  0.00     0.163 HD
BRANCH  20  22
HETATM   22  C8  UNL     1      60.074  40.612  44.293  1.00  0.00     0.263 C 
BRANCH  22  23
HETATM   23  C9  UNL     1      60.971  41.538  43.552  1.00  0.00     0.262 C 
HETATM   24  N6  UNL     1      61.826  41.066  42.531  1.00  0.00    -0.060 NA
HETATM   25  O3  UNL     1      60.979  42.760  43.826  1.00  0.00    -0.274 OA
ENDBRANCH  22  23
BRANCH  22  26
HETATM   26  C10 UNL     1      59.302  39.743  43.406  1.00  0.00     0.262 C 
HETATM   27  N7  UNL     1      58.330  40.287  42.542  1.00  0.00    -0.060 NA
HETATM   28  O4  UNL     1      59.493  38.508  43.402  1.00  0.00    -0.274 OA
ENDBRANCH  22  26
ENDBRANCH  20  22
ENDBRANCH  17  18
ENDBRANCH  15  17
ENDBRANCH   4  15
TORSDOF 12
ENDMDL
