MODEL 1
REMARK VINA RESULT: -6.304017177      0.000      0.000
REMARK  15 active torsions:
REMARK  status: ('A' for Active; 'I' for Inactive)
REMARK    1  A    between atoms: N1_1  and  C1_5 
REMARK    2  A    between atoms: C1_5  and  C2_6 
REMARK    3  A    between atoms: C2_6  and  N2_7 
REMARK    4  A    between atoms: N2_7  and  C3_9 
REMARK    5  A    between atoms: C3_9  and  C4_10 
REMARK    6  A    between atoms: C4_10  and  N3_11 
REMARK    7  A    between atoms: C4_10  and  C9_23 
REMARK    8  A    between atoms: N3_11  and  C5_13 
REMARK    9  A    between atoms: C5_13  and  C6_14 
REMARK   10  A    between atoms: C5_13  and  C8_20 
REMARK   11  A    between atoms: C6_14  and  N4_15 
REMARK   12  A    between atoms: N4_15  and  C7_17 
REMARK   13  A    between atoms: C7_17  and  O1_18 
REMARK   14  A    between atoms: C9_23  and  N6_24 
REMARK   15  A    between atoms: C9_23  and  C10_28 
ROOT
HETATM    1  C4  UNL     1      60.217  37.018  47.713  1.00  0.00     0.134 C 
ENDROOT
BRANCH   1   2
HETATM    2  C3  UNL     1      61.079  38.212  47.470  1.00  0.00     0.141 C 
BRANCH   2   3
HETATM    3  N2  UNL     1      60.462  39.424  47.073  1.00  0.00    -0.418 N 
ATOM      4  H2  UNL     1      59.784  39.899  47.669  1.00  0.00     0.153 HD
BRANCH   3   5
HETATM    5  C2  UNL     1      60.837  39.949  45.793  1.00  0.00     0.141 C 
BRANCH   5   6
HETATM    6  C1  UNL     1      59.745  40.371  44.890  1.00  0.00     0.248 C 
BRANCH   6   7
HETATM    7  N1  UNL     1      58.515  40.451  45.690  1.00  0.00    -0.078 N 
ATOM      8  H13 UNL     1      58.082  39.540  45.844  1.00  0.00     0.274 HD
ATOM      9  H12 UNL     1      58.691  40.682  46.668  1.00  0.00     0.274 HD
ATOM     10  H11 UNL     1      57.893  41.116  45.231  1.00  0.00     0.274 HD
ENDBRANCH   6   7
ENDBRANCH   5   6
ENDBRANCH   3   5
ENDBRANCH   2   3
ENDBRANCH   1   2
BRANCH   1  11
HETATM   11  N3  UNL     1      60.581  36.061  48.689  1.00  0.00    -0.397 N 
ATOM     12  H3  UNL     1      61.555  35.915  48.955  1.00  0.00     0.154 HD
BRANCH  11  13
HETATM   13  C5  UNL     1      59.499  35.294  49.297  1.00  0.00     0.206 C 
BRANCH  13  14
HETATM   14  C6  UNL     1      58.794  36.020  50.349  1.00  0.00     0.091 C 
BRANCH  14  15
HETATM   15  N4  UNL     1      58.812  35.707  51.722  1.00  0.00    -0.379 N 
ATOM     16  H4  UNL     1      58.208  34.986  52.116  1.00  0.00     0.160 HD
BRANCH  15  17
HETATM   17  C7  UNL     1      59.740  36.470  52.555  1.00  0.00     0.286 C 
BRANCH  17  18
HETATM   18  O1  UNL     1      60.698  35.760  53.110  1.00  0.00    -0.382 OA
ATOM     19  H1  UNL     1      61.253  36.240  53.714  1.00  0.00     0.211 HD
ENDBRANCH  17  18
ENDBRANCH  15  17
ENDBRANCH  14  15
ENDBRANCH  13  14
BRANCH  13  20
HETATM   20  C8  UNL     1      60.275  34.066  49.789  1.00  0.00     0.258 C 
HETATM   21  N5  UNL     1      59.918  32.730  49.559  1.00  0.00    -0.060 NA
HETATM   22  O2  UNL     1      61.299  34.266  50.475  1.00  0.00    -0.274 OA
ENDBRANCH  13  20
ENDBRANCH  11  13
ENDBRANCH   1  11
BRANCH   1  23
HETATM   23  C9  UNL     1      60.146  36.194  46.374  1.00  0.00     0.295 C 
BRANCH  23  24
HETATM   24  N6  UNL     1      61.424  36.307  45.715  1.00  0.00    -0.065 N 
ATOM     25  H63 UNL     1      61.344  36.632  44.752  1.00  0.00     0.275 HD
ATOM     26  H62 UNL     1      61.987  37.079  46.073  1.00  0.00     0.275 HD
ATOM     27  H61 UNL     1      61.896  35.406  45.789  1.00  0.00     0.275 HD
ENDBRANCH  23  24
BRANCH  23  28
HETATM   28  C10 UNL     1      59.037  36.550  45.522  1.00  0.00     0.263 C 
HETATM   29  N7  UNL     1      58.754  35.853  44.312  1.00  0.00    -0.060 NA
HETATM   30  O3  UNL     1      58.241  37.499  45.776  1.00  0.00    -0.274 OA
ENDBRANCH  23  28
ENDBRANCH   1  23
TORSDOF 15
ENDMDL
MODEL 2
REMARK VINA RESULT: -6.103487338      1.293      1.650
REMARK  15 active torsions:
REMARK  status: ('A' for Active; 'I' for Inactive)
REMARK    1  A    between atoms: N1_1  and  C1_5 
REMARK    2  A    between atoms: C1_5  and  C2_6 
REMARK    3  A    between atoms: C2_6  and  N2_7 
REMARK    4  A    between atoms: N2_7  and  C3_9 
REMARK    5  A    between atoms: C3_9  and  C4_10 
REMARK    6  A    between atoms: C4_10  and  N3_11 
REMARK    7  A    between atoms: C4_10  and  C9_23 
REMARK    8  A    between atoms: N3_11  and  C5_13 
REMARK    9  A    between atoms: C5_13  and  C6_14 
REMARK   10  A    between atoms: C5_13  and  C8_20 
REMARK   11  A    between atoms: C6_14  and  N4_15 
REMARK   12  A    between atoms: N4_15  and  C7_17 
REMARK   13  A    between atoms: C7_17  and  O1_18 
REMARK   14  A    between atoms: C9_23  and  N6_24 
REMARK   15  A    between atoms: C9_23  and  C10_28 
ROOT
HETATM    1  C4  UNL     1      60.087  37.133  47.339  1.00  0.00     0.134 C 
ENDROOT
BRANCH   1   2
HETATM    2  C3  UNL     1      60.971  38.274  46.962  1.00  0.00     0.141 C 
BRANCH   2   3
HETATM    3  N2  UNL     1      60.379  39.533  46.697  1.00  0.00    -0.418 N 
ATOM      4  H2  UNL     1      59.884  40.054  47.421  1.00  0.00     0.153 HD
BRANCH   3   5
HETATM    5  C2  UNL     1      60.508  40.038  45.362  1.00  0.00     0.141 C 
BRANCH   5   6
HETATM    6  C1  UNL     1      59.285  40.564  44.717  1.00  0.00     0.248 C 
BRANCH   6   7
HETATM    7  N1  UNL     1      58.225  40.586  45.733  1.00  0.00    -0.078 N 
ATOM      8  H13 UNL     1      58.365  39.894  46.470  1.00  0.00     0.274 HD
ATOM      9  H12 UNL     1      58.256  41.417  46.324  1.00  0.00     0.274 HD
ATOM     10  H11 UNL     1      57.333  40.476  45.249  1.00  0.00     0.274 HD
ENDBRANCH   6   7
ENDBRANCH   5   6
ENDBRANCH   3   5
ENDBRANCH   2   3
ENDBRANCH   1   2
BRANCH   1  11
HETATM   11  N3  UNL     1      60.462  36.252  48.379  1.00  0.00    -0.397 N 
ATOM     12  H3  UNL     1      60.881  35.342  48.182  1.00  0.00     0.154 HD
BRANCH  11  13
HETATM   13  C5  UNL     1      60.223  36.702  49.747  1.00  0.00     0.206 C 
BRANCH  13  14
HETATM   14  C6  UNL     1      61.425  36.703  50.575  1.00  0.00     0.091 C 
BRANCH  14  15
HETATM   15  N4  UNL     1      62.099  35.562  51.053  1.00  0.00    -0.379 N 
ATOM     16  H4  UNL     1      62.927  35.193  50.586  1.00  0.00     0.160 HD
BRANCH  15  17
HETATM   17  C7  UNL     1      61.549  34.933  52.253  1.00  0.00     0.286 C 
BRANCH  17  18
HETATM   18  O1  UNL     1      60.880  35.742  53.045  1.00  0.00    -0.382 OA
ATOM     19  H1  UNL     1      59.949  35.562  53.106  1.00  0.00     0.211 HD
ENDBRANCH  17  18
ENDBRANCH  15  17
ENDBRANCH  14  15
ENDBRANCH  13  14
BRANCH  13  20
HETATM   20  C8  UNL     1      59.155  35.694  50.186  1.00  0.00     0.258 C 
HETATM   21  N5  UNL     1      58.175  35.918  51.163  1.00  0.00    -0.060 NA
HETATM   22  O2  UNL     1      59.169  34.565  49.651  1.00  0.00    -0.274 OA
ENDBRANCH  13  20
ENDBRANCH  11  13
ENDBRANCH   1  11
BRANCH   1  23
HETATM   23  C9  UNL     1      59.936  36.201  46.081  1.00  0.00     0.295 C 
BRANCH  23  24
HETATM   24  N6  UNL     1      61.202  36.180  45.390  1.00  0.00    -0.065 N 
ATOM     25  H63 UNL     1      61.193  36.731  44.532  1.00  0.00     0.275 HD
ATOM     26  H62 UNL     1      61.929  36.703  45.880  1.00  0.00     0.275 HD
ATOM     27  H61 UNL     1      61.456  35.205  45.230  1.00  0.00     0.275 HD
ENDBRANCH  23  24
BRANCH  23  28
HETATM   28  C10 UNL     1      58.829  36.547  45.221  1.00  0.00     0.263 C 
HETATM   29  N7  UNL     1      58.518  35.803  44.046  1.00  0.00    -0.060 NA
HETATM   30  O3  UNL     1      58.061  37.527  45.438  1.00  0.00    -0.274 OA
ENDBRANCH  23  28
ENDBRANCH   1  23
TORSDOF 15
ENDMDL
MODEL 3
REMARK VINA RESULT: -5.837491334      1.466      2.054
REMARK  15 active torsions:
REMARK  status: ('A' for Active; 'I' for Inactive)
REMARK    1  A    between atoms: N1_1  and  C1_5 
REMARK    2  A    between atoms: C1_5  and  C2_6 
REMARK    3  A    between atoms: C2_6  and  N2_7 
REMARK    4  A    between atoms: N2_7  and  C3_9 
REMARK    5  A    between atoms: C3_9  and  C4_10 
REMARK    6  A    between atoms: C4_10  and  N3_11 
REMARK    7  A    between atoms: C4_10  and  C9_23 
REMARK    8  A    between atoms: N3_11  and  C5_13 
REMARK    9  A    between atoms: C5_13  and  C6_14 
REMARK   10  A    between atoms: C5_13  and  C8_20 
REMARK   11  A    between atoms: C6_14  and  N4_15 
REMARK   12  A    between atoms: N4_15  and  C7_17 
REMARK   13  A    between atoms: C7_17  and  O1_18 
REMARK   14  A    between atoms: C9_23  and  N6_24 
REMARK   15  A    between atoms: C9_23  and  C10_28 
ROOT
HETATM    1  C4  UNL     1      59.725  37.107  47.130  1.00  0.00     0.134 C 
ENDROOT
BRANCH   1   2
HETATM    2  C3  UNL     1      60.922  37.924  47.481  1.00  0.00     0.141 C 
BRANCH   2   3
HETATM    3  N2  UNL     1      60.847  39.332  47.340  1.00  0.00    -0.418 N 
ATOM      4  H2  UNL     1      61.664  39.927  47.476  1.00  0.00     0.153 HD
BRANCH   3   5
HETATM    5  C2  UNL     1      59.567  39.878  46.995  1.00  0.00     0.141 C 
BRANCH   5   6
HETATM    6  C1  UNL     1      59.369  40.297  45.590  1.00  0.00     0.248 C 
BRANCH   6   7
HETATM    7  N1  UNL     1      58.077  39.758  45.146  1.00  0.00    -0.078 N 
ATOM      8  H13 UNL     1      58.173  38.996  44.476  1.00  0.00     0.274 HD
ATOM      9  H12 UNL     1      57.593  39.233  45.876  1.00  0.00     0.274 HD
ATOM     10  H11 UNL     1      57.526  40.538  44.786  1.00  0.00     0.274 HD
ENDBRANCH   6   7
ENDBRANCH   5   6
ENDBRANCH   3   5
ENDBRANCH   2   3
ENDBRANCH   1   2
BRANCH   1  11
HETATM   11  N3  UNL     1      59.164  36.218  48.078  1.00  0.00    -0.397 N 
ATOM     12  H3  UNL     1      58.263  35.767  47.917  1.00  0.00     0.154 HD
BRANCH  11  13
HETATM   13  C5  UNL     1      59.933  35.977  49.294  1.00  0.00     0.206 C 
BRANCH  13  14
HETATM   14  C6  UNL     1      60.251  34.570  49.509  1.00  0.00     0.091 C 
BRANCH  14  15
HETATM   15  N4  UNL     1      60.592  33.979  50.741  1.00  0.00    -0.379 N 
ATOM     16  H4  UNL     1      60.247  33.057  51.008  1.00  0.00     0.160 HD
BRANCH  15  17
HETATM   17  C7  UNL     1      61.465  34.755  51.620  1.00  0.00     0.286 C 
BRANCH  17  18
HETATM   18  O1  UNL     1      62.499  35.309  51.025  1.00  0.00    -0.382 OA
ATOM     19  H1  UNL     1      62.919  36.005  51.517  1.00  0.00     0.211 HD
ENDBRANCH  17  18
ENDBRANCH  15  17
ENDBRANCH  14  15
ENDBRANCH  13  14
BRANCH  13  20
HETATM   20  C8  UNL     1      58.987  36.578  50.341  1.00  0.00     0.258 C 
HETATM   21  N5  UNL     1      58.072  35.857  51.121  1.00  0.00    -0.060 NA
HETATM   22  O2  UNL     1      59.008  37.817  50.498  1.00  0.00    -0.274 OA
ENDBRANCH  13  20
ENDBRANCH  11  13
ENDBRANCH   1  11
BRANCH   1  23
HETATM   23  C9  UNL     1      60.109  36.182  45.917  1.00  0.00     0.295 C 
BRANCH  23  24
HETATM   24  N6  UNL     1      61.542  36.232  45.757  1.00  0.00    -0.065 N 
ATOM     25  H63 UNL     1      61.829  36.762  44.935  1.00  0.00     0.275 HD
ATOM     26  H62 UNL     1      61.998  36.813  46.460  1.00  0.00     0.275 HD
ATOM     27  H61 UNL     1      61.891  35.273  45.749  1.00  0.00     0.275 HD
ENDBRANCH  23  24
BRANCH  23  28
HETATM   28  C10 UNL     1      59.394  36.481  44.699  1.00  0.00     0.263 C 
HETATM   29  N7  UNL     1      58.201  35.796  44.331  1.00  0.00    -0.060 NA
HETATM   30  O3  UNL     1      59.768  37.360  43.872  1.00  0.00    -0.274 OA
ENDBRANCH  23  28
ENDBRANCH   1  23
TORSDOF 15
ENDMDL
MODEL 4
REMARK VINA RESULT: -5.699204131      3.108      6.295
REMARK  15 active torsions:
REMARK  status: ('A' for Active; 'I' for Inactive)
REMARK    1  A    between atoms: N1_1  and  C1_5 
REMARK    2  A    between atoms: C1_5  and  C2_6 
REMARK    3  A    between atoms: C2_6  and  N2_7 
REMARK    4  A    between atoms: N2_7  and  C3_9 
REMARK    5  A    between atoms: C3_9  and  C4_10 
REMARK    6  A    between atoms: C4_10  and  N3_11 
REMARK    7  A    between atoms: C4_10  and  C9_23 
REMARK    8  A    between atoms: N3_11  and  C5_13 
REMARK    9  A    between atoms: C5_13  and  C6_14 
REMARK   10  A    between atoms: C5_13  and  C8_20 
REMARK   11  A    between atoms: C6_14  and  N4_15 
REMARK   12  A    between atoms: N4_15  and  C7_17 
REMARK   13  A    between atoms: C7_17  and  O1_18 
REMARK   14  A    between atoms: C9_23  and  N6_24 
REMARK   15  A    between atoms: C9_23  and  C10_28 
ROOT
HETATM    1  C4  UNL     1      60.195  37.483  46.684  1.00  0.00     0.134 C 
ENDROOT
BRANCH   1   2
HETATM    2  C3  UNL     1      59.786  36.956  48.018  1.00  0.00     0.141 C 
BRANCH   2   3
HETATM    3  N2  UNL     1      60.448  35.812  48.527  1.00  0.00    -0.418 N 
ATOM      4  H2  UNL     1      61.165  35.325  47.990  1.00  0.00     0.153 HD
BRANCH   3   5
HETATM    5  C2  UNL     1      60.061  35.373  49.836  1.00  0.00     0.141 C 
BRANCH   5   6
HETATM    6  C1  UNL     1      61.070  34.631  50.625  1.00  0.00     0.248 C 
BRANCH   6   7
HETATM    7  N1  UNL     1      62.126  35.582  50.996  1.00  0.00    -0.078 N 
ATOM      8  H13 UNL     1      61.793  36.544  51.056  1.00  0.00     0.274 HD
ATOM      9  H12 UNL     1      62.426  35.484  51.967  1.00  0.00     0.274 HD
ATOM     10  H11 UNL     1      62.891  35.466  50.331  1.00  0.00     0.274 HD
ENDBRANCH   6   7
ENDBRANCH   5   6
ENDBRANCH   3   5
ENDBRANCH   2   3
ENDBRANCH   1   2
BRANCH   1  11
HETATM   11  N3  UNL     1      59.359  38.383  45.983  1.00  0.00    -0.397 N 
ATOM     12  H3  UNL     1      58.660  38.053  45.317  1.00  0.00     0.154 HD
BRANCH  11  13
HETATM   13  C5  UNL     1      59.541  39.805  46.258  1.00  0.00     0.206 C 
BRANCH  13  14
HETATM   14  C6  UNL     1      58.328  40.592  46.060  1.00  0.00     0.091 C 
BRANCH  14  15
HETATM   15  N4  UNL     1      57.704  40.850  44.824  1.00  0.00    -0.379 N 
ATOM     16  H4  UNL     1      57.261  40.109  44.281  1.00  0.00     0.160 HD
BRANCH  15  17
HETATM   17  C7  UNL     1      57.724  42.236  44.358  1.00  0.00     0.286 C 
BRANCH  17  18
HETATM   18  O1  UNL     1      57.748  43.141  45.311  1.00  0.00    -0.382 OA
ATOM     19  H1  UNL     1      57.191  43.896  45.161  1.00  0.00     0.211 HD
ENDBRANCH  17  18
ENDBRANCH  15  17
ENDBRANCH  14  15
ENDBRANCH  13  14
BRANCH  13  20
HETATM   20  C8  UNL     1      60.673  40.131  45.277  1.00  0.00     0.258 C 
HETATM   21  N5  UNL     1      60.682  39.821  43.910  1.00  0.00    -0.060 NA
HETATM   22  O2  UNL     1      61.689  40.698  45.733  1.00  0.00    -0.274 OA
ENDBRANCH  13  20
ENDBRANCH  11  13
ENDBRANCH   1  11
BRANCH   1  23
HETATM   23  C9  UNL     1      60.347  36.259  45.706  1.00  0.00     0.295 C 
BRANCH  23  24
HETATM   24  N6  UNL     1      61.740  36.147  45.348  1.00  0.00    -0.065 N 
ATOM     25  H63 UNL     1      61.927  36.447  44.391  1.00  0.00     0.275 HD
ATOM     26  H62 UNL     1      62.327  36.834  45.822  1.00  0.00     0.275 HD
ATOM     27  H61 UNL     1      62.033  35.187  45.525  1.00  0.00     0.275 HD
ENDBRANCH  23  24
BRANCH  23  28
HETATM   28  C10 UNL     1      59.471  36.309  44.560  1.00  0.00     0.263 C 
HETATM   29  N7  UNL     1      58.113  35.883  44.622  1.00  0.00    -0.060 NA
HETATM   30  O3  UNL     1      59.836  36.726  43.424  1.00  0.00    -0.274 OA
ENDBRANCH  23  28
ENDBRANCH   1  23
TORSDOF 15
ENDMDL
MODEL 5
REMARK VINA RESULT: -5.577162660      3.012      6.105
REMARK  15 active torsions:
REMARK  status: ('A' for Active; 'I' for Inactive)
REMARK    1  A    between atoms: N1_1  and  C1_5 
REMARK    2  A    between atoms: C1_5  and  C2_6 
REMARK    3  A    between atoms: C2_6  and  N2_7 
REMARK    4  A    between atoms: N2_7  and  C3_9 
REMARK    5  A    between atoms: C3_9  and  C4_10 
REMARK    6  A    between atoms: C4_10  and  N3_11 
REMARK    7  A    between atoms: C4_10  and  C9_23 
REMARK    8  A    between atoms: N3_11  and  C5_13 
REMARK    9  A    between atoms: C5_13  and  C6_14 
REMARK   10  A    between atoms: C5_13  and  C8_20 
REMARK   11  A    between atoms: C6_14  and  N4_15 
REMARK   12  A    between atoms: N4_15  and  C7_17 
REMARK   13  A    between atoms: C7_17  and  O1_18 
REMARK   14  A    between atoms: C9_23  and  N6_24 
REMARK   15  A    between atoms: C9_23  and  C10_28 
ROOT
HETATM    1  C4  UNL     1      60.149  37.421  46.747  1.00  0.00     0.134 C 
ENDROOT
BRANCH   1   2
HETATM    2  C3  UNL     1      59.712  36.805  48.034  1.00  0.00     0.141 C 
BRANCH   2   3
HETATM    3  N2  UNL     1      60.290  35.572  48.426  1.00  0.00    -0.418 N 
ATOM      4  H2  UNL     1      60.683  34.925  47.743  1.00  0.00     0.153 HD
BRANCH   3   5
HETATM    5  C2  UNL     1      60.294  35.279  49.829  1.00  0.00     0.141 C 
BRANCH   5   6
HETATM    6  C1  UNL     1      60.812  36.327  50.736  1.00  0.00     0.248 C 
BRANCH   6   7
HETATM    7  N1  UNL     1      62.241  36.061  50.948  1.00  0.00    -0.078 N 
ATOM      8  H13 UNL     1      62.431  35.585  51.830  1.00  0.00     0.274 HD
ATOM      9  H12 UNL     1      62.608  35.340  50.326  1.00  0.00     0.274 HD
ATOM     10  H11 UNL     1      62.735  36.949  50.861  1.00  0.00     0.274 HD
ENDBRANCH   6   7
ENDBRANCH   5   6
ENDBRANCH   3   5
ENDBRANCH   2   3
ENDBRANCH   1   2
BRANCH   1  11
HETATM   11  N3  UNL     1      59.320  38.357  46.086  1.00  0.00    -0.397 N 
ATOM     12  H3  UNL     1      58.617  38.061  45.408  1.00  0.00     0.154 HD
BRANCH  11  13
HETATM   13  C5  UNL     1      59.516  39.764  46.419  1.00  0.00     0.206 C 
BRANCH  13  14
HETATM   14  C6  UNL     1      58.358  40.598  46.111  1.00  0.00     0.091 C 
BRANCH  14  15
HETATM   15  N4  UNL     1      58.098  41.227  44.878  1.00  0.00    -0.379 N 
ATOM     16  H4  UNL     1      58.430  42.170  44.676  1.00  0.00     0.160 HD
BRANCH  15  17
HETATM   17  C7  UNL     1      57.328  40.458  43.902  1.00  0.00     0.286 C 
BRANCH  17  18
HETATM   18  O1  UNL     1      57.926  39.376  43.453  1.00  0.00    -0.382 OA
ATOM     19  H1  UNL     1      58.837  39.286  43.708  1.00  0.00     0.211 HD
ENDBRANCH  17  18
ENDBRANCH  15  17
ENDBRANCH  14  15
ENDBRANCH  13  14
BRANCH  13  20
HETATM   20  C8  UNL     1      60.759  40.075  45.578  1.00  0.00     0.258 C 
HETATM   21  N5  UNL     1      60.879  39.876  44.196  1.00  0.00    -0.060 NA
HETATM   22  O2  UNL     1      61.765  40.518  46.173  1.00  0.00    -0.274 OA
ENDBRANCH  13  20
ENDBRANCH  11  13
ENDBRANCH   1  11
BRANCH   1  23
HETATM   23  C9  UNL     1      60.336  36.264  45.697  1.00  0.00     0.295 C 
BRANCH  23  24
HETATM   24  N6  UNL     1      61.734  36.204  45.347  1.00  0.00    -0.065 N 
ATOM     25  H63 UNL     1      62.344  36.504  46.106  1.00  0.00     0.275 HD
ATOM     26  H62 UNL     1      62.080  35.247  45.264  1.00  0.00     0.275 HD
ATOM     27  H61 UNL     1      61.868  36.748  44.495  1.00  0.00     0.275 HD
ENDBRANCH  23  24
BRANCH  23  28
HETATM   28  C10 UNL     1      59.469  36.367  44.547  1.00  0.00     0.263 C 
HETATM   29  N7  UNL     1      58.141  35.853  44.548  1.00  0.00    -0.060 NA
HETATM   30  O3  UNL     1      59.819  36.910  43.461  1.00  0.00    -0.274 OA
ENDBRANCH  23  28
ENDBRANCH   1  23
TORSDOF 15
ENDMDL
