MODEL 1
REMARK VINA RESULT: -7.578663809      0.000      0.000
REMARK  10 active torsions:
REMARK  status: ('A' for Active; 'I' for Inactive)
REMARK    1  A    between atoms: N2_3  and  C2_4 
REMARK    2  A    between atoms: N2_3  and  C9_23 
REMARK    3  A    between atoms: C2_4  and  C3_5 
REMARK    4  A    between atoms: N3_6  and  C4_8 
REMARK    5  A    between atoms: C4_8  and  O1_9 
REMARK    6  A    between atoms: C4_8  and  C5_11 
REMARK    7  A    between atoms: C7_15  and  N5_16 
REMARK    8  A    between atoms: C10_26  and  C11_27 
REMARK    9  A    between atoms: C11_27  and  O2_28 
REMARK   10  A    between atoms: O2_28  and  N9_29 
ROOT
HETATM    1  N1  UNL     1      -7.601  -3.706 -11.520  1.00  0.00    -0.171 NA
HETATM    2  C1  UNL     1      -7.955  -3.950 -10.438  1.00  0.00     0.199 C 
HETATM    3  N2  UNL     1      -8.366  -4.228  -9.122  1.00  0.00    -0.113 N 
ENDROOT
BRANCH   3   4
HETATM    4  C2  UNL     1      -7.981  -3.441  -7.997  1.00  0.00     0.204 C 
BRANCH   4   5
HETATM    5  C3  UNL     1      -6.791  -3.954  -7.289  1.00  0.00     0.080 C 
HETATM    6  N3  UNL     1      -5.594  -3.690  -7.605  1.00  0.00    -0.371 N 
ATOM      7  H3  UNL     1      -5.392  -3.084  -8.399  1.00  0.00     0.161 HD
BRANCH   6   8
HETATM    8  C4  UNL     1      -4.513  -4.261  -6.821  1.00  0.00     0.256 C 
BRANCH   8   9
HETATM    9  O1  UNL     1      -4.817  -4.036  -5.482  1.00  0.00    -0.372 OA
ATOM     10  H1  UNL     1      -4.215  -4.560  -4.968  1.00  0.00     0.212 HD
ENDBRANCH   8   9
BRANCH   8  11
HETATM   11  C5  UNL     1      -3.232  -3.575  -7.133  1.00  0.00     0.047 A 
HETATM   12  C6  UNL     1      -3.131  -2.593  -8.100  1.00  0.00     0.121 A 
HETATM   13  N4  UNL     1      -1.952  -2.001  -8.367  1.00  0.00    -0.201 N 
HETATM   14  C7  UNL     1      -0.850  -2.367  -7.684  1.00  0.00     0.676 A 
ATOM     15  H4  UNL     1      -1.893  -1.278  -9.084  1.00  0.00     0.183 HD
HETATM   16  N6  UNL     1      -0.885  -3.319  -6.726  1.00  0.00    -0.178 N 
HETATM   17  C8  UNL     1      -2.060  -3.907  -6.463  1.00  0.00     0.143 A 
ATOM     18  H6  UNL     1      -0.040  -3.583  -6.219  1.00  0.00     0.185 HD
HETATM   19  N7  UNL     1      -2.120  -4.901  -5.457  1.00  0.00    -0.081 NA
BRANCH  14  20
HETATM   20  N5  UNL     1       0.251  -1.794  -7.958  1.00  0.00    -0.234 N 
ATOM     21  H52 UNL     1       0.494  -0.921  -7.490  1.00  0.00     0.174 HD
ATOM     22  H51 UNL     1       0.868  -2.230  -8.643  1.00  0.00     0.174 HD
ENDBRANCH  14  20
ENDBRANCH   8  11
ENDBRANCH   6   8
ENDBRANCH   4   5
ENDBRANCH   3   4
BRANCH   3  23
HETATM   23  C9  UNL     1      -9.202  -5.354  -8.925  1.00  0.00     0.694 A 
HETATM   24  N8  UNL     1     -10.033  -5.525  -7.886  1.00  0.00    -0.191 N 
HETATM   25  C10 UNL     1     -10.694  -6.702  -7.986  1.00  0.00     0.068 A 
ATOM     26  H8  UNL     1     -10.151  -4.858  -7.123  1.00  0.00     0.184 HD
HETATM   27  C12 UNL     1     -10.230  -7.271  -9.158  1.00  0.00     0.134 A 
HETATM   28  N10 UNL     1      -9.329  -6.453  -9.723  1.00  0.00    -0.199 N 
ATOM     29  H10 UNL     1      -8.827  -6.623 -10.595  1.00  0.00     0.183 HD
BRANCH  25  30
HETATM   30  C11 UNL     1     -11.692  -7.219  -7.006  1.00  0.00     0.259 C 
BRANCH  30  31
HETATM   31  O2  UNL     1     -11.048  -8.117  -6.172  1.00  0.00    -0.281 OA
BRANCH  31  32
HETATM   32  N9  UNL     1     -10.886  -7.709  -4.921  1.00  0.00    -0.311 N 
ATOM     33  H92 UNL     1     -10.956  -8.357  -4.136  1.00  0.00     0.184 HD
ATOM     34  H91 UNL     1     -10.689  -6.714  -4.809  1.00  0.00     0.184 HD
ENDBRANCH  31  32
ENDBRANCH  30  31
ENDBRANCH  25  30
ENDBRANCH   3  23
TORSDOF 10
ENDMDL
MODEL 2
REMARK VINA RESULT: -7.559869463      2.431      4.708
REMARK  10 active torsions:
REMARK  status: ('A' for Active; 'I' for Inactive)
REMARK    1  A    between atoms: N2_3  and  C2_4 
REMARK    2  A    between atoms: N2_3  and  C9_23 
REMARK    3  A    between atoms: C2_4  and  C3_5 
REMARK    4  A    between atoms: N3_6  and  C4_8 
REMARK    5  A    between atoms: C4_8  and  O1_9 
REMARK    6  A    between atoms: C4_8  and  C5_11 
REMARK    7  A    between atoms: C7_15  and  N5_16 
REMARK    8  A    between atoms: C10_26  and  C11_27 
REMARK    9  A    between atoms: C11_27  and  O2_28 
REMARK   10  A    between atoms: O2_28  and  N9_29 
ROOT
HETATM    1  N1  UNL     1      -8.126  -6.946  -9.803  1.00  0.00    -0.171 NA
HETATM    2  C1  UNL     1      -8.025  -5.802  -9.620  1.00  0.00     0.199 C 
HETATM    3  N2  UNL     1      -7.908  -4.422  -9.374  1.00  0.00    -0.113 N 
ENDROOT
BRANCH   3   4
HETATM    4  C2  UNL     1      -7.934  -3.852  -8.067  1.00  0.00     0.204 C 
BRANCH   4   5
HETATM    5  C3  UNL     1      -6.752  -4.185  -7.247  1.00  0.00     0.080 C 
HETATM    6  N3  UNL     1      -5.553  -3.987  -7.597  1.00  0.00    -0.371 N 
ATOM      7  H3  UNL     1      -5.341  -3.570  -8.504  1.00  0.00     0.161 HD
BRANCH   6   8
HETATM    8  C4  UNL     1      -4.480  -4.361  -6.692  1.00  0.00     0.256 C 
BRANCH   8   9
HETATM    9  O1  UNL     1      -4.870  -3.971  -5.415  1.00  0.00    -0.372 OA
ATOM     10  H1  UNL     1      -4.080  -3.882  -4.896  1.00  0.00     0.212 HD
ENDBRANCH   8   9
BRANCH   8  11
HETATM   11  C5  UNL     1      -3.232  -3.634  -7.044  1.00  0.00     0.047 A 
HETATM   12  C6  UNL     1      -3.188  -2.668  -8.029  1.00  0.00     0.121 A 
HETATM   13  N4  UNL     1      -2.037  -2.038  -8.333  1.00  0.00    -0.201 N 
HETATM   14  C7  UNL     1      -0.908  -2.350  -7.667  1.00  0.00     0.676 A 
ATOM     15  H4  UNL     1      -2.019  -1.327  -9.064  1.00  0.00     0.183 HD
HETATM   16  N6  UNL     1      -0.888  -3.285  -6.692  1.00  0.00    -0.178 N 
HETATM   17  C8  UNL     1      -2.035  -3.911  -6.392  1.00  0.00     0.143 A 
ATOM     18  H6  UNL     1      -0.024  -3.509  -6.197  1.00  0.00     0.185 HD
HETATM   19  N7  UNL     1      -2.037  -4.887  -5.368  1.00  0.00    -0.081 NA
BRANCH  14  20
HETATM   20  N5  UNL     1       0.165  -1.743  -7.974  1.00  0.00    -0.234 N 
ATOM     21  H52 UNL     1       0.398  -0.866  -7.508  1.00  0.00     0.174 HD
ATOM     22  H51 UNL     1       0.771  -2.155  -8.684  1.00  0.00     0.174 HD
ENDBRANCH  14  20
ENDBRANCH   8  11
ENDBRANCH   6   8
ENDBRANCH   4   5
ENDBRANCH   3   4
BRANCH   3  23
HETATM   23  C9  UNL     1      -7.761  -3.570 -10.497  1.00  0.00     0.694 A 
HETATM   24  N8  UNL     1      -6.727  -2.742 -10.707  1.00  0.00    -0.191 N 
HETATM   25  C10 UNL     1      -6.881  -2.064 -11.868  1.00  0.00     0.068 A 
ATOM     26  H8  UNL     1      -5.932  -2.638 -10.077  1.00  0.00     0.184 HD
HETATM   27  C12 UNL     1      -8.082  -2.514 -12.385  1.00  0.00     0.134 A 
HETATM   28  N10 UNL     1      -8.611  -3.425 -11.554  1.00  0.00    -0.199 N 
ATOM     29  H10 UNL     1      -9.492  -3.921 -11.688  1.00  0.00     0.183 HD
BRANCH  25  30
HETATM   30  C11 UNL     1      -5.926  -1.057 -12.414  1.00  0.00     0.259 C 
BRANCH  30  31
HETATM   31  O2  UNL     1      -5.215  -1.654 -13.440  1.00  0.00    -0.281 OA
BRANCH  31  32
HETATM   32  N9  UNL     1      -3.968  -1.991 -13.141  1.00  0.00    -0.311 N 
ATOM     33  H92 UNL     1      -3.733  -2.433 -12.253  1.00  0.00     0.184 HD
ATOM     34  H91 UNL     1      -3.275  -1.776 -13.859  1.00  0.00     0.184 HD
ENDBRANCH  31  32
ENDBRANCH  30  31
ENDBRANCH  25  30
ENDBRANCH   3  23
TORSDOF 10
ENDMDL
MODEL 3
REMARK VINA RESULT: -7.525099594      2.340      4.508
REMARK  10 active torsions:
REMARK  status: ('A' for Active; 'I' for Inactive)
REMARK    1  A    between atoms: N2_3  and  C2_4 
REMARK    2  A    between atoms: N2_3  and  C9_23 
REMARK    3  A    between atoms: C2_4  and  C3_5 
REMARK    4  A    between atoms: N3_6  and  C4_8 
REMARK    5  A    between atoms: C4_8  and  O1_9 
REMARK    6  A    between atoms: C4_8  and  C5_11 
REMARK    7  A    between atoms: C7_15  and  N5_16 
REMARK    8  A    between atoms: C10_26  and  C11_27 
REMARK    9  A    between atoms: C11_27  and  O2_28 
REMARK   10  A    between atoms: O2_28  and  N9_29 
ROOT
HETATM    1  N1  UNL     1      -9.791  -7.189  -9.289  1.00  0.00    -0.171 NA
HETATM    2  C1  UNL     1      -8.814  -6.576  -9.141  1.00  0.00     0.199 C 
HETATM    3  N2  UNL     1      -7.622  -5.854  -8.951  1.00  0.00    -0.113 N 
ENDROOT
BRANCH   3   4
HETATM    4  C2  UNL     1      -6.420  -6.439  -8.452  1.00  0.00     0.204 C 
BRANCH   4   5
HETATM    5  C3  UNL     1      -5.719  -5.605  -7.455  1.00  0.00     0.080 C 
HETATM    6  N3  UNL     1      -4.474  -5.376  -7.455  1.00  0.00    -0.371 N 
ATOM      7  H3  UNL     1      -3.875  -5.777  -8.176  1.00  0.00     0.161 HD
BRANCH   6   8
HETATM    8  C4  UNL     1      -3.910  -4.534  -6.414  1.00  0.00     0.256 C 
BRANCH   8   9
HETATM    9  O1  UNL     1      -4.942  -3.735  -5.933  1.00  0.00    -0.372 OA
ATOM     10  H1  UNL     1      -4.753  -3.557  -5.019  1.00  0.00     0.212 HD
ENDBRANCH   8   9
BRANCH   8  11
HETATM   11  C5  UNL     1      -2.857  -3.652  -6.980  1.00  0.00     0.047 A 
HETATM   12  C6  UNL     1      -1.568  -3.620  -6.485  1.00  0.00     0.121 A 
HETATM   13  N4  UNL     1      -0.641  -2.798  -7.013  1.00  0.00    -0.201 N 
HETATM   14  C7  UNL     1      -0.970  -1.992  -8.041  1.00  0.00     0.676 A 
ATOM     15  H4  UNL     1       0.307  -2.786  -6.636  1.00  0.00     0.183 HD
HETATM   16  N6  UNL     1      -2.213  -1.978  -8.570  1.00  0.00    -0.178 N 
HETATM   17  C8  UNL     1      -3.134  -2.797  -8.042  1.00  0.00     0.143 A 
ATOM     18  H6  UNL     1      -2.444  -1.361  -9.349  1.00  0.00     0.185 HD
HETATM   19  N7  UNL     1      -4.439  -2.804  -8.587  1.00  0.00    -0.081 NA
BRANCH  14  20
HETATM   20  N5  UNL     1      -0.078  -1.224  -8.519  1.00  0.00    -0.234 N 
ATOM     21  H52 UNL     1       0.770  -1.626  -8.920  1.00  0.00     0.174 HD
ATOM     22  H51 UNL     1      -0.236  -0.217  -8.489  1.00  0.00     0.174 HD
ENDBRANCH  14  20
ENDBRANCH   8  11
ENDBRANCH   6   8
ENDBRANCH   4   5
ENDBRANCH   3   4
BRANCH   3  23
HETATM   23  C9  UNL     1      -7.637  -4.475  -9.273  1.00  0.00     0.694 A 
HETATM   24  N8  UNL     1      -7.050  -3.928 -10.348  1.00  0.00    -0.191 N 
HETATM   25  C10 UNL     1      -7.244  -2.589 -10.374  1.00  0.00     0.068 A 
ATOM     26  H8  UNL     1      -6.527  -4.450 -11.052  1.00  0.00     0.184 HD
HETATM   27  C12 UNL     1      -7.995  -2.317  -9.244  1.00  0.00     0.134 A 
HETATM   28  N10 UNL     1      -8.230  -3.459  -8.582  1.00  0.00    -0.199 N 
ATOM     29  H10 UNL     1      -8.759  -3.553  -7.715  1.00  0.00     0.183 HD
BRANCH  25  30
HETATM   30  C11 UNL     1      -6.729  -1.660 -11.421  1.00  0.00     0.259 C 
BRANCH  30  31
HETATM   31  O2  UNL     1      -5.623  -2.248 -12.009  1.00  0.00    -0.281 OA
BRANCH  31  32
HETATM   32  N9  UNL     1      -4.450  -1.813 -11.568  1.00  0.00    -0.311 N 
ATOM     33  H92 UNL     1      -4.366  -0.932 -11.060  1.00  0.00     0.184 HD
ATOM     34  H91 UNL     1      -3.656  -2.419 -11.774  1.00  0.00     0.184 HD
ENDBRANCH  31  32
ENDBRANCH  30  31
ENDBRANCH  25  30
ENDBRANCH   3  23
TORSDOF 10
ENDMDL
MODEL 4
REMARK VINA RESULT: -7.505558169      1.318      1.842
REMARK  10 active torsions:
REMARK  status: ('A' for Active; 'I' for Inactive)
REMARK    1  A    between atoms: N2_3  and  C2_4 
REMARK    2  A    between atoms: N2_3  and  C9_23 
REMARK    3  A    between atoms: C2_4  and  C3_5 
REMARK    4  A    between atoms: N3_6  and  C4_8 
REMARK    5  A    between atoms: C4_8  and  O1_9 
REMARK    6  A    between atoms: C4_8  and  C5_11 
REMARK    7  A    between atoms: C7_15  and  N5_16 
REMARK    8  A    between atoms: C10_26  and  C11_27 
REMARK    9  A    between atoms: C11_27  and  O2_28 
REMARK   10  A    between atoms: O2_28  and  N9_29 
ROOT
HETATM    1  N1  UNL     1      -7.278  -3.856 -10.542  1.00  0.00    -0.171 NA
HETATM    2  C1  UNL     1      -7.363  -4.730  -9.778  1.00  0.00     0.199 C 
HETATM    3  N2  UNL     1      -7.442  -5.789  -8.856  1.00  0.00    -0.113 N 
ENDROOT
BRANCH   3   4
HETATM    4  C2  UNL     1      -6.296  -6.418  -8.284  1.00  0.00     0.204 C 
BRANCH   4   5
HETATM    5  C3  UNL     1      -5.545  -5.556  -7.350  1.00  0.00     0.080 C 
HETATM    6  N3  UNL     1      -4.301  -5.332  -7.418  1.00  0.00    -0.371 N 
ATOM      7  H3  UNL     1      -3.739  -5.759  -8.154  1.00  0.00     0.161 HD
BRANCH   6   8
HETATM    8  C4  UNL     1      -3.684  -4.460  -6.433  1.00  0.00     0.256 C 
BRANCH   8   9
HETATM    9  O1  UNL     1      -4.706  -3.718  -5.850  1.00  0.00    -0.372 OA
ATOM     10  H1  UNL     1      -5.140  -4.285  -5.224  1.00  0.00     0.212 HD
ENDBRANCH   8   9
BRANCH   8  11
HETATM   11  C5  UNL     1      -2.741  -3.522  -7.096  1.00  0.00     0.047 A 
HETATM   12  C6  UNL     1      -1.422  -3.394  -6.705  1.00  0.00     0.121 A 
HETATM   13  N4  UNL     1      -0.598  -2.524  -7.319  1.00  0.00    -0.201 N 
HETATM   14  C7  UNL     1      -1.061  -1.763  -8.330  1.00  0.00     0.676 A 
ATOM     15  H4  UNL     1       0.374  -2.441  -7.019  1.00  0.00     0.183 HD
HETATM   16  N6  UNL     1      -2.340  -1.843  -8.758  1.00  0.00    -0.178 N 
HETATM   17  C8  UNL     1      -3.158  -2.710  -8.145  1.00  0.00     0.143 A 
ATOM     18  H6  UNL     1      -2.673  -1.259  -9.526  1.00  0.00     0.185 HD
HETATM   19  N7  UNL     1      -4.499  -2.815  -8.584  1.00  0.00    -0.081 NA
BRANCH  14  20
HETATM   20  N5  UNL     1      -0.263  -0.948  -8.890  1.00  0.00    -0.234 N 
ATOM     21  H52 UNL     1      -0.446   0.055  -8.831  1.00  0.00     0.174 HD
ATOM     22  H51 UNL     1       0.546  -1.322  -9.385  1.00  0.00     0.174 HD
ENDBRANCH  14  20
ENDBRANCH   8  11
ENDBRANCH   6   8
ENDBRANCH   4   5
ENDBRANCH   3   4
BRANCH   3  23
HETATM   23  C9  UNL     1      -8.733  -6.242  -8.493  1.00  0.00     0.694 A 
HETATM   24  N8  UNL     1      -9.379  -5.909  -7.366  1.00  0.00    -0.191 N 
HETATM   25  C10 UNL     1     -10.593  -6.505  -7.312  1.00  0.00     0.068 A 
ATOM     26  H8  UNL     1      -9.006  -5.289  -6.646  1.00  0.00     0.184 HD
HETATM   27  C12 UNL     1     -10.679  -7.241  -8.479  1.00  0.00     0.134 A 
HETATM   28  N10 UNL     1      -9.554  -7.080  -9.190  1.00  0.00    -0.199 N 
ATOM     29  H10 UNL     1      -9.347  -7.507 -10.093  1.00  0.00     0.183 HD
BRANCH  25  30
HETATM   30  C11 UNL     1     -11.578  -6.362  -6.200  1.00  0.00     0.259 C 
BRANCH  30  31
HETATM   31  O2  UNL     1     -11.445  -7.458  -5.367  1.00  0.00    -0.281 OA
BRANCH  31  32
HETATM   32  N9  UNL     1     -12.231  -7.454  -4.298  1.00  0.00    -0.311 N 
ATOM     33  H92 UNL     1     -11.926  -7.046  -3.414  1.00  0.00     0.184 HD
ATOM     34  H91 UNL     1     -13.147  -7.883  -4.430  1.00  0.00     0.184 HD
ENDBRANCH  31  32
ENDBRANCH  30  31
ENDBRANCH  25  30
ENDBRANCH   3  23
TORSDOF 10
ENDMDL
MODEL 5
REMARK VINA RESULT: -7.408327434      1.210      1.480
REMARK  10 active torsions:
REMARK  status: ('A' for Active; 'I' for Inactive)
REMARK    1  A    between atoms: N2_3  and  C2_4 
REMARK    2  A    between atoms: N2_3  and  C9_23 
REMARK    3  A    between atoms: C2_4  and  C3_5 
REMARK    4  A    between atoms: N3_6  and  C4_8 
REMARK    5  A    between atoms: C4_8  and  O1_9 
REMARK    6  A    between atoms: C4_8  and  C5_11 
REMARK    7  A    between atoms: C7_15  and  N5_16 
REMARK    8  A    between atoms: C10_26  and  C11_27 
REMARK    9  A    between atoms: C11_27  and  O2_28 
REMARK   10  A    between atoms: O2_28  and  N9_29 
ROOT
HETATM    1  N1  UNL     1      -8.621  -5.419 -11.074  1.00  0.00    -0.171 NA
HETATM    2  C1  UNL     1      -8.575  -4.883 -10.042  1.00  0.00     0.199 C 
HETATM    3  N2  UNL     1      -8.500  -4.222  -8.803  1.00  0.00    -0.113 N 
ENDROOT
BRANCH   3   4
HETATM    4  C2  UNL     1      -7.609  -3.138  -8.544  1.00  0.00     0.204 C 
BRANCH   4   5
HETATM    5  C3  UNL     1      -6.533  -3.465  -7.587  1.00  0.00     0.080 C 
HETATM    6  N3  UNL     1      -5.457  -4.059  -7.887  1.00  0.00    -0.371 N 
ATOM      7  H3  UNL     1      -5.279  -4.352  -8.848  1.00  0.00     0.161 HD
BRANCH   6   8
HETATM    8  C4  UNL     1      -4.478  -4.320  -6.846  1.00  0.00     0.256 C 
BRANCH   8   9
HETATM    9  O1  UNL     1      -4.998  -3.808  -5.661  1.00  0.00    -0.372 OA
ATOM     10  H1  UNL     1      -5.088  -2.870  -5.779  1.00  0.00     0.212 HD
ENDBRANCH   8   9
BRANCH   8  11
HETATM   11  C5  UNL     1      -3.207  -3.611  -7.145  1.00  0.00     0.047 A 
HETATM   12  C6  UNL     1      -3.110  -2.635  -8.118  1.00  0.00     0.121 A 
HETATM   13  N4  UNL     1      -1.939  -2.022  -8.373  1.00  0.00    -0.201 N 
HETATM   14  C7  UNL     1      -0.840  -2.362  -7.672  1.00  0.00     0.676 A 
ATOM     15  H4  UNL     1      -1.884  -1.304  -9.095  1.00  0.00     0.183 HD
HETATM   16  N6  UNL     1      -0.870  -3.308  -6.707  1.00  0.00    -0.178 N 
HETATM   17  C8  UNL     1      -2.038  -3.916  -6.455  1.00  0.00     0.143 A 
ATOM     18  H6  UNL     1      -0.028  -3.552  -6.186  1.00  0.00     0.185 HD
HETATM   19  N7  UNL     1      -2.093  -4.903  -5.443  1.00  0.00    -0.081 NA
BRANCH  14  20
HETATM   20  N5  UNL     1       0.254  -1.771  -7.934  1.00  0.00    -0.234 N 
ATOM     21  H52 UNL     1       0.627  -1.088  -7.274  1.00  0.00     0.174 HD
ATOM     22  H51 UNL     1       0.733  -1.999  -8.805  1.00  0.00     0.174 HD
ENDBRANCH  14  20
ENDBRANCH   8  11
ENDBRANCH   6   8
ENDBRANCH   4   5
ENDBRANCH   3   4
BRANCH   3  23
HETATM   23  C9  UNL     1      -9.358  -4.674  -7.771  1.00  0.00     0.694 A 
HETATM   24  N8  UNL     1      -9.452  -5.942  -7.346  1.00  0.00    -0.191 N 
HETATM   25  C10 UNL     1     -10.360  -6.050  -6.348  1.00  0.00     0.068 A 
ATOM     26  H8  UNL     1      -8.912  -6.721  -7.724  1.00  0.00     0.184 HD
HETATM   27  C12 UNL     1     -10.839  -4.766  -6.164  1.00  0.00     0.134 A 
HETATM   28  N10 UNL     1     -10.231  -3.937  -7.025  1.00  0.00    -0.199 N 
ATOM     29  H10 UNL     1     -10.392  -2.933  -7.109  1.00  0.00     0.183 HD
BRANCH  25  30
HETATM   30  C11 UNL     1     -10.724  -7.313  -5.643  1.00  0.00     0.259 C 
BRANCH  30  31
HETATM   31  O2  UNL     1     -11.305  -8.166  -6.565  1.00  0.00    -0.281 OA
BRANCH  31  32
HETATM   32  N9  UNL     1     -12.566  -7.895  -6.870  1.00  0.00    -0.311 N 
ATOM     33  H92 UNL     1     -13.244  -7.636  -6.153  1.00  0.00     0.184 HD
ATOM     34  H91 UNL     1     -12.799  -7.964  -7.861  1.00  0.00     0.184 HD
ENDBRANCH  31  32
ENDBRANCH  30  31
ENDBRANCH  25  30
ENDBRANCH   3  23
TORSDOF 10
ENDMDL
