MODEL 1
REMARK VINA RESULT: -6.503167717      0.000      0.000
REMARK  14 active torsions:
REMARK  status: ('A' for Active; 'I' for Inactive)
REMARK    1  A    between atoms: C2_2  and  C3_3 
REMARK    2  A    between atoms: C2_2  and  C4_5 
REMARK    3  A    between atoms: C4_5  and  O2_6 
REMARK    4  A    between atoms: C4_5  and  N1_8 
REMARK    5  A    between atoms: N1_8  and  C5_10 
REMARK    6  A    between atoms: C5_10  and  O3_11 
REMARK    7  A    between atoms: C5_10  and  C6_13 
REMARK    8  A    between atoms: C6_13  and  N2_14 
REMARK    9  A    between atoms: C6_13  and  C7_18 
REMARK   10  A    between atoms: C7_18  and  O4_19 
REMARK   11  A    between atoms: C7_18  and  C8_21 
REMARK   12  A    between atoms: C9_24  and  C10_25 
REMARK   13  A    between atoms: C10_25  and  N4_26 
REMARK   14  A    between atoms: C10_25  and  N5_30 
ROOT
HETATM    1  C7  UNL     1      -5.006  -4.905  -7.340  1.00  0.00     0.209 C 
ENDROOT
BRANCH   1   2
HETATM    2  C6  UNL     1      -5.663  -4.755  -8.662  1.00  0.00     0.266 C 
BRANCH   2   3
HETATM    3  C5  UNL     1      -6.660  -5.939  -8.780  1.00  0.00     0.249 C 
BRANCH   3   4
HETATM    4  N1  UNL     1      -7.858  -5.438  -9.290  1.00  0.00    -0.369 N 
ATOM      5  H1  UNL     1      -7.852  -4.525  -9.744  1.00  0.00     0.158 HD
BRANCH   4   6
HETATM    6  C4  UNL     1      -9.065  -6.135  -9.204  1.00  0.00     0.225 C 
BRANCH   6   7
HETATM    7  C2  UNL     1      -9.750  -6.207  -7.877  1.00  0.00     0.091 C 
HETATM    8  C1  UNL     1     -10.394  -4.941  -7.429  1.00  0.00     0.022 C 
BRANCH   7   9
HETATM    9  C3  UNL     1     -10.829  -7.250  -8.003  1.00  0.00     0.239 C 
HETATM   10  O1  UNL     1     -11.015  -8.126  -7.197  1.00  0.00    -0.306 OA
ENDBRANCH   7   9
ENDBRANCH   6   7
BRANCH   6  11
HETATM   11  O2  UNL     1      -9.042  -7.437  -9.722  1.00  0.00    -0.376 OA
ATOM     12  H2  UNL     1      -9.225  -7.367 -10.652  1.00  0.00     0.212 HD
ENDBRANCH   6  11
ENDBRANCH   4   6
ENDBRANCH   3   4
BRANCH   3  13
HETATM   13  O3  UNL     1      -6.006  -6.920  -9.452  1.00  0.00    -0.375 OA
ATOM     14  H3  UNL     1      -5.207  -7.284  -9.089  1.00  0.00     0.212 HD
ENDBRANCH   3  13
ENDBRANCH   2   3
BRANCH   2  15
HETATM   15  N2  UNL     1      -6.449  -3.531  -8.807  1.00  0.00    -0.068 N 
ATOM     16  H23 UNL     1      -6.025  -2.852  -9.440  1.00  0.00     0.275 HD
ATOM     17  H22 UNL     1      -7.315  -3.667  -9.327  1.00  0.00     0.275 HD
ATOM     18  H21 UNL     1      -6.596  -3.166  -7.866  1.00  0.00     0.275 HD
ENDBRANCH   2  15
ENDBRANCH   1   2
BRANCH   1  19
HETATM   19  O4  UNL     1      -4.750  -6.273  -7.152  1.00  0.00    -0.387 OA
ATOM     20  H4  UNL     1      -3.978  -6.344  -6.603  1.00  0.00     0.210 HD
ENDBRANCH   1  19
BRANCH   1  21
HETATM   21  C8  UNL     1      -3.751  -4.111  -7.156  1.00  0.00     0.082 A 
HETATM   22  N3  UNL     1      -3.034  -3.437  -8.026  1.00  0.00    -0.352 N 
HETATM   23  C9  UNL     1      -1.948  -2.827  -7.664  1.00  0.00     0.074 A 
ATOM     24  H3  UNL     1      -3.335  -3.392  -8.999  1.00  0.00     0.166 HD
HETATM   25  C11 UNL     1      -1.583  -2.918  -6.341  1.00  0.00     0.080 A 
HETATM   26  S1  UNL     1      -2.838  -3.881  -5.702  1.00  0.00    -0.084 SA
BRANCH  23  27
HETATM   27  C10 UNL     1      -1.075  -2.023  -8.617  1.00  0.00     0.427 C 
BRANCH  27  28
HETATM   28  N4  UNL     1       0.210  -1.748  -7.984  1.00  0.00    -0.045 N 
ATOM     29  H43 UNL     1       0.196  -1.941  -6.983  1.00  0.00     0.277 HD
ATOM     30  H42 UNL     1       0.925  -2.424  -8.252  1.00  0.00     0.277 HD
ATOM     31  H41 UNL     1       0.492  -0.789  -8.188  1.00  0.00     0.277 HD
ENDBRANCH  27  28
BRANCH  27  32
HETATM   32  N5  UNL     1      -1.742  -0.755  -8.834  1.00  0.00    -0.045 N 
ATOM     33  H53 UNL     1      -2.755  -0.812  -8.731  1.00  0.00     0.277 HD
ATOM     34  H52 UNL     1      -1.575  -0.080  -8.086  1.00  0.00     0.277 HD
ATOM     35  H51 UNL     1      -1.450  -0.418  -9.751  1.00  0.00     0.277 HD
ENDBRANCH  27  32
ENDBRANCH  23  27
ENDBRANCH   1  21
TORSDOF 14
ENDMDL
MODEL 2
REMARK VINA RESULT: -6.498487822      1.255      1.527
REMARK  14 active torsions:
REMARK  status: ('A' for Active; 'I' for Inactive)
REMARK    1  A    between atoms: C2_2  and  C3_3 
REMARK    2  A    between atoms: C2_2  and  C4_5 
REMARK    3  A    between atoms: C4_5  and  O2_6 
REMARK    4  A    between atoms: C4_5  and  N1_8 
REMARK    5  A    between atoms: N1_8  and  C5_10 
REMARK    6  A    between atoms: C5_10  and  O3_11 
REMARK    7  A    between atoms: C5_10  and  C6_13 
REMARK    8  A    between atoms: C6_13  and  N2_14 
REMARK    9  A    between atoms: C6_13  and  C7_18 
REMARK   10  A    between atoms: C7_18  and  O4_19 
REMARK   11  A    between atoms: C7_18  and  C8_21 
REMARK   12  A    between atoms: C9_24  and  C10_25 
REMARK   13  A    between atoms: C10_25  and  N4_26 
REMARK   14  A    between atoms: C10_25  and  N5_30 
ROOT
HETATM    1  C7  UNL     1      -5.355  -3.983  -6.757  1.00  0.00     0.209 C 
ENDROOT
BRANCH   1   2
HETATM    2  C6  UNL     1      -6.161  -3.455  -7.885  1.00  0.00     0.266 C 
BRANCH   2   3
HETATM    3  C5  UNL     1      -6.304  -4.627  -8.894  1.00  0.00     0.249 C 
BRANCH   3   4
HETATM    4  N1  UNL     1      -7.606  -4.603  -9.392  1.00  0.00    -0.369 N 
ATOM      5  H1  UNL     1      -8.097  -3.710  -9.434  1.00  0.00     0.158 HD
BRANCH   4   6
HETATM    6  C4  UNL     1      -8.266  -5.750  -9.835  1.00  0.00     0.225 C 
BRANCH   6   7
HETATM    7  C2  UNL     1      -9.645  -6.019  -9.324  1.00  0.00     0.091 C 
HETATM    8  C1  UNL     1     -10.166  -7.387  -9.600  1.00  0.00     0.022 C 
BRANCH   7   9
HETATM    9  C3  UNL     1      -9.595  -5.842  -7.830  1.00  0.00     0.239 C 
HETATM   10  O1  UNL     1      -8.605  -6.011  -7.165  1.00  0.00    -0.306 OA
ENDBRANCH   7   9
ENDBRANCH   6   7
BRANCH   6  11
HETATM   11  O2  UNL     1      -7.543  -6.944  -9.703  1.00  0.00    -0.376 OA
ATOM     12  H2  UNL     1      -6.690  -6.794 -10.092  1.00  0.00     0.212 HD
ENDBRANCH   6  11
ENDBRANCH   4   6
ENDBRANCH   3   4
BRANCH   3  13
HETATM   13  O3  UNL     1      -5.257  -4.519  -9.751  1.00  0.00    -0.375 OA
ATOM     14  H3  UNL     1      -4.389  -4.776  -9.465  1.00  0.00     0.212 HD
ENDBRANCH   3  13
ENDBRANCH   2   3
BRANCH   2  15
HETATM   15  N2  UNL     1      -7.517  -3.050  -7.518  1.00  0.00    -0.068 N 
ATOM     16  H23 UNL     1      -7.661  -2.991  -6.510  1.00  0.00     0.275 HD
ATOM     17  H22 UNL     1      -7.718  -2.074  -7.734  1.00  0.00     0.275 HD
ATOM     18  H21 UNL     1      -8.150  -3.704  -7.978  1.00  0.00     0.275 HD
ENDBRANCH   2  15
ENDBRANCH   1   2
BRANCH   1  19
HETATM   19  O4  UNL     1      -5.537  -5.376  -6.728  1.00  0.00    -0.387 OA
ATOM     20  H4  UNL     1      -6.159  -5.566  -6.036  1.00  0.00     0.210 HD
ENDBRANCH   1  19
BRANCH   1  21
HETATM   21  C8  UNL     1      -3.897  -3.650  -6.801  1.00  0.00     0.082 A 
HETATM   22  N3  UNL     1      -3.198  -2.998  -7.703  1.00  0.00    -0.352 N 
HETATM   23  C9  UNL     1      -1.919  -2.835  -7.564  1.00  0.00     0.074 A 
ATOM     24  H3  UNL     1      -3.668  -2.615  -8.522  1.00  0.00     0.166 HD
HETATM   25  C11 UNL     1      -1.331  -3.371  -6.442  1.00  0.00     0.080 A 
HETATM   26  S1  UNL     1      -2.670  -4.078  -5.655  1.00  0.00    -0.084 SA
BRANCH  23  27
HETATM   27  C10 UNL     1      -1.052  -2.085  -8.565  1.00  0.00     0.427 C 
BRANCH  27  28
HETATM   28  N4  UNL     1       0.234  -1.769  -7.953  1.00  0.00    -0.045 N 
ATOM     29  H43 UNL     1       0.374  -2.264  -7.073  1.00  0.00     0.277 HD
ATOM     30  H42 UNL     1       1.017  -2.170  -8.471  1.00  0.00     0.277 HD
ATOM     31  H41 UNL     1       0.321  -0.758  -7.846  1.00  0.00     0.277 HD
ENDBRANCH  27  28
BRANCH  27  32
HETATM   32  N5  UNL     1      -1.724  -0.834  -8.853  1.00  0.00    -0.045 N 
ATOM     33  H53 UNL     1      -1.902  -0.273  -8.021  1.00  0.00     0.277 HD
ATOM     34  H52 UNL     1      -1.130  -0.161  -9.338  1.00  0.00     0.277 HD
ATOM     35  H51 UNL     1      -2.573  -1.065  -9.370  1.00  0.00     0.277 HD
ENDBRANCH  27  32
ENDBRANCH  23  27
ENDBRANCH   1  21
TORSDOF 14
ENDMDL
MODEL 3
REMARK VINA RESULT: -6.475007209      3.421      8.132
REMARK  14 active torsions:
REMARK  status: ('A' for Active; 'I' for Inactive)
REMARK    1  A    between atoms: C2_2  and  C3_3 
REMARK    2  A    between atoms: C2_2  and  C4_5 
REMARK    3  A    between atoms: C4_5  and  O2_6 
REMARK    4  A    between atoms: C4_5  and  N1_8 
REMARK    5  A    between atoms: N1_8  and  C5_10 
REMARK    6  A    between atoms: C5_10  and  O3_11 
REMARK    7  A    between atoms: C5_10  and  C6_13 
REMARK    8  A    between atoms: C6_13  and  N2_14 
REMARK    9  A    between atoms: C6_13  and  C7_18 
REMARK   10  A    between atoms: C7_18  and  O4_19 
REMARK   11  A    between atoms: C7_18  and  C8_21 
REMARK   12  A    between atoms: C9_24  and  C10_25 
REMARK   13  A    between atoms: C10_25  and  N4_26 
REMARK   14  A    between atoms: C10_25  and  N5_30 
ROOT
HETATM    1  C7  UNL     1      -6.807  -4.639  -6.681  1.00  0.00     0.209 C 
ENDROOT
BRANCH   1   2
HETATM    2  C6  UNL     1      -5.700  -5.043  -7.583  1.00  0.00     0.266 C 
BRANCH   2   3
HETATM    3  C5  UNL     1      -4.431  -4.323  -7.051  1.00  0.00     0.249 C 
BRANCH   3   4
HETATM    4  N1  UNL     1      -4.268  -3.149  -7.785  1.00  0.00    -0.369 N 
ATOM      5  H1  UNL     1      -5.054  -2.502  -7.852  1.00  0.00     0.158 HD
BRANCH   4   6
HETATM    6  C4  UNL     1      -3.075  -2.823  -8.433  1.00  0.00     0.225 C 
BRANCH   6   7
HETATM    7  C2  UNL     1      -2.011  -2.123  -7.650  1.00  0.00     0.091 C 
HETATM    8  C1  UNL     1      -1.133  -3.015  -6.842  1.00  0.00     0.022 C 
BRANCH   7   9
HETATM    9  C3  UNL     1      -1.141  -1.406  -8.647  1.00  0.00     0.239 C 
HETATM   10  O1  UNL     1      -0.297  -1.947  -9.317  1.00  0.00    -0.306 OA
ENDBRANCH   7   9
ENDBRANCH   6   7
BRANCH   6  11
HETATM   11  O2  UNL     1      -3.222  -2.121  -9.637  1.00  0.00    -0.376 OA
ATOM     12  H2  UNL     1      -4.022  -2.435 -10.043  1.00  0.00     0.212 HD
ENDBRANCH   6  11
ENDBRANCH   4   6
ENDBRANCH   3   4
BRANCH   3  13
HETATM   13  O3  UNL     1      -4.571  -4.256  -5.702  1.00  0.00    -0.375 OA
ATOM     14  H3  UNL     1      -5.290  -4.713  -5.282  1.00  0.00     0.212 HD
ENDBRANCH   3  13
ENDBRANCH   2   3
BRANCH   2  15
HETATM   15  N2  UNL     1      -5.406  -6.475  -7.569  1.00  0.00    -0.068 N 
ATOM     16  H23 UNL     1      -5.203  -6.854  -8.495  1.00  0.00     0.275 HD
ATOM     17  H22 UNL     1      -4.508  -6.697  -7.140  1.00  0.00     0.275 HD
ATOM     18  H21 UNL     1      -6.195  -6.930  -7.112  1.00  0.00     0.275 HD
ENDBRANCH   2  15
ENDBRANCH   1   2
BRANCH   1  19
HETATM   19  O4  UNL     1      -6.949  -3.246  -6.788  1.00  0.00    -0.387 OA
ATOM     20  H4  UNL     1      -6.673  -2.868  -5.961  1.00  0.00     0.210 HD
ENDBRANCH   1  19
BRANCH   1  21
HETATM   21  C8  UNL     1      -8.117  -5.316  -6.935  1.00  0.00     0.082 A 
HETATM   22  N3  UNL     1      -9.000  -5.806  -6.094  1.00  0.00    -0.352 N 
HETATM   23  C9  UNL     1     -10.079  -6.384  -6.523  1.00  0.00     0.074 A 
ATOM     24  H3  UNL     1      -8.835  -5.730  -5.091  1.00  0.00     0.166 HD
HETATM   25  C11 UNL     1     -10.256  -6.462  -7.885  1.00  0.00     0.080 A 
HETATM   26  S1  UNL     1      -8.847  -5.690  -8.461  1.00  0.00    -0.084 SA
BRANCH  23  27
HETATM   27  C10 UNL     1     -11.145  -6.966  -5.606  1.00  0.00     0.427 C 
BRANCH  27  28
HETATM   28  N4  UNL     1     -10.522  -7.880  -4.655  1.00  0.00    -0.045 N 
ATOM     29  H43 UNL     1     -10.907  -8.822  -4.716  1.00  0.00     0.277 HD
ATOM     30  H42 UNL     1      -9.558  -8.100  -4.906  1.00  0.00     0.277 HD
ATOM     31  H41 UNL     1     -10.596  -7.493  -3.713  1.00  0.00     0.277 HD
ENDBRANCH  27  28
BRANCH  27  32
HETATM   32  N5  UNL     1     -12.044  -7.740  -6.439  1.00  0.00    -0.045 N 
ATOM     33  H53 UNL     1     -12.391  -7.220  -7.245  1.00  0.00     0.277 HD
ATOM     34  H52 UNL     1     -11.572  -8.482  -6.957  1.00  0.00     0.277 HD
ATOM     35  H51 UNL     1     -12.788  -8.085  -5.833  1.00  0.00     0.277 HD
ENDBRANCH  27  32
ENDBRANCH  23  27
ENDBRANCH   1  21
TORSDOF 14
ENDMDL
MODEL 4
REMARK VINA RESULT: -6.472335434      1.113      1.127
REMARK  14 active torsions:
REMARK  status: ('A' for Active; 'I' for Inactive)
REMARK    1  A    between atoms: C2_2  and  C3_3 
REMARK    2  A    between atoms: C2_2  and  C4_5 
REMARK    3  A    between atoms: C4_5  and  O2_6 
REMARK    4  A    between atoms: C4_5  and  N1_8 
REMARK    5  A    between atoms: N1_8  and  C5_10 
REMARK    6  A    between atoms: C5_10  and  O3_11 
REMARK    7  A    between atoms: C5_10  and  C6_13 
REMARK    8  A    between atoms: C6_13  and  N2_14 
REMARK    9  A    between atoms: C6_13  and  C7_18 
REMARK   10  A    between atoms: C7_18  and  O4_19 
REMARK   11  A    between atoms: C7_18  and  C8_21 
REMARK   12  A    between atoms: C9_24  and  C10_25 
REMARK   13  A    between atoms: C10_25  and  N4_26 
REMARK   14  A    between atoms: C10_25  and  N5_30 
ROOT
HETATM    1  C7  UNL     1      -5.389  -3.915  -6.973  1.00  0.00     0.209 C 
ENDROOT
BRANCH   1   2
HETATM    2  C6  UNL     1      -6.032  -3.876  -8.308  1.00  0.00     0.266 C 
BRANCH   2   3
HETATM    3  C5  UNL     1      -6.613  -5.297  -8.545  1.00  0.00     0.249 C 
BRANCH   3   4
HETATM    4  N1  UNL     1      -7.850  -5.153  -9.171  1.00  0.00    -0.369 N 
ATOM      5  H1  UNL     1      -8.202  -4.212  -9.347  1.00  0.00     0.158 HD
BRANCH   4   6
HETATM    6  C4  UNL     1      -8.628  -6.242  -9.566  1.00  0.00     0.225 C 
BRANCH   6   7
HETATM    7  C2  UNL     1      -9.766  -6.658  -8.689  1.00  0.00     0.091 C 
HETATM    8  C1  UNL     1     -10.374  -5.564  -7.882  1.00  0.00     0.022 C 
BRANCH   7   9
HETATM    9  C3  UNL     1     -10.835  -7.206  -9.596  1.00  0.00     0.239 C 
HETATM   10  O1  UNL     1     -10.630  -7.601 -10.716  1.00  0.00    -0.306 OA
ENDBRANCH   7   9
ENDBRANCH   6   7
BRANCH   6  11
HETATM   11  O2  UNL     1      -7.912  -7.405  -9.881  1.00  0.00    -0.376 OA
ATOM     12  H2  UNL     1      -8.398  -7.852 -10.565  1.00  0.00     0.212 HD
ENDBRANCH   6  11
ENDBRANCH   4   6
ENDBRANCH   3   4
BRANCH   3  13
HETATM   13  O3  UNL     1      -5.633  -6.010  -9.157  1.00  0.00    -0.375 OA
ATOM     14  H3  UNL     1      -4.748  -5.983  -8.811  1.00  0.00     0.212 HD
ENDBRANCH   3  13
ENDBRANCH   2   3
BRANCH   2  15
HETATM   15  N2  UNL     1      -7.154  -2.944  -8.409  1.00  0.00    -0.068 N 
ATOM     16  H23 UNL     1      -7.194  -2.456  -9.304  1.00  0.00     0.275 HD
ATOM     17  H22 UNL     1      -8.059  -3.409  -8.476  1.00  0.00     0.275 HD
ATOM     18  H21 UNL     1      -7.082  -2.314  -7.610  1.00  0.00     0.275 HD
ENDBRANCH   2  15
ENDBRANCH   1   2
BRANCH   1  19
HETATM   19  O4  UNL     1      -5.599  -5.199  -6.443  1.00  0.00    -0.387 OA
ATOM     20  H4  UNL     1      -5.538  -5.129  -5.497  1.00  0.00     0.210 HD
ENDBRANCH   1  19
BRANCH   1  21
HETATM   21  C8  UNL     1      -3.931  -3.578  -6.955  1.00  0.00     0.082 A 
HETATM   22  N3  UNL     1      -3.196  -2.928  -7.828  1.00  0.00    -0.352 N 
HETATM   23  C9  UNL     1      -1.924  -2.760  -7.635  1.00  0.00     0.074 A 
ATOM     24  H3  UNL     1      -3.631  -2.550  -8.669  1.00  0.00     0.166 HD
HETATM   25  C11 UNL     1      -1.384  -3.289  -6.486  1.00  0.00     0.080 A 
HETATM   26  S1  UNL     1      -2.754  -3.996  -5.754  1.00  0.00    -0.084 SA
BRANCH  23  27
HETATM   27  C10 UNL     1      -1.016  -2.012  -8.601  1.00  0.00     0.427 C 
BRANCH  27  28
HETATM   28  N4  UNL     1       0.259  -1.731  -7.951  1.00  0.00    -0.045 N 
ATOM     29  H43 UNL     1       0.944  -1.341  -8.598  1.00  0.00     0.277 HD
ATOM     30  H42 UNL     1       0.199  -0.940  -7.309  1.00  0.00     0.277 HD
ATOM     31  H41 UNL     1       0.599  -2.575  -7.490  1.00  0.00     0.277 HD
ENDBRANCH  27  28
BRANCH  27  32
HETATM   32  N5  UNL     1      -1.657  -0.743  -8.887  1.00  0.00    -0.045 N 
ATOM     33  H53 UNL     1      -2.654  -0.740  -8.674  1.00  0.00     0.277 HD
ATOM     34  H52 UNL     1      -1.384  -0.002  -8.241  1.00  0.00     0.277 HD
ATOM     35  H51 UNL     1      -1.454  -0.522  -9.862  1.00  0.00     0.277 HD
ENDBRANCH  27  32
ENDBRANCH  23  27
ENDBRANCH   1  21
TORSDOF 14
ENDMDL
MODEL 5
REMARK VINA RESULT: -6.471992425      1.467      1.894
REMARK  14 active torsions:
REMARK  status: ('A' for Active; 'I' for Inactive)
REMARK    1  A    between atoms: C2_2  and  C3_3 
REMARK    2  A    between atoms: C2_2  and  C4_5 
REMARK    3  A    between atoms: C4_5  and  O2_6 
REMARK    4  A    between atoms: C4_5  and  N1_8 
REMARK    5  A    between atoms: N1_8  and  C5_10 
REMARK    6  A    between atoms: C5_10  and  O3_11 
REMARK    7  A    between atoms: C5_10  and  C6_13 
REMARK    8  A    between atoms: C6_13  and  N2_14 
REMARK    9  A    between atoms: C6_13  and  C7_18 
REMARK   10  A    between atoms: C7_18  and  O4_19 
REMARK   11  A    between atoms: C7_18  and  C8_21 
REMARK   12  A    between atoms: C9_24  and  C10_25 
REMARK   13  A    between atoms: C10_25  and  N4_26 
REMARK   14  A    between atoms: C10_25  and  N5_30 
ROOT
HETATM    1  C7  UNL     1      -5.048  -5.146  -6.806  1.00  0.00     0.209 C 
ENDROOT
BRANCH   1   2
HETATM    2  C6  UNL     1      -6.298  -4.534  -7.319  1.00  0.00     0.266 C 
BRANCH   2   3
HETATM    3  C5  UNL     1      -6.537  -5.159  -8.720  1.00  0.00     0.249 C 
BRANCH   3   4
HETATM    4  N1  UNL     1      -7.886  -5.502  -8.809  1.00  0.00    -0.369 N 
ATOM      5  H1  UNL     1      -8.304  -6.043  -8.052  1.00  0.00     0.158 HD
BRANCH   4   6
HETATM    6  C4  UNL     1      -8.688  -5.136  -9.892  1.00  0.00     0.225 C 
BRANCH   6   7
HETATM    7  C2  UNL     1     -10.130  -5.528  -9.872  1.00  0.00     0.091 C 
HETATM    8  C1  UNL     1     -10.826  -5.445 -11.186  1.00  0.00     0.022 C 
BRANCH   7   9
HETATM    9  C3  UNL     1     -10.183  -6.962  -9.416  1.00  0.00     0.239 C 
HETATM   10  O1  UNL     1      -9.433  -7.820  -9.806  1.00  0.00    -0.306 OA
ENDBRANCH   7   9
ENDBRANCH   6   7
BRANCH   6  11
HETATM   11  O2  UNL     1      -8.188  -5.489 -11.152  1.00  0.00    -0.376 OA
ATOM     12  H2  UNL     1      -7.898  -4.685 -11.569  1.00  0.00     0.212 HD
ENDBRANCH   6  11
ENDBRANCH   4   6
ENDBRANCH   3   4
BRANCH   3  13
HETATM   13  O3  UNL     1      -6.006  -4.291  -9.619  1.00  0.00    -0.375 OA
ATOM     14  H3  UNL     1      -5.440  -3.591  -9.315  1.00  0.00     0.212 HD
ENDBRANCH   3  13
ENDBRANCH   2   3
BRANCH   2  15
HETATM   15  N2  UNL     1      -7.486  -4.831  -6.520  1.00  0.00    -0.068 N 
ATOM     16  H23 UNL     1      -7.972  -5.677  -6.820  1.00  0.00     0.275 HD
ATOM     17  H22 UNL     1      -7.267  -5.138  -5.572  1.00  0.00     0.275 HD
ATOM     18  H21 UNL     1      -8.072  -3.998  -6.549  1.00  0.00     0.275 HD
ENDBRANCH   2  15
ENDBRANCH   1   2
BRANCH   1  19
HETATM   19  O4  UNL     1      -4.856  -6.351  -7.500  1.00  0.00    -0.387 OA
ATOM     20  H4  UNL     1      -5.145  -7.055  -6.932  1.00  0.00     0.210 HD
ENDBRANCH   1  19
BRANCH   1  21
HETATM   21  C8  UNL     1      -3.827  -4.287  -6.908  1.00  0.00     0.082 A 
HETATM   22  N3  UNL     1      -3.563  -3.270  -7.697  1.00  0.00    -0.352 N 
HETATM   23  C9  UNL     1      -2.416  -2.666  -7.644  1.00  0.00     0.074 A 
ATOM     24  H3  UNL     1      -4.269  -2.952  -8.360  1.00  0.00     0.166 HD
HETATM   25  C11 UNL     1      -1.497  -3.133  -6.734  1.00  0.00     0.080 A 
HETATM   26  S1  UNL     1      -2.352  -4.420  -6.009  1.00  0.00    -0.084 SA
BRANCH  23  27
HETATM   27  C10 UNL     1      -2.048  -1.480  -8.523  1.00  0.00     0.427 C 
BRANCH  27  28
HETATM   28  N4  UNL     1      -2.894  -1.473  -9.711  1.00  0.00    -0.045 N 
ATOM     29  H43 UNL     1      -2.480  -1.997 -10.482  1.00  0.00     0.277 HD
ATOM     30  H42 UNL     1      -3.736  -2.036  -9.589  1.00  0.00     0.277 HD
ATOM     31  H41 UNL     1      -3.109  -0.510  -9.970  1.00  0.00     0.277 HD
ENDBRANCH  27  28
BRANCH  27  32
HETATM   32  N5  UNL     1      -0.679  -1.682  -8.956  1.00  0.00    -0.045 N 
ATOM     33  H53 UNL     1      -0.522  -2.599  -9.373  1.00  0.00     0.277 HD
ATOM     34  H52 UNL     1      -0.429  -1.124  -9.772  1.00  0.00     0.277 HD
ATOM     35  H51 UNL     1      -0.082  -1.502  -8.148  1.00  0.00     0.277 HD
ENDBRANCH  27  32
ENDBRANCH  23  27
ENDBRANCH   1  21
TORSDOF 14
ENDMDL
