MODEL 1
REMARK VINA RESULT: -6.957226936      0.000      0.000
REMARK  5 active torsions:
REMARK  status: ('A' for Active; 'I' for Inactive)
REMARK    1  A    between atoms: C2_2  and  C3_3 
REMARK    2  A    between atoms: C3_3  and  S1_4 
REMARK    3  A    between atoms: S1_4  and  C4_5 
REMARK    4  A    between atoms: N1_9  and  N2_11 
REMARK    5  A    between atoms: N2_11  and  N3_13 
ROOT
HETATM    1  C1  UNL     1      55.007 -19.856  -0.613  1.00  0.00     0.066 C 
HETATM    2  C2  UNL     1      55.909 -18.840  -1.245  1.00  0.00     0.010 C 
HETATM    3  N1  UNL     1      56.512 -18.039  -0.511  1.00  0.00    -0.298 N 
ATOM      4  H1  UNL     1      56.313 -18.174   0.480  1.00  0.00     0.187 HD
ENDROOT
BRANCH   3   5
HETATM    5  N2  UNL     1      57.389 -17.008  -0.752  1.00  0.00    -0.258 N 
ATOM      6  H2  UNL     1      57.571 -16.669  -1.696  1.00  0.00     0.202 HD
BRANCH   5   7
HETATM    7  N3  UNL     1      58.025 -16.442   0.375  1.00  0.00    -0.158 NA
HETATM    8  C8  UNL     1      57.396 -15.215   0.739  1.00  0.00     0.147 C 
HETATM    9  C9  UNL     1      58.594 -14.382   1.222  1.00  0.00     0.189 C 
HETATM   10  O1  UNL     1      59.571 -14.792   0.313  1.00  0.00    -0.343 OA
HETATM   11  C10 UNL     1      59.423 -16.177   0.152  1.00  0.00     0.408 C 
HETATM   12  F1  UNL     1      59.800 -16.598  -1.109  1.00  0.00    -0.200 F 
ENDBRANCH   5   7
ENDBRANCH   3   5
BRANCH   2  13
HETATM   13  C3  UNL     1      56.061 -18.829  -2.715  1.00  0.00     0.128 C 
BRANCH  13  14
HETATM   14  S1  UNL     1      56.138 -20.472  -3.450  1.00  0.00    -0.154 SA
BRANCH  14  15
HETATM   15  C4  UNL     1      54.532 -20.854  -4.173  1.00  0.00    -0.003 C 
HETATM   16  C5  UNL     1      53.945 -22.035  -3.436  1.00  0.00     0.026 C 
HETATM   17  C6  UNL     1      53.568 -19.698  -3.906  1.00  0.00     0.026 C 
HETATM   18  C7  UNL     1      54.599 -21.061  -5.665  1.00  0.00     0.026 C 
ENDBRANCH  14  15
ENDBRANCH  13  14
ENDBRANCH   2  13
TORSDOF 5
ENDMDL
MODEL 2
REMARK VINA RESULT: -5.937468263      6.476      7.861
REMARK  5 active torsions:
REMARK  status: ('A' for Active; 'I' for Inactive)
REMARK    1  A    between atoms: C2_2  and  C3_3 
REMARK    2  A    between atoms: C3_3  and  S1_4 
REMARK    3  A    between atoms: S1_4  and  C4_5 
REMARK    4  A    between atoms: N1_9  and  N2_11 
REMARK    5  A    between atoms: N2_11  and  N3_13 
ROOT
HETATM    1  C1  UNL     1      52.555 -25.162  -1.128  1.00  0.00     0.066 C 
HETATM    2  C2  UNL     1      53.935 -24.742  -0.720  1.00  0.00     0.010 C 
HETATM    3  N1  UNL     1      54.388 -25.155   0.361  1.00  0.00    -0.298 N 
ATOM      4  H1  UNL     1      53.740 -25.760   0.865  1.00  0.00     0.187 HD
ENDROOT
BRANCH   3   5
HETATM    5  N2  UNL     1      55.580 -24.969   1.022  1.00  0.00    -0.258 N 
ATOM      6  H2  UNL     1      56.446 -24.776   0.520  1.00  0.00     0.202 HD
BRANCH   5   7
HETATM    7  N3  UNL     1      55.542 -25.059   2.431  1.00  0.00    -0.158 NA
HETATM    8  C8  UNL     1      56.586 -24.277   3.008  1.00  0.00     0.147 C 
HETATM    9  C9  UNL     1      56.977 -25.129   4.226  1.00  0.00     0.189 C 
HETATM   10  O1  UNL     1      56.847 -26.411   3.690  1.00  0.00    -0.343 OA
HETATM   11  C10 UNL     1      55.684 -26.411   2.907  1.00  0.00     0.408 C 
HETATM   12  F1  UNL     1      55.769 -27.292   1.846  1.00  0.00    -0.200 F 
ENDBRANCH   5   7
ENDBRANCH   3   5
BRANCH   2  13
HETATM   13  C3  UNL     1      54.713 -23.862  -1.616  1.00  0.00     0.128 C 
BRANCH  13  14
HETATM   14  S1  UNL     1      53.705 -22.681  -2.530  1.00  0.00    -0.154 SA
BRANCH  14  15
HETATM   15  C4  UNL     1      54.475 -21.056  -2.413  1.00  0.00    -0.003 C 
HETATM   16  C5  UNL     1      55.770 -21.082  -3.190  1.00  0.00     0.026 C 
HETATM   17  C6  UNL     1      53.600 -20.028  -3.132  1.00  0.00     0.026 C 
HETATM   18  C7  UNL     1      54.648 -20.594  -0.988  1.00  0.00     0.026 C 
ENDBRANCH  14  15
ENDBRANCH  13  14
ENDBRANCH   2  13
TORSDOF 5
ENDMDL
MODEL 3
REMARK VINA RESULT: -5.819536006      6.959      9.434
REMARK  5 active torsions:
REMARK  status: ('A' for Active; 'I' for Inactive)
REMARK    1  A    between atoms: C2_2  and  C3_3 
REMARK    2  A    between atoms: C3_3  and  S1_4 
REMARK    3  A    between atoms: S1_4  and  C4_5 
REMARK    4  A    between atoms: N1_9  and  N2_11 
REMARK    5  A    between atoms: N2_11  and  N3_13 
ROOT
HETATM    1  C1  UNL     1      53.239 -20.684  -8.106  1.00  0.00     0.066 C 
HETATM    2  C2  UNL     1      54.714 -20.925  -7.990  1.00  0.00     0.010 C 
HETATM    3  N1  UNL     1      55.328 -21.351  -8.983  1.00  0.00    -0.298 N 
ATOM      4  H1  UNL     1      54.730 -21.491  -9.796  1.00  0.00     0.187 HD
ENDROOT
BRANCH   3   5
HETATM    5  N2  UNL     1      56.645 -21.673  -9.216  1.00  0.00    -0.258 N 
ATOM      6  H2  UNL     1      57.345 -21.633  -8.477  1.00  0.00     0.202 HD
BRANCH   5   7
HETATM    7  N3  UNL     1      56.976 -22.063 -10.533  1.00  0.00    -0.158 NA
HETATM    8  C8  UNL     1      56.155 -23.152 -10.952  1.00  0.00     0.147 C 
HETATM    9  C9  UNL     1      57.133 -23.965 -11.816  1.00  0.00     0.189 C 
HETATM   10  O1  UNL     1      58.311 -23.804 -11.085  1.00  0.00    -0.343 OA
HETATM   11  C10 UNL     1      58.353 -22.466 -10.665  1.00  0.00     0.408 C 
HETATM   12  F1  UNL     1      59.018 -22.317  -9.464  1.00  0.00    -0.200 F 
ENDBRANCH   5   7
ENDBRANCH   3   5
BRANCH   2  13
HETATM   13  C3  UNL     1      55.391 -20.641  -6.708  1.00  0.00     0.128 C 
BRANCH  13  14
HETATM   14  S1  UNL     1      54.282 -20.054  -5.415  1.00  0.00    -0.154 SA
BRANCH  14  15
HETATM   15  C4  UNL     1      54.917 -20.599  -3.819  1.00  0.00    -0.003 C 
HETATM   16  C5  UNL     1      56.426 -20.625  -3.889  1.00  0.00     0.026 C 
HETATM   17  C6  UNL     1      54.586 -19.551  -2.756  1.00  0.00     0.026 C 
HETATM   18  C7  UNL     1      54.322 -21.910  -3.372  1.00  0.00     0.026 C 
ENDBRANCH  14  15
ENDBRANCH  13  14
ENDBRANCH   2  13
TORSDOF 5
ENDMDL
MODEL 4
REMARK VINA RESULT: -5.768959548      5.863      7.586
REMARK  5 active torsions:
REMARK  status: ('A' for Active; 'I' for Inactive)
REMARK    1  A    between atoms: C2_2  and  C3_3 
REMARK    2  A    between atoms: C3_3  and  S1_4 
REMARK    3  A    between atoms: S1_4  and  C4_5 
REMARK    4  A    between atoms: N1_9  and  N2_11 
REMARK    5  A    between atoms: N2_11  and  N3_13 
ROOT
HETATM    1  C1  UNL     1      52.370 -24.345  -2.038  1.00  0.00     0.066 C 
HETATM    2  C2  UNL     1      53.743 -24.112  -1.483  1.00  0.00     0.010 C 
HETATM    3  N1  UNL     1      54.111 -24.782  -0.503  1.00  0.00    -0.298 N 
ATOM      4  H1  UNL     1      53.405 -25.442  -0.179  1.00  0.00     0.187 HD
ENDROOT
BRANCH   3   5
HETATM    5  N2  UNL     1      55.270 -24.821   0.237  1.00  0.00    -0.258 N 
ATOM      6  H2  UNL     1      56.054 -24.202   0.036  1.00  0.00     0.202 HD
BRANCH   5   7
HETATM    7  N3  UNL     1      55.316 -25.762   1.289  1.00  0.00    -0.158 NA
HETATM    8  C8  UNL     1      54.221 -25.568   2.181  1.00  0.00     0.147 C 
HETATM    9  C9  UNL     1      54.858 -25.909   3.537  1.00  0.00     0.189 C 
HETATM   10  O1  UNL     1      56.132 -25.367   3.361  1.00  0.00    -0.343 OA
HETATM   11  C10 UNL     1      56.534 -25.682   2.055  1.00  0.00     0.408 C 
HETATM   12  F1  UNL     1      57.377 -24.725   1.524  1.00  0.00    -0.200 F 
ENDBRANCH   5   7
ENDBRANCH   3   5
BRANCH   2  13
HETATM   13  C3  UNL     1      54.615 -23.105  -2.121  1.00  0.00     0.128 C 
BRANCH  13  14
HETATM   14  S1  UNL     1      54.515 -21.472  -1.363  1.00  0.00    -0.154 SA
BRANCH  14  15
HETATM   15  C4  UNL     1      55.009 -20.241  -2.583  1.00  0.00    -0.003 C 
HETATM   16  C5  UNL     1      55.653 -19.083  -1.859  1.00  0.00     0.026 C 
HETATM   17  C6  UNL     1      56.113 -20.819  -3.469  1.00  0.00     0.026 C 
HETATM   18  C7  UNL     1      53.873 -19.821  -3.480  1.00  0.00     0.026 C 
ENDBRANCH  14  15
ENDBRANCH  13  14
ENDBRANCH   2  13
TORSDOF 5
ENDMDL
MODEL 5
REMARK VINA RESULT: -5.672279168      6.200      7.865
REMARK  5 active torsions:
REMARK  status: ('A' for Active; 'I' for Inactive)
REMARK    1  A    between atoms: C2_2  and  C3_3 
REMARK    2  A    between atoms: C3_3  and  S1_4 
REMARK    3  A    between atoms: S1_4  and  C4_5 
REMARK    4  A    between atoms: N1_9  and  N2_11 
REMARK    5  A    between atoms: N2_11  and  N3_13 
ROOT
HETATM    1  C1  UNL     1      52.573 -25.151  -1.161  1.00  0.00     0.066 C 
HETATM    2  C2  UNL     1      53.932 -24.655  -0.767  1.00  0.00     0.010 C 
HETATM    3  N1  UNL     1      54.358 -24.922   0.369  1.00  0.00    -0.298 N 
ATOM      4  H1  UNL     1      53.704 -25.473   0.924  1.00  0.00     0.187 HD
ENDROOT
BRANCH   3   5
HETATM    5  N2  UNL     1      55.525 -24.631   1.036  1.00  0.00    -0.258 N 
ATOM      6  H2  UNL     1      55.760 -23.679   1.315  1.00  0.00     0.202 HD
BRANCH   5   7
HETATM    7  N3  UNL     1      56.381 -25.719   1.316  1.00  0.00    -0.158 NA
HETATM    8  C8  UNL     1      55.623 -26.859   1.719  1.00  0.00     0.147 C 
HETATM    9  C9  UNL     1      56.549 -27.494   2.769  1.00  0.00     0.189 C 
HETATM   10  O1  UNL     1      57.062 -26.349   3.379  1.00  0.00    -0.343 OA
HETATM   11  C10 UNL     1      57.332 -25.426   2.358  1.00  0.00     0.408 C 
HETATM   12  F1  UNL     1      57.194 -24.120   2.786  1.00  0.00    -0.200 F 
ENDBRANCH   5   7
ENDBRANCH   3   5
BRANCH   2  13
HETATM   13  C3  UNL     1      54.723 -23.875  -1.742  1.00  0.00     0.128 C 
BRANCH  13  14
HETATM   14  S1  UNL     1      53.754 -22.672  -2.669  1.00  0.00    -0.154 SA
BRANCH  14  15
HETATM   15  C4  UNL     1      54.496 -21.045  -2.452  1.00  0.00    -0.003 C 
HETATM   16  C5  UNL     1      55.822 -21.023  -3.174  1.00  0.00     0.026 C 
HETATM   17  C6  UNL     1      53.638 -19.997  -3.163  1.00  0.00     0.026 C 
HETATM   18  C7  UNL     1      54.604 -20.642  -1.003  1.00  0.00     0.026 C 
ENDBRANCH  14  15
ENDBRANCH  13  14
ENDBRANCH   2  13
TORSDOF 5
ENDMDL
