MODEL 1
REMARK VINA RESULT: -5.268595760      0.000      0.000
REMARK  6 active torsions:
REMARK  status: ('A' for Active; 'I' for Inactive)
REMARK    1  A    between atoms: C2_2  and  C3_4 
REMARK    2  A    between atoms: C3_4  and  S1_5 
REMARK    3  A    between atoms: S1_5  and  C4_6 
REMARK    4  A    between atoms: C4_6  and  C5_8 
REMARK    5  A    between atoms: C7_10  and  O2_11 
REMARK    6  A    between atoms: C7_10  and  C8_13 
ROOT
HETATM    1  C5  UNL     1      55.433 -21.342  -2.963  1.00  0.00     0.083 C 
HETATM    2  C6  UNL     1      54.120 -21.595  -3.664  1.00  0.00     0.074 C 
HETATM    3  C7  UNL     1      54.413 -20.721  -4.879  1.00  0.00     0.160 C 
HETATM    4  S2  UNL     1      56.129 -20.504  -4.392  1.00  0.00    -0.117 SA
ENDROOT
BRANCH   1   5
HETATM    5  C4  UNL     1      55.202 -20.457  -1.741  1.00  0.00     0.157 C 
HETATM    6 CL1  UNL     1      53.486 -20.340  -1.347  1.00  0.00    -0.112 Cl
BRANCH   5   7
HETATM    7  S1  UNL     1      55.983 -18.884  -2.117  1.00  0.00    -0.140 SA
BRANCH   7   8
HETATM    8  C3  UNL     1      56.347 -18.001  -0.598  1.00  0.00     0.153 C 
BRANCH   8   9
HETATM    9  C2  UNL     1      57.435 -17.015  -0.718  1.00  0.00     0.132 C 
HETATM   10  C1  UNL     1      57.358 -15.793   0.138  1.00  0.00     0.091 C 
HETATM   11  O1  UNL     1      58.383 -17.114  -1.452  1.00  0.00    -0.298 OA
ENDBRANCH   8   9
ENDBRANCH   7   8
ENDBRANCH   5   7
ENDBRANCH   1   5
BRANCH   3  12
HETATM   12  O2  UNL     1      54.224 -21.498  -6.035  1.00  0.00    -0.373 OA
ATOM     13  H2  UNL     1      54.547 -21.005  -6.780  1.00  0.00     0.212 HD
ENDBRANCH   3  12
BRANCH   3  14
HETATM   14  C8  UNL     1      53.669 -19.444  -4.927  1.00  0.00     0.280 C 
HETATM   15  O3  UNL     1      53.305 -18.962  -5.981  1.00  0.00    -0.303 OA
ENDBRANCH   3  14
TORSDOF 6
ENDMDL
MODEL 2
REMARK VINA RESULT: -5.181522554      3.353      6.223
REMARK  6 active torsions:
REMARK  status: ('A' for Active; 'I' for Inactive)
REMARK    1  A    between atoms: C2_2  and  C3_4 
REMARK    2  A    between atoms: C3_4  and  S1_5 
REMARK    3  A    between atoms: S1_5  and  C4_6 
REMARK    4  A    between atoms: C4_6  and  C5_8 
REMARK    5  A    between atoms: C7_10  and  O2_11 
REMARK    6  A    between atoms: C7_10  and  C8_13 
ROOT
HETATM    1  C5  UNL     1      54.370 -19.544  -3.334  1.00  0.00     0.083 C 
HETATM    2  C6  UNL     1      53.491 -20.254  -2.333  1.00  0.00     0.074 C 
HETATM    3  C7  UNL     1      54.628 -20.874  -1.528  1.00  0.00     0.160 C 
HETATM    4  S2  UNL     1      55.864 -19.905  -2.403  1.00  0.00    -0.117 SA
ENDROOT
BRANCH   1   5
HETATM    5  C4  UNL     1      54.267 -20.237  -4.691  1.00  0.00     0.157 C 
HETATM    6 CL1  UNL     1      55.859 -20.699  -5.298  1.00  0.00    -0.112 Cl
BRANCH   5   7
HETATM    7  S1  UNL     1      53.369 -19.105  -5.756  1.00  0.00    -0.140 SA
BRANCH   7   8
HETATM    8  C3  UNL     1      53.751 -19.447  -7.476  1.00  0.00     0.153 C 
BRANCH   8   9
HETATM    9  C2  UNL     1      52.591 -19.862  -8.282  1.00  0.00     0.132 C 
HETATM   10  C1  UNL     1      51.427 -18.928  -8.352  1.00  0.00     0.091 C 
HETATM   11  O1  UNL     1      52.503 -20.896  -8.891  1.00  0.00    -0.298 OA
ENDBRANCH   8   9
ENDBRANCH   7   8
ENDBRANCH   5   7
ENDBRANCH   1   5
BRANCH   3  12
HETATM   12  O2  UNL     1      54.454 -20.522  -0.179  1.00  0.00    -0.373 OA
ATOM     13  H2  UNL     1      54.454 -21.319   0.338  1.00  0.00     0.212 HD
ENDBRANCH   3  12
BRANCH   3  14
HETATM   14  C8  UNL     1      54.809 -22.329  -1.715  1.00  0.00     0.280 C 
HETATM   15  O3  UNL     1      54.555 -23.119  -0.828  1.00  0.00    -0.303 OA
ENDBRANCH   3  14
TORSDOF 6
ENDMDL
MODEL 3
REMARK VINA RESULT: -5.162433376      2.795      5.845
REMARK  6 active torsions:
REMARK  status: ('A' for Active; 'I' for Inactive)
REMARK    1  A    between atoms: C2_2  and  C3_4 
REMARK    2  A    between atoms: C3_4  and  S1_5 
REMARK    3  A    between atoms: S1_5  and  C4_6 
REMARK    4  A    between atoms: C4_6  and  C5_8 
REMARK    5  A    between atoms: C7_10  and  O2_11 
REMARK    6  A    between atoms: C7_10  and  C8_13 
ROOT
HETATM    1  C5  UNL     1      54.156 -21.455  -3.307  1.00  0.00     0.083 C 
HETATM    2  C6  UNL     1      55.301 -21.473  -2.322  1.00  0.00     0.074 C 
HETATM    3  C7  UNL     1      54.809 -20.302  -1.479  1.00  0.00     0.160 C 
HETATM    4  S2  UNL     1      53.227 -20.268  -2.330  1.00  0.00    -0.117 SA
ENDROOT
BRANCH   1   5
HETATM    5  C4  UNL     1      54.648 -20.941  -4.658  1.00  0.00     0.157 C 
HETATM    6 CL1  UNL     1      56.385 -20.631  -4.634  1.00  0.00    -0.112 Cl
BRANCH   5   7
HETATM    7  S1  UNL     1      53.644 -19.499  -5.031  1.00  0.00    -0.140 SA
BRANCH   7   8
HETATM    8  C3  UNL     1      53.446 -19.332  -6.807  1.00  0.00     0.153 C 
BRANCH   8   9
HETATM    9  C2  UNL     1      52.112 -18.872  -7.226  1.00  0.00     0.132 C 
HETATM   10  C1  UNL     1      51.689 -19.161  -8.630  1.00  0.00     0.091 C 
HETATM   11  O1  UNL     1      51.331 -18.280  -6.528  1.00  0.00    -0.298 OA
ENDBRANCH   8   9
ENDBRANCH   7   8
ENDBRANCH   5   7
ENDBRANCH   1   5
BRANCH   3  12
HETATM   12  O2  UNL     1      54.747 -20.721  -0.139  1.00  0.00    -0.373 OA
ATOM     13  H2  UNL     1      54.115 -20.175   0.313  1.00  0.00     0.212 HD
ENDBRANCH   3  12
BRANCH   3  14
HETATM   14  C8  UNL     1      55.572 -19.045  -1.645  1.00  0.00     0.280 C 
HETATM   15  O3  UNL     1      56.063 -18.472  -0.693  1.00  0.00    -0.303 OA
ENDBRANCH   3  14
TORSDOF 6
ENDMDL
MODEL 4
REMARK VINA RESULT: -5.129398942      3.737      5.543
REMARK  6 active torsions:
REMARK  status: ('A' for Active; 'I' for Inactive)
REMARK    1  A    between atoms: C2_2  and  C3_4 
REMARK    2  A    between atoms: C3_4  and  S1_5 
REMARK    3  A    between atoms: S1_5  and  C4_6 
REMARK    4  A    between atoms: C4_6  and  C5_8 
REMARK    5  A    between atoms: C7_10  and  O2_11 
REMARK    6  A    between atoms: C7_10  and  C8_13 
ROOT
HETATM    1  C5  UNL     1      54.097 -21.120  -3.410  1.00  0.00     0.083 C 
HETATM    2  C6  UNL     1      53.873 -22.562  -3.796  1.00  0.00     0.074 C 
HETATM    3  C7  UNL     1      53.691 -23.085  -2.375  1.00  0.00     0.160 C 
HETATM    4  S2  UNL     1      53.639 -21.421  -1.699  1.00  0.00    -0.117 SA
ENDROOT
BRANCH   1   5
HETATM    5  C4  UNL     1      55.561 -20.749  -3.634  1.00  0.00     0.157 C 
HETATM    6 CL1  UNL     1      56.089 -19.504  -2.500  1.00  0.00    -0.112 Cl
BRANCH   5   7
HETATM    7  S1  UNL     1      55.691 -20.278  -5.362  1.00  0.00    -0.140 SA
BRANCH   7   8
HETATM    8  C3  UNL     1      54.100 -19.708  -5.965  1.00  0.00     0.153 C 
BRANCH   8   9
HETATM    9  C2  UNL     1      54.018 -19.583  -7.429  1.00  0.00     0.132 C 
HETATM   10  C1  UNL     1      52.657 -19.557  -8.046  1.00  0.00     0.091 C 
HETATM   11  O1  UNL     1      54.959 -19.501  -8.173  1.00  0.00    -0.298 OA
ENDBRANCH   8   9
ENDBRANCH   7   8
ENDBRANCH   5   7
ENDBRANCH   1   5
BRANCH   3  12
HETATM   12  O2  UNL     1      52.472 -23.781  -2.316  1.00  0.00    -0.373 OA
ATOM     13  H2  UNL     1      51.852 -23.253  -1.828  1.00  0.00     0.212 HD
ENDBRANCH   3  12
BRANCH   3  14
HETATM   14  C8  UNL     1      54.823 -23.878  -1.849  1.00  0.00     0.280 C 
HETATM   15  O3  UNL     1      54.809 -25.092  -1.869  1.00  0.00    -0.303 OA
ENDBRANCH   3  14
TORSDOF 6
ENDMDL
MODEL 5
REMARK VINA RESULT: -5.033834266      1.904      2.578
REMARK  6 active torsions:
REMARK  status: ('A' for Active; 'I' for Inactive)
REMARK    1  A    between atoms: C2_2  and  C3_4 
REMARK    2  A    between atoms: C3_4  and  S1_5 
REMARK    3  A    between atoms: S1_5  and  C4_6 
REMARK    4  A    between atoms: C4_6  and  C5_8 
REMARK    5  A    between atoms: C7_10  and  O2_11 
REMARK    6  A    between atoms: C7_10  and  C8_13 
ROOT
HETATM    1  C5  UNL     1      55.487 -19.622  -3.012  1.00  0.00     0.083 C 
HETATM    2  C6  UNL     1      55.863 -21.003  -3.491  1.00  0.00     0.074 C 
HETATM    3  C7  UNL     1      54.500 -21.639  -3.241  1.00  0.00     0.160 C 
HETATM    4  S2  UNL     1      53.743 -20.044  -2.903  1.00  0.00    -0.117 SA
ENDROOT
BRANCH   1   5
HETATM    5  C4  UNL     1      56.169 -19.337  -1.675  1.00  0.00     0.157 C 
HETATM    6 CL1  UNL     1      55.021 -19.418  -0.337  1.00  0.00    -0.112 Cl
BRANCH   5   7
HETATM    7  S1  UNL     1      56.975 -17.744  -1.864  1.00  0.00    -0.140 SA
BRANCH   7   8
HETATM    8  C3  UNL     1      57.026 -16.892  -0.285  1.00  0.00     0.153 C 
BRANCH   8   9
HETATM    9  C2  UNL     1      58.229 -16.068  -0.081  1.00  0.00     0.132 C 
HETATM   10  C1  UNL     1      58.076 -14.797   0.689  1.00  0.00     0.091 C 
HETATM   11  O1  UNL     1      59.330 -16.336  -0.485  1.00  0.00    -0.298 OA
ENDBRANCH   8   9
ENDBRANCH   7   8
ENDBRANCH   5   7
ENDBRANCH   1   5
BRANCH   3  12
HETATM   12  O2  UNL     1      54.074 -22.249  -4.434  1.00  0.00    -0.373 OA
ATOM     13  H2  UNL     1      53.125 -22.276  -4.432  1.00  0.00     0.212 HD
ENDBRANCH   3  12
BRANCH   3  14
HETATM   14  C8  UNL     1      54.437 -22.556  -2.083  1.00  0.00     0.280 C 
HETATM   15  O3  UNL     1      53.866 -23.626  -2.151  1.00  0.00    -0.303 OA
ENDBRANCH   3  14
TORSDOF 6
ENDMDL
