MODEL 1
REMARK VINA RESULT: -4.713534268      0.000      0.000
REMARK  5 active torsions:
REMARK  status: ('A' for Active; 'I' for Inactive)
REMARK    1  A    between atoms: C2_2  and  O1_3 
REMARK    2  A    between atoms: O1_3  and  C3_4 
REMARK    3  A    between atoms: C3_4  and  O2_5 
REMARK    4  A    between atoms: C3_4  and  C4_7 
REMARK       I    between atoms: N1_15  and  C11_16 
REMARK    5  A    between atoms: C11_16  and  O4_18 
ROOT
HETATM    1  C4  UNL     1     -14.182  26.176  53.173  1.00  0.00     0.151 C 
HETATM    2  C5  UNL     1     -14.931  26.665  54.419  1.00  0.00     0.046 C 
HETATM    3  C6  UNL     1     -14.241  27.982  54.663  1.00  0.00    -0.001 C 
HETATM    4  C7  UNL     1     -14.914  29.106  53.893  1.00  0.00     0.021 C 
HETATM    5  C8  UNL     1     -14.176  28.360  56.110  1.00  0.00     0.021 C 
HETATM    6  C9  UNL     1     -12.862  27.742  54.100  1.00  0.00     0.052 C 
HETATM    7  C10 UNL     1     -11.927  28.652  54.121  1.00  0.00     0.214 C 
HETATM    8  F1  UNL     1     -12.134  29.879  54.651  1.00  0.00    -0.217 F 
HETATM    9  N1  UNL     1     -12.838  26.378  53.581  1.00  0.00    -0.285 N 
HETATM   10  C11 UNL     1     -11.647  25.644  53.576  1.00  0.00     0.367 C 
HETATM   11  O3  UNL     1     -11.541  24.476  53.108  1.00  0.00    -0.238 OA
ENDROOT
BRANCH   1  12
HETATM   12  C3  UNL     1     -14.650  24.896  52.715  1.00  0.00     0.279 C 
BRANCH  12  13
HETATM   13  O1  UNL     1     -15.541  24.006  53.216  1.00  0.00    -0.360 OA
BRANCH  13  14
HETATM   14  C2  UNL     1     -15.189  22.709  53.654  1.00  0.00     0.166 C 
HETATM   15  C1  UNL     1     -14.296  22.698  54.851  1.00  0.00     0.033 C 
ENDBRANCH  13  14
ENDBRANCH  12  13
BRANCH  12  16
HETATM   16  O2  UNL     1     -14.110  24.512  51.588  1.00  0.00    -0.369 OA
ATOM     17  H2  UNL     1     -13.434  23.854  51.699  1.00  0.00     0.212 HD
ENDBRANCH  12  16
ENDBRANCH   1  12
BRANCH  10  18
HETATM   18  O4  UNL     1     -10.454  26.167  54.105  1.00  0.00    -0.309 OA
HETATM   19  C12 UNL     1      -9.243  26.064  53.385  1.00  0.00     0.215 C 
ENDBRANCH  10  18
TORSDOF 5
ENDMDL
MODEL 2
REMARK VINA RESULT: -4.644302239      2.926      5.988
REMARK  5 active torsions:
REMARK  status: ('A' for Active; 'I' for Inactive)
REMARK    1  A    between atoms: C2_2  and  O1_3 
REMARK    2  A    between atoms: O1_3  and  C3_4 
REMARK    3  A    between atoms: C3_4  and  O2_5 
REMARK    4  A    between atoms: C3_4  and  C4_7 
REMARK       I    between atoms: N1_15  and  C11_16 
REMARK    5  A    between atoms: C11_16  and  O4_18 
ROOT
HETATM    1  C4  UNL     1      -9.085  27.817  54.628  1.00  0.00     0.151 C 
HETATM    2  C5  UNL     1      -9.521  29.231  55.032  1.00  0.00     0.046 C 
HETATM    3  C6  UNL     1     -10.749  28.925  55.848  1.00  0.00    -0.001 C 
HETATM    4  C7  UNL     1     -10.394  28.686  57.306  1.00  0.00     0.021 C 
HETATM    5  C8  UNL     1     -11.794  29.995  55.776  1.00  0.00     0.021 C 
HETATM    6  C9  UNL     1     -11.243  27.639  55.233  1.00  0.00     0.052 C 
HETATM    7  C10 UNL     1     -12.316  27.026  55.653  1.00  0.00     0.214 C 
HETATM    8  F1  UNL     1     -13.060  27.506  56.675  1.00  0.00    -0.217 F 
HETATM    9  N1  UNL     1     -10.316  27.288  54.161  1.00  0.00    -0.285 N 
HETATM   10  C11 UNL     1     -10.765  26.580  53.041  1.00  0.00     0.367 C 
HETATM   11  O3  UNL     1     -10.016  26.209  52.096  1.00  0.00    -0.238 OA
ENDROOT
BRANCH   1  12
HETATM   12  C3  UNL     1      -7.902  27.817  53.811  1.00  0.00     0.279 C 
BRANCH  12  13
HETATM   13  O1  UNL     1      -7.156  28.808  53.267  1.00  0.00    -0.360 OA
BRANCH  13  14
HETATM   14  C2  UNL     1      -5.742  28.817  53.273  1.00  0.00     0.166 C 
HETATM   15  C1  UNL     1      -5.139  29.622  52.169  1.00  0.00     0.033 C 
ENDBRANCH  13  14
ENDBRANCH  12  13
BRANCH  12  16
HETATM   16  O2  UNL     1      -7.453  26.620  53.538  1.00  0.00    -0.369 OA
ATOM     17  H2  UNL     1      -7.776  25.952  54.130  1.00  0.00     0.212 HD
ENDBRANCH  12  16
ENDBRANCH   1  12
BRANCH  10  18
HETATM   18  O4  UNL     1     -12.115  26.223  52.885  1.00  0.00    -0.309 OA
HETATM   19  C12 UNL     1     -12.972  26.996  52.070  1.00  0.00     0.215 C 
ENDBRANCH  10  18
TORSDOF 5
ENDMDL
MODEL 3
REMARK VINA RESULT: -4.598454627      1.763      4.447
REMARK  5 active torsions:
REMARK  status: ('A' for Active; 'I' for Inactive)
REMARK    1  A    between atoms: C2_2  and  O1_3 
REMARK    2  A    between atoms: O1_3  and  C3_4 
REMARK    3  A    between atoms: C3_4  and  O2_5 
REMARK    4  A    between atoms: C3_4  and  C4_7 
REMARK       I    between atoms: N1_15  and  C11_16 
REMARK    5  A    between atoms: C11_16  and  O4_18 
ROOT
HETATM    1  C4  UNL     1     -11.252  27.146  53.899  1.00  0.00     0.151 C 
HETATM    2  C5  UNL     1     -11.833  28.545  53.660  1.00  0.00     0.046 C 
HETATM    3  C6  UNL     1     -12.787  28.656  54.821  1.00  0.00    -0.001 C 
HETATM    4  C7  UNL     1     -12.094  29.223  56.048  1.00  0.00     0.021 C 
HETATM    5  C8  UNL     1     -13.994  29.490  54.521  1.00  0.00     0.021 C 
HETATM    6  C9  UNL     1     -13.167  27.219  55.075  1.00  0.00     0.052 C 
HETATM    7  C10 UNL     1     -14.002  26.869  56.016  1.00  0.00     0.214 C 
HETATM    8  F1  UNL     1     -14.584  27.779  56.829  1.00  0.00    -0.217 F 
HETATM    9  N1  UNL     1     -12.442  26.402  54.107  1.00  0.00    -0.285 N 
HETATM   10  C11 UNL     1     -12.987  25.198  53.649  1.00  0.00     0.367 C 
HETATM   11  O3  UNL     1     -12.403  24.421  52.844  1.00  0.00    -0.238 OA
ENDROOT
BRANCH   1  12
HETATM   12  C3  UNL     1     -10.288  26.770  52.901  1.00  0.00     0.279 C 
BRANCH  12  13
HETATM   13  O1  UNL     1      -9.029  26.275  52.974  1.00  0.00    -0.360 OA
BRANCH  13  14
HETATM   14  C2  UNL     1      -8.037  26.786  53.841  1.00  0.00     0.166 C 
HETATM   15  C1  UNL     1      -7.734  28.232  53.625  1.00  0.00     0.033 C 
ENDBRANCH  13  14
ENDBRANCH  12  13
BRANCH  12  16
HETATM   16  O2  UNL     1     -10.710  26.937  51.675  1.00  0.00    -0.369 OA
ATOM     17  H2  UNL     1     -10.635  27.834  51.369  1.00  0.00     0.212 HD
ENDBRANCH  12  16
ENDBRANCH   1  12
BRANCH  10  18
HETATM   18  O4  UNL     1     -14.256  24.757  54.061  1.00  0.00    -0.309 OA
HETATM   19  C12 UNL     1     -14.451  23.423  54.485  1.00  0.00     0.215 C 
ENDBRANCH  10  18
TORSDOF 5
ENDMDL
MODEL 4
REMARK VINA RESULT: -4.390657088      1.971      2.544
REMARK  5 active torsions:
REMARK  status: ('A' for Active; 'I' for Inactive)
REMARK    1  A    between atoms: C2_2  and  O1_3 
REMARK    2  A    between atoms: O1_3  and  C3_4 
REMARK    3  A    between atoms: C3_4  and  O2_5 
REMARK    4  A    between atoms: C3_4  and  C4_7 
REMARK       I    between atoms: N1_15  and  C11_16 
REMARK    5  A    between atoms: C11_16  and  O4_18 
ROOT
HETATM    1  C4  UNL     1     -15.432  24.877  53.482  1.00  0.00     0.151 C 
HETATM    2  C5  UNL     1     -16.018  26.064  54.256  1.00  0.00     0.046 C 
HETATM    3  C6  UNL     1     -15.664  27.204  53.337  1.00  0.00    -0.001 C 
HETATM    4  C7  UNL     1     -16.750  27.427  52.296  1.00  0.00     0.021 C 
HETATM    5  C8  UNL     1     -15.413  28.493  54.056  1.00  0.00     0.021 C 
HETATM    6  C9  UNL     1     -14.412  26.705  52.659  1.00  0.00     0.052 C 
HETATM    7  C10 UNL     1     -13.765  27.410  51.772  1.00  0.00     0.214 C 
HETATM    8  F1  UNL     1     -14.178  28.643  51.399  1.00  0.00    -0.217 F 
HETATM    9  N1  UNL     1     -14.135  25.373  53.188  1.00  0.00    -0.285 N 
HETATM   10  C11 UNL     1     -12.819  24.906  53.275  1.00  0.00     0.367 C 
HETATM   11  O3  UNL     1     -12.505  23.755  53.685  1.00  0.00    -0.238 OA
ENDROOT
BRANCH   1  12
HETATM   12  C3  UNL     1     -15.628  23.625  54.159  1.00  0.00     0.279 C 
BRANCH  12  13
HETATM   13  O1  UNL     1     -16.104  22.422  53.755  1.00  0.00    -0.360 OA
BRANCH  13  14
HETATM   14  C2  UNL     1     -17.418  22.221  53.274  1.00  0.00     0.166 C 
HETATM   15  C1  UNL     1     -18.262  21.371  54.165  1.00  0.00     0.033 C 
ENDBRANCH  13  14
ENDBRANCH  12  13
BRANCH  12  16
HETATM   16  O2  UNL     1     -15.277  23.647  55.418  1.00  0.00    -0.369 OA
ATOM     17  H2  UNL     1     -15.983  23.898  56.002  1.00  0.00     0.212 HD
ENDBRANCH  12  16
ENDBRANCH   1  12
BRANCH  10  18
HETATM   18  O4  UNL     1     -11.725  25.707  52.905  1.00  0.00    -0.309 OA
HETATM   19  C12 UNL     1     -10.799  26.152  53.875  1.00  0.00     0.215 C 
ENDBRANCH  10  18
TORSDOF 5
ENDMDL
MODEL 5
REMARK VINA RESULT: -4.308202937      1.741      4.495
REMARK  5 active torsions:
REMARK  status: ('A' for Active; 'I' for Inactive)
REMARK    1  A    between atoms: C2_2  and  O1_3 
REMARK    2  A    between atoms: O1_3  and  C3_4 
REMARK    3  A    between atoms: C3_4  and  O2_5 
REMARK    4  A    between atoms: C3_4  and  C4_7 
REMARK       I    between atoms: N1_15  and  C11_16 
REMARK    5  A    between atoms: C11_16  and  O4_18 
ROOT
HETATM    1  C4  UNL     1     -11.977  27.076  53.676  1.00  0.00     0.151 C 
HETATM    2  C5  UNL     1     -12.480  28.214  52.778  1.00  0.00     0.046 C 
HETATM    3  C6  UNL     1     -13.894  28.361  53.275  1.00  0.00    -0.001 C 
HETATM    4  C7  UNL     1     -13.968  29.332  54.442  1.00  0.00     0.021 C 
HETATM    5  C8  UNL     1     -14.854  28.805  52.216  1.00  0.00     0.021 C 
HETATM    6  C9  UNL     1     -14.221  26.969  53.757  1.00  0.00     0.052 C 
HETATM    7  C10 UNL     1     -15.382  26.657  54.267  1.00  0.00     0.214 C 
HETATM    8  F1  UNL     1     -16.373  27.567  54.398  1.00  0.00    -0.217 F 
HETATM    9  N1  UNL     1     -13.038  26.144  53.534  1.00  0.00    -0.285 N 
HETATM   10  C11 UNL     1     -13.168  24.776  53.274  1.00  0.00     0.367 C 
HETATM   11  O3  UNL     1     -12.191  23.994  53.110  1.00  0.00    -0.238 OA
ENDROOT
BRANCH   1  12
HETATM   12  C3  UNL     1     -10.612  26.718  53.400  1.00  0.00     0.279 C 
BRANCH  12  13
HETATM   13  O1  UNL     1      -9.506  26.629  54.178  1.00  0.00    -0.360 OA
BRANCH  13  14
HETATM   14  C2  UNL     1      -8.189  26.632  53.667  1.00  0.00     0.166 C 
HETATM   15  C1  UNL     1      -7.552  27.983  53.648  1.00  0.00     0.033 C 
ENDBRANCH  13  14
ENDBRANCH  12  13
BRANCH  12  16
HETATM   16  O2  UNL     1     -10.391  26.414  52.148  1.00  0.00    -0.369 OA
ATOM     17  H2  UNL     1     -10.940  26.896  51.541  1.00  0.00     0.212 HD
ENDBRANCH  12  16
ENDBRANCH   1  12
BRANCH  10  18
HETATM   18  O4  UNL     1     -14.427  24.159  53.173  1.00  0.00    -0.309 OA
HETATM   19  C12 UNL     1     -14.718  22.994  53.917  1.00  0.00     0.215 C 
ENDBRANCH  10  18
TORSDOF 5
ENDMDL
