MODEL 1
REMARK VINA RESULT: -7.253832358      0.000      0.000
REMARK  11 active torsions:
REMARK  status: ('A' for Active; 'I' for Inactive)
REMARK    1  A    between atoms: C3_4  and  O2_5 
REMARK    2  A    between atoms: O2_5  and  C4_6 
REMARK    3  A    between atoms: C5_7  and  N1_8 
REMARK    4  A    between atoms: C7_13  and  N2_14 
REMARK    5  A    between atoms: C8_18  and  N3_19 
REMARK    6  A    between atoms: N3_19  and  C9_21 
REMARK    7  A    between atoms: C9_21  and  C10_22 
REMARK    8  A    between atoms: C10_22  and  C11_23 
REMARK    9  A    between atoms: C11_23  and  C12_24 
REMARK   10  A    between atoms: C18_30  and  O3_31 
REMARK   11  A    between atoms: C23_39  and  O6_40 
ROOT
HETATM    1  C4  UNL     1      -1.342  82.845  22.032  1.00  0.00     0.185 C 
HETATM    2  C5  UNL     1      -1.633  83.034  20.582  1.00  0.00     0.217 C 
HETATM    3  C6  UNL     1      -2.362  81.963  19.877  1.00  0.00     0.070 C 
HETATM    4  C7  UNL     1      -2.008  80.605  20.316  1.00  0.00     0.210 C 
HETATM    5  C8  UNL     1      -0.742  80.589  21.079  1.00  0.00     0.138 C 
HETATM    6  C18 UNL     1      -0.754  81.497  22.283  1.00  0.00     0.173 C 
ENDROOT
BRANCH   1   7
HETATM    7  O2  UNL     1      -0.406  83.779  22.401  1.00  0.00    -0.349 OA
BRANCH   7   8
HETATM    8  C3  UNL     1      -0.663  84.543  23.489  1.00  0.00     0.292 C 
HETATM    9  O1  UNL     1      -1.707  84.087  24.295  1.00  0.00    -0.351 OA
HETATM   10  C2  UNL     1      -2.345  85.187  24.867  1.00  0.00     0.152 C 
HETATM   11  C1  UNL     1      -3.372  84.654  25.845  1.00  0.00     0.042 C 
HETATM   12  C23 UNL     1      -1.350  86.063  25.620  1.00  0.00     0.178 C 
HETATM   13  C22 UNL     1      -0.080  85.294  25.738  1.00  0.00     0.186 C 
HETATM   14  C19 UNL     1       0.484  84.865  24.379  1.00  0.00     0.208 C 
HETATM   15  O5  UNL     1       0.940  85.980  26.378  1.00  0.00    -0.378 OA
HETATM   16  O4  UNL     1       1.330  83.817  24.654  1.00  0.00    -0.376 OA
HETATM   17  C20 UNL     1       2.402  84.336  25.399  1.00  0.00     0.194 C 
HETATM   18  C21 UNL     1       1.934  85.019  26.658  1.00  0.00     0.194 C 
BRANCH  12  19
HETATM   19  O6  UNL     1      -1.186  87.293  24.983  1.00  0.00    -0.390 OA
ATOM     20  H6  UNL     1      -0.586  87.849  25.467  1.00  0.00     0.210 HD
ENDBRANCH  12  19
ENDBRANCH   7   8
ENDBRANCH   1   7
BRANCH   2  21
HETATM   21  N1  UNL     1      -2.457  84.244  20.363  1.00  0.00    -0.072 N 
ATOM     22  H13 UNL     1      -3.448  84.017  20.285  1.00  0.00     0.274 HD
ATOM     23  H12 UNL     1      -2.498  84.829  21.197  1.00  0.00     0.274 HD
ATOM     24  H11 UNL     1      -2.125  84.767  19.552  1.00  0.00     0.274 HD
ENDBRANCH   2  21
BRANCH   6  25
HETATM   25  O3  UNL     1       0.556  81.619  22.728  1.00  0.00    -0.391 OA
ATOM     26  H3  UNL     1       0.615  81.387  23.647  1.00  0.00     0.210 HD
ENDBRANCH   6  25
BRANCH   5  27
HETATM   27  N3  UNL     1       0.360  80.989  20.246  1.00  0.00    -0.413 N 
ATOM     28  H3  UNL     1       0.687  81.955  20.203  1.00  0.00     0.153 HD
BRANCH  27  29
HETATM   29  C9  UNL     1       0.971  79.940  19.479  1.00  0.00     0.114 C 
BRANCH  29  30
HETATM   30  C10 UNL     1       2.438  80.282  19.368  1.00  0.00     0.024 C 
BRANCH  30  31
HETATM   31  C11 UNL     1       3.363  79.245  19.905  1.00  0.00     0.040 C 
BRANCH  31  32
HETATM   32  C12 UNL     1       3.401  79.345  21.393  1.00  0.00    -0.058 A 
HETATM   33  C13 UNL     1       4.269  80.279  21.953  1.00  0.00     0.007 A 
HETATM   34  C14 UNL     1       4.357  80.420  23.321  1.00  0.00     0.001 A 
HETATM   35  C15 UNL     1       3.568  79.617  24.106  1.00  0.00     0.000 A 
HETATM   36  C16 UNL     1       2.709  78.693  23.559  1.00  0.00     0.001 A 
HETATM   37  C17 UNL     1       2.623  78.555  22.196  1.00  0.00     0.007 A 
ENDBRANCH  31  32
ENDBRANCH  30  31
ENDBRANCH  29  30
ENDBRANCH  27  29
ENDBRANCH   5  27
BRANCH   4  38
HETATM   38  N2  UNL     1      -3.091  80.126  21.178  1.00  0.00    -0.073 N 
ATOM     39  H23 UNL     1      -3.691  79.439  20.720  1.00  0.00     0.274 HD
ATOM     40  H22 UNL     1      -2.762  79.529  21.937  1.00  0.00     0.274 HD
ATOM     41  H21 UNL     1      -3.604  80.943  21.508  1.00  0.00     0.274 HD
ENDBRANCH   4  38
TORSDOF 11
ENDMDL
MODEL 2
REMARK VINA RESULT: -7.100710654      2.192      4.272
REMARK  11 active torsions:
REMARK  status: ('A' for Active; 'I' for Inactive)
REMARK    1  A    between atoms: C3_4  and  O2_5 
REMARK    2  A    between atoms: O2_5  and  C4_6 
REMARK    3  A    between atoms: C5_7  and  N1_8 
REMARK    4  A    between atoms: C7_13  and  N2_14 
REMARK    5  A    between atoms: C8_18  and  N3_19 
REMARK    6  A    between atoms: N3_19  and  C9_21 
REMARK    7  A    between atoms: C9_21  and  C10_22 
REMARK    8  A    between atoms: C10_22  and  C11_23 
REMARK    9  A    between atoms: C11_23  and  C12_24 
REMARK   10  A    between atoms: C18_30  and  O3_31 
REMARK   11  A    between atoms: C23_39  and  O6_40 
ROOT
HETATM    1  C4  UNL     1      -0.264  81.930  23.654  1.00  0.00     0.185 C 
HETATM    2  C5  UNL     1      -0.107  80.762  22.740  1.00  0.00     0.217 C 
HETATM    3  C6  UNL     1       0.210  79.452  23.340  1.00  0.00     0.070 C 
HETATM    4  C7  UNL     1       1.116  79.523  24.495  1.00  0.00     0.210 C 
HETATM    5  C8  UNL     1       1.812  80.826  24.567  1.00  0.00     0.138 C 
HETATM    6  C18 UNL     1       0.873  82.006  24.616  1.00  0.00     0.173 C 
ENDROOT
BRANCH   1   7
HETATM    7  O2  UNL     1      -0.236  83.070  22.891  1.00  0.00    -0.349 OA
BRANCH   7   8
HETATM    8  C3  UNL     1      -1.146  84.038  23.157  1.00  0.00     0.292 C 
HETATM    9  O1  UNL     1      -0.660  85.112  23.903  1.00  0.00    -0.351 OA
HETATM   10  C2  UNL     1      -1.691  85.605  24.702  1.00  0.00     0.152 C 
HETATM   11  C1  UNL     1      -1.174  86.855  25.385  1.00  0.00     0.042 C 
HETATM   12  C23 UNL     1      -2.909  85.967  23.858  1.00  0.00     0.178 C 
HETATM   13  C22 UNL     1      -2.483  85.948  22.432  1.00  0.00     0.186 C 
HETATM   14  C19 UNL     1      -1.900  84.597  22.003  1.00  0.00     0.208 C 
HETATM   15  O5  UNL     1      -3.500  86.229  21.532  1.00  0.00    -0.378 OA
HETATM   16  O4  UNL     1      -1.150  84.866  20.882  1.00  0.00    -0.376 OA
HETATM   17  C20 UNL     1      -2.043  85.266  19.874  1.00  0.00     0.194 C 
HETATM   18  C21 UNL     1      -2.867  86.457  20.293  1.00  0.00     0.194 C 
BRANCH  12  19
HETATM   19  O6  UNL     1      -3.973  85.106  24.121  1.00  0.00    -0.390 OA
ATOM     20  H6  UNL     1      -3.962  84.361  23.532  1.00  0.00     0.210 HD
ENDBRANCH  12  19
ENDBRANCH   7   8
ENDBRANCH   1   7
BRANCH   2  21
HETATM   21  N1  UNL     1      -1.349  80.523  21.971  1.00  0.00    -0.072 N 
ATOM     22  H13 UNL     1      -1.988  79.904  22.470  1.00  0.00     0.274 HD
ATOM     23  H12 UNL     1      -1.937  81.355  21.936  1.00  0.00     0.274 HD
ATOM     24  H11 UNL     1      -1.137  80.172  21.038  1.00  0.00     0.274 HD
ENDBRANCH   2  21
BRANCH   6  25
HETATM   25  O3  UNL     1       1.625  83.150  24.383  1.00  0.00    -0.391 OA
ATOM     26  H3  UNL     1       2.045  83.100  23.533  1.00  0.00     0.210 HD
ENDBRANCH   6  25
BRANCH   5  27
HETATM   27  N3  UNL     1       2.674  81.007  23.430  1.00  0.00    -0.413 N 
ATOM     28  H3  UNL     1       2.320  81.309  22.522  1.00  0.00     0.153 HD
BRANCH  27  29
HETATM   29  C9  UNL     1       4.065  80.735  23.658  1.00  0.00     0.114 C 
BRANCH  29  30
HETATM   30  C10 UNL     1       4.582  80.051  22.414  1.00  0.00     0.024 C 
BRANCH  30  31
HETATM   31  C11 UNL     1       3.609  79.133  21.758  1.00  0.00     0.040 C 
BRANCH  31  32
HETATM   32  C12 UNL     1       3.568  79.425  20.295  1.00  0.00    -0.058 A 
HETATM   33  C13 UNL     1       2.337  79.769  19.743  1.00  0.00     0.007 A 
HETATM   34  C14 UNL     1       2.227  80.047  18.398  1.00  0.00     0.001 A 
HETATM   35  C15 UNL     1       3.361  79.975  17.628  1.00  0.00     0.000 A 
HETATM   36  C16 UNL     1       4.579  79.636  18.168  1.00  0.00     0.001 A 
HETATM   37  C17 UNL     1       4.685  79.360  19.508  1.00  0.00     0.007 A 
ENDBRANCH  31  32
ENDBRANCH  30  31
ENDBRANCH  29  30
ENDBRANCH  27  29
ENDBRANCH   5  27
BRANCH   4  38
HETATM   38  N2  UNL     1       0.304  79.348  25.702  1.00  0.00    -0.073 N 
ATOM     39  H23 UNL     1       0.342  80.152  26.328  1.00  0.00     0.274 HD
ATOM     40  H22 UNL     1      -0.698  79.373  25.514  1.00  0.00     0.274 HD
ATOM     41  H21 UNL     1       0.604  78.481  26.148  1.00  0.00     0.274 HD
ENDBRANCH   4  38
TORSDOF 11
ENDMDL
MODEL 3
REMARK VINA RESULT: -7.088209463      3.383      5.727
REMARK  11 active torsions:
REMARK  status: ('A' for Active; 'I' for Inactive)
REMARK    1  A    between atoms: C3_4  and  O2_5 
REMARK    2  A    between atoms: O2_5  and  C4_6 
REMARK    3  A    between atoms: C5_7  and  N1_8 
REMARK    4  A    between atoms: C7_13  and  N2_14 
REMARK    5  A    between atoms: C8_18  and  N3_19 
REMARK    6  A    between atoms: N3_19  and  C9_21 
REMARK    7  A    between atoms: C9_21  and  C10_22 
REMARK    8  A    between atoms: C10_22  and  C11_23 
REMARK    9  A    between atoms: C11_23  and  C12_24 
REMARK   10  A    between atoms: C18_30  and  O3_31 
REMARK   11  A    between atoms: C23_39  and  O6_40 
ROOT
HETATM    1  C4  UNL     1      -2.579  85.656  23.801  1.00  0.00     0.185 C 
HETATM    2  C5  UNL     1      -1.133  85.480  24.121  1.00  0.00     0.217 C 
HETATM    3  C6  UNL     1      -0.229  85.073  23.029  1.00  0.00     0.070 C 
HETATM    4  C7  UNL     1      -0.824  84.121  22.079  1.00  0.00     0.210 C 
HETATM    5  C8  UNL     1      -2.043  83.490  22.627  1.00  0.00     0.138 C 
HETATM    6  C18 UNL     1      -3.100  84.483  23.041  1.00  0.00     0.173 C 
ENDROOT
BRANCH   1   7
HETATM    7  O2  UNL     1      -3.269  85.718  24.987  1.00  0.00    -0.349 OA
BRANCH   7   8
HETATM    8  C3  UNL     1      -4.167  86.719  25.150  1.00  0.00     0.292 C 
HETATM    9  O1  UNL     1      -5.014  86.931  24.063  1.00  0.00    -0.351 OA
HETATM   10  C2  UNL     1      -5.326  88.289  23.996  1.00  0.00     0.152 C 
HETATM   11  C1  UNL     1      -6.359  88.460  22.900  1.00  0.00     0.042 C 
HETATM   12  C23 UNL     1      -5.915  88.778  25.314  1.00  0.00     0.178 C 
HETATM   13  C22 UNL     1      -6.231  87.576  26.133  1.00  0.00     0.186 C 
HETATM   14  C19 UNL     1      -5.010  86.682  26.375  1.00  0.00     0.208 C 
HETATM   15  O5  UNL     1      -6.750  87.864  27.387  1.00  0.00    -0.378 OA
HETATM   16  O4  UNL     1      -5.522  85.449  26.703  1.00  0.00    -0.376 OA
HETATM   17  C20 UNL     1      -6.179  85.590  27.937  1.00  0.00     0.194 C 
HETATM   18  C21 UNL     1      -7.254  86.645  27.884  1.00  0.00     0.194 C 
BRANCH  12  19
HETATM   19  O6  UNL     1      -5.045  89.660  25.953  1.00  0.00    -0.390 OA
ATOM     20  H6  UNL     1      -5.452  90.509  26.079  1.00  0.00     0.210 HD
ENDBRANCH  12  19
ENDBRANCH   7   8
ENDBRANCH   1   7
BRANCH   2  21
HETATM   21  N1  UNL     1      -0.549  86.742  24.630  1.00  0.00    -0.072 N 
ATOM     22  H13 UNL     1      -0.190  87.324  23.873  1.00  0.00     0.274 HD
ATOM     23  H12 UNL     1      -1.266  87.375  24.983  1.00  0.00     0.274 HD
ATOM     24  H11 UNL     1       0.167  86.554  25.332  1.00  0.00     0.274 HD
ENDBRANCH   2  21
BRANCH   6  25
HETATM   25  O3  UNL     1      -4.044  83.799  23.797  1.00  0.00    -0.391 OA
ATOM     26  H3  UNL     1      -4.824  83.637  23.281  1.00  0.00     0.210 HD
ENDBRANCH   6  25
BRANCH   5  27
HETATM   27  N3  UNL     1      -1.728  82.688  23.779  1.00  0.00    -0.413 N 
ATOM     28  H3  UNL     1      -1.992  82.967  24.724  1.00  0.00     0.153 HD
BRANCH  27  29
HETATM   29  C9  UNL     1      -1.018  81.470  23.511  1.00  0.00     0.114 C 
BRANCH  29  30
HETATM   30  C10 UNL     1      -0.065  81.261  24.665  1.00  0.00     0.024 C 
BRANCH  30  31
HETATM   31  C11 UNL     1       1.270  81.899  24.495  1.00  0.00     0.040 C 
BRANCH  31  32
HETATM   32  C12 UNL     1       1.392  83.042  25.445  1.00  0.00    -0.058 A 
HETATM   33  C13 UNL     1       2.307  84.044  25.132  1.00  0.00     0.007 A 
HETATM   34  C14 UNL     1       2.473  85.126  25.969  1.00  0.00     0.001 A 
HETATM   35  C15 UNL     1       1.713  85.184  27.110  1.00  0.00     0.000 A 
HETATM   36  C16 UNL     1       0.808  84.198  27.424  1.00  0.00     0.001 A 
HETATM   37  C17 UNL     1       0.644  83.122  26.589  1.00  0.00     0.007 A 
ENDBRANCH  31  32
ENDBRANCH  30  31
ENDBRANCH  29  30
ENDBRANCH  27  29
ENDBRANCH   5  27
BRANCH   4  38
HETATM   38  N2  UNL     1      -1.175  84.870  20.870  1.00  0.00    -0.073 N 
ATOM     39  H23 UNL     1      -0.361  85.240  20.380  1.00  0.00     0.274 HD
ATOM     40  H22 UNL     1      -1.522  84.273  20.119  1.00  0.00     0.274 HD
ATOM     41  H21 UNL     1      -1.839  85.595  21.142  1.00  0.00     0.274 HD
ENDBRANCH   4  38
TORSDOF 11
ENDMDL
MODEL 4
REMARK VINA RESULT: -6.944091065      4.872      7.766
REMARK  11 active torsions:
REMARK  status: ('A' for Active; 'I' for Inactive)
REMARK    1  A    between atoms: C3_4  and  O2_5 
REMARK    2  A    between atoms: O2_5  and  C4_6 
REMARK    3  A    between atoms: C5_7  and  N1_8 
REMARK    4  A    between atoms: C7_13  and  N2_14 
REMARK    5  A    between atoms: C8_18  and  N3_19 
REMARK    6  A    between atoms: N3_19  and  C9_21 
REMARK    7  A    between atoms: C9_21  and  C10_22 
REMARK    8  A    between atoms: C10_22  and  C11_23 
REMARK    9  A    between atoms: C11_23  and  C12_24 
REMARK   10  A    between atoms: C18_30  and  O3_31 
REMARK   11  A    between atoms: C23_39  and  O6_40 
ROOT
HETATM    1  C4  UNL     1      -4.019  86.554  25.614  1.00  0.00     0.185 C 
HETATM    2  C5  UNL     1      -2.705  86.151  25.035  1.00  0.00     0.217 C 
HETATM    3  C6  UNL     1      -2.358  84.717  25.039  1.00  0.00     0.070 C 
HETATM    4  C7  UNL     1      -2.811  83.993  26.236  1.00  0.00     0.210 C 
HETATM    5  C8  UNL     1      -3.167  84.917  27.334  1.00  0.00     0.138 C 
HETATM    6  C18 UNL     1      -4.223  85.925  26.952  1.00  0.00     0.173 C 
ENDROOT
BRANCH   1   7
HETATM    7  O2  UNL     1      -4.000  87.914  25.797  1.00  0.00    -0.349 OA
BRANCH   7   8
HETATM    8  C3  UNL     1      -4.910  88.660  25.125  1.00  0.00     0.292 C 
HETATM    9  O1  UNL     1      -5.641  87.966  24.160  1.00  0.00    -0.351 OA
HETATM   10  C2  UNL     1      -5.943  88.838  23.115  1.00  0.00     0.152 C 
HETATM   11  C1  UNL     1      -6.857  88.097  22.160  1.00  0.00     0.042 C 
HETATM   12  C23 UNL     1      -6.664  90.078  23.630  1.00  0.00     0.178 C 
HETATM   13  C22 UNL     1      -7.063  89.807  25.039  1.00  0.00     0.186 C 
HETATM   14  C19 UNL     1      -5.874  89.450  25.937  1.00  0.00     0.208 C 
HETATM   15  O5  UNL     1      -7.708  90.866  25.659  1.00  0.00    -0.378 OA
HETATM   16  O4  UNL     1      -6.418  88.790  27.013  1.00  0.00    -0.376 OA
HETATM   17  C20 UNL     1      -7.199  89.723  27.717  1.00  0.00     0.194 C 
HETATM   18  C21 UNL     1      -8.262  90.339  26.844  1.00  0.00     0.194 C 
BRANCH  12  19
HETATM   19  O6  UNL     1      -5.863  91.212  23.499  1.00  0.00    -0.390 OA
ATOM     20  H6  UNL     1      -6.390  92.002  23.497  1.00  0.00     0.210 HD
ENDBRANCH  12  19
ENDBRANCH   7   8
ENDBRANCH   1   7
BRANCH   2  21
HETATM   21  N1  UNL     1      -2.615  86.546  23.611  1.00  0.00    -0.072 N 
ATOM     22  H13 UNL     1      -3.169  85.933  23.013  1.00  0.00     0.274 HD
ATOM     23  H12 UNL     1      -3.105  87.421  23.430  1.00  0.00     0.274 HD
ATOM     24  H11 UNL     1      -1.642  86.589  23.307  1.00  0.00     0.274 HD
ENDBRANCH   2  21
BRANCH   6  25
HETATM   25  O3  UNL     1      -4.251  86.898  27.942  1.00  0.00    -0.391 OA
ATOM     26  H3  UNL     1      -3.437  86.893  28.431  1.00  0.00     0.210 HD
ENDBRANCH   6  25
BRANCH   5  27
HETATM   27  N3  UNL     1      -2.012  85.649  27.779  1.00  0.00    -0.413 N 
ATOM     28  H3  UNL     1      -1.546  86.340  27.191  1.00  0.00     0.153 HD
BRANCH  27  29
HETATM   29  C9  UNL     1      -1.560  85.343  29.107  1.00  0.00     0.114 C 
BRANCH  29  30
HETATM   30  C10 UNL     1      -0.430  84.350  28.961  1.00  0.00     0.024 C 
BRANCH  30  31
HETATM   31  C11 UNL     1       0.885  84.949  28.600  1.00  0.00     0.040 C 
BRANCH  31  32
HETATM   32  C12 UNL     1       1.281  84.480  27.240  1.00  0.00    -0.058 A 
HETATM   33  C13 UNL     1       0.692  83.311  26.766  1.00  0.00     0.007 A 
HETATM   34  C14 UNL     1       1.017  82.819  25.521  1.00  0.00     0.001 A 
HETATM   35  C15 UNL     1       1.931  83.514  24.769  1.00  0.00     0.000 A 
HETATM   36  C16 UNL     1       2.516  84.669  25.233  1.00  0.00     0.001 A 
HETATM   37  C17 UNL     1       2.190  85.157  26.473  1.00  0.00     0.007 A 
ENDBRANCH  31  32
ENDBRANCH  30  31
ENDBRANCH  29  30
ENDBRANCH  27  29
ENDBRANCH   5  27
BRANCH   4  38
HETATM   38  N2  UNL     1      -3.996  83.219  25.859  1.00  0.00    -0.073 N 
ATOM     39  H23 UNL     1      -4.544  83.663  25.122  1.00  0.00     0.274 HD
ATOM     40  H22 UNL     1      -3.768  82.361  25.356  1.00  0.00     0.274 HD
ATOM     41  H21 UNL     1      -4.534  83.051  26.709  1.00  0.00     0.274 HD
ENDBRANCH   4  38
TORSDOF 11
ENDMDL
MODEL 5
REMARK VINA RESULT: -6.869691016      7.007     10.180
REMARK  11 active torsions:
REMARK  status: ('A' for Active; 'I' for Inactive)
REMARK    1  A    between atoms: C3_4  and  O2_5 
REMARK    2  A    between atoms: O2_5  and  C4_6 
REMARK    3  A    between atoms: C5_7  and  N1_8 
REMARK    4  A    between atoms: C7_13  and  N2_14 
REMARK    5  A    between atoms: C8_18  and  N3_19 
REMARK    6  A    between atoms: N3_19  and  C9_21 
REMARK    7  A    between atoms: C9_21  and  C10_22 
REMARK    8  A    between atoms: C10_22  and  C11_23 
REMARK    9  A    between atoms: C11_23  and  C12_24 
REMARK   10  A    between atoms: C18_30  and  O3_31 
REMARK   11  A    between atoms: C23_39  and  O6_40 
ROOT
HETATM    1  C4  UNL     1      -6.331  89.944  25.554  1.00  0.00     0.185 C 
HETATM    2  C5  UNL     1      -4.909  90.246  25.221  1.00  0.00     0.217 C 
HETATM    3  C6  UNL     1      -4.281  89.490  24.122  1.00  0.00     0.070 C 
HETATM    4  C7  UNL     1      -4.702  88.083  24.042  1.00  0.00     0.210 C 
HETATM    5  C8  UNL     1      -5.353  87.635  25.291  1.00  0.00     0.138 C 
HETATM    6  C18 UNL     1      -6.545  88.474  25.682  1.00  0.00     0.173 C 
ENDROOT
BRANCH   1   7
HETATM    7  O2  UNL     1      -6.608  90.509  26.774  1.00  0.00    -0.349 OA
BRANCH   7   8
HETATM    8  C3  UNL     1      -7.452  91.568  26.809  1.00  0.00     0.292 C 
HETATM    9  O1  UNL     1      -8.612  91.421  26.048  1.00  0.00    -0.351 OA
HETATM   10  C2  UNL     1      -8.990  92.672  25.562  1.00  0.00     0.152 C 
HETATM   11  C1  UNL     1     -10.325  92.501  24.867  1.00  0.00     0.042 C 
HETATM   12  C23 UNL     1      -9.149  93.673  26.701  1.00  0.00     0.178 C 
HETATM   13  C22 UNL     1      -9.131  92.903  27.976  1.00  0.00     0.186 C 
HETATM   14  C19 UNL     1      -7.857  92.070  28.150  1.00  0.00     0.208 C 
HETATM   15  O5  UNL     1      -9.235  93.689  29.114  1.00  0.00    -0.378 OA
HETATM   16  O4  UNL     1      -8.180  91.101  29.070  1.00  0.00    -0.376 OA
HETATM   17  C20 UNL     1      -8.414  91.755  30.292  1.00  0.00     0.194 C 
HETATM   18  C21 UNL     1      -9.497  92.797  30.174  1.00  0.00     0.194 C 
BRANCH  12  19
HETATM   19  O6  UNL     1      -8.161  94.656  26.644  1.00  0.00    -0.390 OA
ATOM     20  H6  UNL     1      -8.546  95.522  26.583  1.00  0.00     0.210 HD
ENDBRANCH  12  19
ENDBRANCH   7   8
ENDBRANCH   1   7
BRANCH   2  21
HETATM   21  N1  UNL     1      -4.749  91.665  24.829  1.00  0.00    -0.072 N 
ATOM     22  H13 UNL     1      -5.586  92.210  25.036  1.00  0.00     0.274 HD
ATOM     23  H12 UNL     1      -4.093  92.153  25.439  1.00  0.00     0.274 HD
ATOM     24  H11 UNL     1      -4.482  91.743  23.849  1.00  0.00     0.274 HD
ENDBRANCH   2  21
BRANCH   6  25
HETATM   25  O3  UNL     1      -6.875  88.147  26.991  1.00  0.00    -0.391 OA
ATOM     26  H3  UNL     1      -7.817  88.162  27.107  1.00  0.00     0.210 HD
ENDBRANCH   6  25
BRANCH   5  27
HETATM   27  N3  UNL     1      -4.425  87.664  26.389  1.00  0.00    -0.413 N 
ATOM     28  H3  UNL     1      -4.292  88.494  26.967  1.00  0.00     0.153 HD
BRANCH  27  29
HETATM   29  C9  UNL     1      -3.698  86.447  26.617  1.00  0.00     0.114 C 
BRANCH  29  30
HETATM   30  C10 UNL     1      -2.230  86.800  26.549  1.00  0.00     0.024 C 
BRANCH  30  31
HETATM   31  C11 UNL     1      -1.575  86.492  25.247  1.00  0.00     0.040 C 
BRANCH  31  32
HETATM   32  C12 UNL     1      -0.195  85.984  25.501  1.00  0.00    -0.058 A 
HETATM   33  C13 UNL     1       0.135  85.647  26.811  1.00  0.00     0.007 A 
HETATM   34  C14 UNL     1       1.394  85.176  27.116  1.00  0.00     0.001 A 
HETATM   35  C15 UNL     1       2.302  85.049  26.095  1.00  0.00     0.000 A 
HETATM   36  C16 UNL     1       1.981  85.381  24.799  1.00  0.00     0.001 A 
HETATM   37  C17 UNL     1       0.728  85.849  24.499  1.00  0.00     0.007 A 
ENDBRANCH  31  32
ENDBRANCH  30  31
ENDBRANCH  29  30
ENDBRANCH  27  29
ENDBRANCH   5  27
BRANCH   4  38
HETATM   38  N2  UNL     1      -5.658  87.973  22.937  1.00  0.00    -0.073 N 
ATOM     39  H23 UNL     1      -5.621  88.767  22.298  1.00  0.00     0.274 HD
ATOM     40  H22 UNL     1      -5.408  87.249  22.265  1.00  0.00     0.274 HD
ATOM     41  H21 UNL     1      -6.582  87.836  23.346  1.00  0.00     0.274 HD
ENDBRANCH   4  38
TORSDOF 11
ENDMDL
