MODEL 1
REMARK VINA RESULT: -7.240976775      0.000      0.000
REMARK  15 active torsions:
REMARK  status: ('A' for Active; 'I' for Inactive)
REMARK    1  A    between atoms: N1_2  and  C3_4 
REMARK    2  A    between atoms: C3_4  and  C4_5 
REMARK    3  A    between atoms: C4_5  and  C5_6 
REMARK    4  A    between atoms: C5_6  and  C6_7 
REMARK    5  A    between atoms: C6_7  and  C7_8 
REMARK    6  A    between atoms: C7_8  and  C8_9 
REMARK    7  A    between atoms: C8_9  and  N2_10 
REMARK    8  A    between atoms: C12_18  and  N4_19 
REMARK    9  A    between atoms: N4_19  and  C13_21 
REMARK   10  A    between atoms: C13_21  and  C14_22 
REMARK   11  A    between atoms: C14_22  and  C15_23 
REMARK   12  A    between atoms: C15_23  and  N5_24 
REMARK       I    between atoms: N5_24  and  C16_26 
REMARK       I    between atoms: C16_26  and  N6_28 
REMARK   13  A    between atoms: N6_28  and  C17_30 
REMARK   14  A    between atoms: N8_34  and  C19_35 
REMARK   15  A    between atoms: C22_38  and  O2_39 
ROOT
HETATM    1  C13 UNL     1      79.095   4.873  -2.440  1.00  0.00     0.123 C 
ENDROOT
BRANCH   1   2
HETATM    2  N4  UNL     1      78.341   4.859  -1.236  1.00  0.00    -0.374 N 
ATOM      3  H4  UNL     1      78.603   4.139  -0.563  1.00  0.00     0.161 HD
BRANCH   2   4
HETATM    4  C12 UNL     1      77.382   5.620  -0.877  1.00  0.00     0.140 A 
HETATM    5  C11 UNL     1      77.298   6.003   0.465  1.00  0.00     0.094 A 
HETATM    6  C10 UNL     1      76.263   6.814   0.831  1.00  0.00     0.133 A 
HETATM    7 CL1  UNL     1      78.511   5.427   1.587  1.00  0.00    -0.079 Cl
HETATM    8  N3  UNL     1      75.372   7.219  -0.076  1.00  0.00    -0.200 N 
HETATM    9  C9  UNL     1      75.421   6.863  -1.400  1.00  0.00     0.679 A 
ATOM     10  H3  UNL     1      74.613   7.825   0.232  1.00  0.00     0.183 HD
HETATM   11  N2  UNL     1      74.516   7.300  -2.201  1.00  0.00    -0.226 N 
HETATM   12  N9  UNL     1      76.447   6.066  -1.736  1.00  0.00    -0.175 N 
ATOM     13  H2  UNL     1      73.780   7.900  -1.831  1.00  0.00     0.177 HD
ATOM     14  H9  UNL     1      76.524   5.778  -2.711  1.00  0.00     0.186 HD
BRANCH  11  15
HETATM   15  C8  UNL     1      74.502   6.973  -3.594  1.00  0.00     0.138 C 
BRANCH  15  16
HETATM   16  C7  UNL     1      73.123   6.630  -4.121  1.00  0.00     0.020 C 
BRANCH  16  17
HETATM   17  C6  UNL     1      73.151   6.225  -5.558  1.00  0.00     0.002 C 
BRANCH  17  18
HETATM   18  C5  UNL     1      72.320   7.072  -6.467  1.00  0.00     0.002 C 
BRANCH  18  19
HETATM   19  C4  UNL     1      72.723   8.512  -6.462  1.00  0.00     0.030 C 
BRANCH  19  20
HETATM   20  C3  UNL     1      74.031   8.656  -7.189  1.00  0.00     0.271 C 
BRANCH  20  21
HETATM   21  N1  UNL     1      75.059   9.266  -6.391  1.00  0.00     0.080 N 
HETATM   22  C1  UNL     1      74.503  10.355  -5.638  1.00  0.00     0.309 C 
HETATM   23  C2  UNL     1      76.202   9.677  -7.164  1.00  0.00     0.309 C 
ENDBRANCH  20  21
ENDBRANCH  19  20
ENDBRANCH  18  19
ENDBRANCH  17  18
ENDBRANCH  16  17
ENDBRANCH  15  16
ENDBRANCH  11  15
ENDBRANCH   2   4
ENDBRANCH   1   2
BRANCH   1  24
HETATM   24  C14 UNL     1      78.680   3.665  -3.290  1.00  0.00     0.039 C 
BRANCH  24  25
HETATM   25  C15 UNL     1      78.314   4.180  -4.650  1.00  0.00     0.126 C 
BRANCH  25  26
HETATM   26  N5  UNL     1      79.370   4.915  -5.282  1.00  0.00    -0.343 N 
HETATM   27  C16 UNL     1      79.113   6.171  -5.873  1.00  0.00     0.320 C 
HETATM   28  O1  UNL     1      77.931   6.610  -5.823  1.00  0.00    -0.247 OA
HETATM   29  N6  UNL     1      80.163   6.888  -6.492  1.00  0.00    -0.306 N 
ATOM     30  H6  UNL     1      81.087   6.457  -6.491  1.00  0.00     0.171 HD
ATOM     31  H5  UNL     1      80.313   4.529  -5.304  1.00  0.00     0.164 HD
BRANCH  29  32
HETATM   32  C17 UNL     1      80.037   8.147  -7.109  1.00  0.00     0.070 A 
HETATM   33  C18 UNL     1      79.508   8.387  -8.382  1.00  0.00     0.138 A 
HETATM   34  N7  UNL     1      79.564   9.719  -8.619  1.00  0.00    -0.307 N 
HETATM   35  N8  UNL     1      80.094  10.330  -7.580  1.00  0.00    -0.297 N 
ATOM     36  H7  UNL     1      79.244  10.178  -9.472  1.00  0.00     0.186 HD
HETATM   37  C25 UNL     1      80.393   9.389  -6.640  1.00  0.00     0.141 A 
BRANCH  35  38
HETATM   38  C19 UNL     1      80.318  11.752  -7.465  1.00  0.00     0.107 C 
HETATM   39  C20 UNL     1      80.660  12.367  -8.800  1.00  0.00     0.030 C 
HETATM   40  C21 UNL     1      81.101  13.797  -8.517  1.00  0.00     0.034 C 
HETATM   41  C22 UNL     1      79.951  14.567  -7.936  1.00  0.00     0.118 C 
HETATM   42  C23 UNL     1      78.758  13.692  -7.641  1.00  0.00     0.034 C 
HETATM   43  C24 UNL     1      79.146  12.480  -6.813  1.00  0.00     0.030 C 
BRANCH  41  44
HETATM   44  O2  UNL     1      80.356  15.204  -6.746  1.00  0.00    -0.396 OA
ATOM     45  H2  UNL     1      81.300  15.148  -6.656  1.00  0.00     0.210 HD
ENDBRANCH  41  44
ENDBRANCH  35  38
ENDBRANCH  29  32
ENDBRANCH  25  26
ENDBRANCH  24  25
ENDBRANCH   1  24
TORSDOF 15
ENDMDL
MODEL 2
REMARK VINA RESULT: -7.238612499      2.680      5.143
REMARK  15 active torsions:
REMARK  status: ('A' for Active; 'I' for Inactive)
REMARK    1  A    between atoms: N1_2  and  C3_4 
REMARK    2  A    between atoms: C3_4  and  C4_5 
REMARK    3  A    between atoms: C4_5  and  C5_6 
REMARK    4  A    between atoms: C5_6  and  C6_7 
REMARK    5  A    between atoms: C6_7  and  C7_8 
REMARK    6  A    between atoms: C7_8  and  C8_9 
REMARK    7  A    between atoms: C8_9  and  N2_10 
REMARK    8  A    between atoms: C12_18  and  N4_19 
REMARK    9  A    between atoms: N4_19  and  C13_21 
REMARK   10  A    between atoms: C13_21  and  C14_22 
REMARK   11  A    between atoms: C14_22  and  C15_23 
REMARK   12  A    between atoms: C15_23  and  N5_24 
REMARK       I    between atoms: N5_24  and  C16_26 
REMARK       I    between atoms: C16_26  and  N6_28 
REMARK   13  A    between atoms: N6_28  and  C17_30 
REMARK   14  A    between atoms: N8_34  and  C19_35 
REMARK   15  A    between atoms: C22_38  and  O2_39 
ROOT
HETATM    1  C13 UNL     1      79.078   4.772  -2.541  1.00  0.00     0.123 C 
ENDROOT
BRANCH   1   2
HETATM    2  N4  UNL     1      78.614   5.030  -1.223  1.00  0.00    -0.374 N 
ATOM      3  H4  UNL     1      79.190   4.648  -0.473  1.00  0.00     0.161 HD
BRANCH   2   4
HETATM    4  C12 UNL     1      77.579   5.673  -0.845  1.00  0.00     0.140 A 
HETATM    5  C11 UNL     1      77.390   5.892   0.524  1.00  0.00     0.094 A 
HETATM    6  C10 UNL     1      76.275   6.578   0.910  1.00  0.00     0.133 A 
HETATM    7 CL1  UNL     1      78.580   5.279   1.651  1.00  0.00    -0.079 Cl
HETATM    8  N3  UNL     1      75.407   7.019  -0.002  1.00  0.00    -0.200 N 
HETATM    9  C9  UNL     1      75.558   6.823  -1.352  1.00  0.00     0.679 A 
ATOM     10  H3  UNL     1      74.586   7.529   0.321  1.00  0.00     0.183 HD
HETATM   11  N2  UNL     1      74.668   7.282  -2.157  1.00  0.00    -0.226 N 
HETATM   12  N9  UNL     1      76.661   6.146  -1.708  1.00  0.00    -0.175 N 
ATOM     13  H2  UNL     1      73.867   7.782  -1.770  1.00  0.00     0.177 HD
ATOM     14  H9  UNL     1      76.815   5.979  -2.701  1.00  0.00     0.186 HD
BRANCH  11  15
HETATM   15  C8  UNL     1      74.757   7.119  -3.575  1.00  0.00     0.138 C 
BRANCH  15  16
HETATM   16  C7  UNL     1      75.304   8.338  -4.291  1.00  0.00     0.020 C 
BRANCH  16  17
HETATM   17  C6  UNL     1      76.726   8.157  -4.710  1.00  0.00     0.002 C 
BRANCH  17  18
HETATM   18  C5  UNL     1      77.170   9.046  -5.828  1.00  0.00     0.002 C 
BRANCH  18  19
HETATM   19  C4  UNL     1      78.657   9.131  -5.958  1.00  0.00     0.030 C 
BRANCH  19  20
HETATM   20  C3  UNL     1      79.102  10.516  -5.584  1.00  0.00     0.271 C 
BRANCH  20  21
HETATM   21  N1  UNL     1      80.466  10.571  -5.133  1.00  0.00     0.080 N 
HETATM   22  C1  UNL     1      81.258   9.631  -5.875  1.00  0.00     0.309 C 
HETATM   23  C2  UNL     1      80.596  10.376  -3.712  1.00  0.00     0.309 C 
ENDBRANCH  20  21
ENDBRANCH  19  20
ENDBRANCH  18  19
ENDBRANCH  17  18
ENDBRANCH  16  17
ENDBRANCH  15  16
ENDBRANCH  11  15
ENDBRANCH   2   4
ENDBRANCH   1   2
BRANCH   1  24
HETATM   24  C14 UNL     1      78.620   3.367  -2.953  1.00  0.00     0.039 C 
BRANCH  24  25
HETATM   25  C15 UNL     1      78.835   3.243  -4.432  1.00  0.00     0.126 C 
BRANCH  25  26
HETATM   26  N5  UNL     1      77.617   3.088  -5.171  1.00  0.00    -0.343 N 
HETATM   27  C16 UNL     1      77.052   4.184  -5.858  1.00  0.00     0.320 C 
HETATM   28  O1  UNL     1      77.657   5.289  -5.792  1.00  0.00    -0.247 OA
HETATM   29  N6  UNL     1      75.852   4.018  -6.586  1.00  0.00    -0.306 N 
ATOM     30  H6  UNL     1      75.427   3.092  -6.582  1.00  0.00     0.171 HD
ATOM     31  H5  UNL     1      77.155   2.179  -5.202  1.00  0.00     0.164 HD
BRANCH  29  32
HETATM   32  C17 UNL     1      75.194   5.027  -7.315  1.00  0.00     0.070 A 
HETATM   33  C18 UNL     1      75.113   5.111  -8.709  1.00  0.00     0.138 A 
HETATM   34  N7  UNL     1      74.406   6.221  -9.026  1.00  0.00    -0.307 N 
HETATM   35  N8  UNL     1      74.038   6.840  -7.924  1.00  0.00    -0.297 N 
ATOM     36  H7  UNL     1      74.191   6.530  -9.974  1.00  0.00     0.186 HD
HETATM   37  C25 UNL     1      74.508   6.128  -6.859  1.00  0.00     0.141 A 
BRANCH  35  38
HETATM   38  C19 UNL     1      73.271   8.062  -7.860  1.00  0.00     0.107 C 
HETATM   39  C20 UNL     1      72.409   8.107  -6.621  1.00  0.00     0.030 C 
HETATM   40  C21 UNL     1      71.487   9.309  -6.780  1.00  0.00     0.034 C 
HETATM   41  C22 UNL     1      72.307  10.565  -6.818  1.00  0.00     0.118 C 
HETATM   42  C23 UNL     1      73.790  10.288  -6.859  1.00  0.00     0.034 C 
HETATM   43  C24 UNL     1      74.144   9.309  -7.963  1.00  0.00     0.030 C 
BRANCH  41  44
HETATM   44  O2  UNL     1      71.954  11.332  -7.947  1.00  0.00    -0.396 OA
ATOM     45  H2  UNL     1      71.063  11.130  -8.207  1.00  0.00     0.210 HD
ENDBRANCH  41  44
ENDBRANCH  35  38
ENDBRANCH  29  32
ENDBRANCH  25  26
ENDBRANCH  24  25
ENDBRANCH   1  24
TORSDOF 15
ENDMDL
MODEL 3
REMARK VINA RESULT: -7.083219952      2.009      2.654
REMARK  15 active torsions:
REMARK  status: ('A' for Active; 'I' for Inactive)
REMARK    1  A    between atoms: N1_2  and  C3_4 
REMARK    2  A    between atoms: C3_4  and  C4_5 
REMARK    3  A    between atoms: C4_5  and  C5_6 
REMARK    4  A    between atoms: C5_6  and  C6_7 
REMARK    5  A    between atoms: C6_7  and  C7_8 
REMARK    6  A    between atoms: C7_8  and  C8_9 
REMARK    7  A    between atoms: C8_9  and  N2_10 
REMARK    8  A    between atoms: C12_18  and  N4_19 
REMARK    9  A    between atoms: N4_19  and  C13_21 
REMARK   10  A    between atoms: C13_21  and  C14_22 
REMARK   11  A    between atoms: C14_22  and  C15_23 
REMARK   12  A    between atoms: C15_23  and  N5_24 
REMARK       I    between atoms: N5_24  and  C16_26 
REMARK       I    between atoms: C16_26  and  N6_28 
REMARK   13  A    between atoms: N6_28  and  C17_30 
REMARK   14  A    between atoms: N8_34  and  C19_35 
REMARK   15  A    between atoms: C22_38  and  O2_39 
ROOT
HETATM    1  C13 UNL     1      79.439   5.421  -2.116  1.00  0.00     0.123 C 
ENDROOT
BRANCH   1   2
HETATM    2  N4  UNL     1      78.370   5.029  -1.266  1.00  0.00    -0.374 N 
ATOM      3  H4  UNL     1      78.417   4.071  -0.917  1.00  0.00     0.161 HD
BRANCH   2   4
HETATM    4  C12 UNL     1      77.361   5.704  -0.876  1.00  0.00     0.140 A 
HETATM    5  C11 UNL     1      77.239   6.000   0.485  1.00  0.00     0.094 A 
HETATM    6  C10 UNL     1      76.151   6.721   0.884  1.00  0.00     0.133 A 
HETATM    7 CL1  UNL     1      78.475   5.436   1.588  1.00  0.00    -0.079 Cl
HETATM    8  N3  UNL     1      75.245   7.122  -0.010  1.00  0.00    -0.200 N 
HETATM    9  C9  UNL     1      75.331   6.850  -1.352  1.00  0.00     0.679 A 
ATOM     10  H3  UNL     1      74.445   7.659   0.322  1.00  0.00     0.183 HD
HETATM   11  N2  UNL     1      74.407   7.275  -2.139  1.00  0.00    -0.226 N 
HETATM   12  N9  UNL     1      76.409   6.141  -1.720  1.00  0.00    -0.175 N 
ATOM     13  H2  UNL     1      73.631   7.805  -1.744  1.00  0.00     0.177 HD
ATOM     14  H9  UNL     1      76.514   5.917  -2.709  1.00  0.00     0.186 HD
BRANCH  11  15
HETATM   15  C8  UNL     1      74.429   7.032  -3.549  1.00  0.00     0.138 C 
BRANCH  15  16
HETATM   16  C7  UNL     1      73.099   6.560  -4.102  1.00  0.00     0.020 C 
BRANCH  16  17
HETATM   17  C6  UNL     1      73.148   6.333  -5.576  1.00  0.00     0.002 C 
BRANCH  17  18
HETATM   18  C5  UNL     1      72.350   7.303  -6.389  1.00  0.00     0.002 C 
BRANCH  18  19
HETATM   19  C4  UNL     1      73.176   8.407  -6.967  1.00  0.00     0.030 C 
BRANCH  19  20
HETATM   20  C3  UNL     1      72.823   9.694  -6.278  1.00  0.00     0.271 C 
BRANCH  20  21
HETATM   21  N1  UNL     1      73.919  10.624  -6.219  1.00  0.00     0.080 N 
HETATM   22  C1  UNL     1      74.280  11.029  -7.549  1.00  0.00     0.309 C 
HETATM   23  C2  UNL     1      75.050  10.114  -5.488  1.00  0.00     0.309 C 
ENDBRANCH  20  21
ENDBRANCH  19  20
ENDBRANCH  18  19
ENDBRANCH  17  18
ENDBRANCH  16  17
ENDBRANCH  15  16
ENDBRANCH  11  15
ENDBRANCH   2   4
ENDBRANCH   1   2
BRANCH   1  24
HETATM   24  C14 UNL     1      79.684   6.924  -1.930  1.00  0.00     0.039 C 
BRANCH  24  25
HETATM   25  C15 UNL     1      80.435   7.407  -3.135  1.00  0.00     0.126 C 
BRANCH  25  26
HETATM   26  N5  UNL     1      79.603   8.076  -4.091  1.00  0.00    -0.343 N 
HETATM   27  C16 UNL     1      79.935   9.369  -4.547  1.00  0.00     0.320 C 
HETATM   28  O1  UNL     1      80.980   9.903  -4.082  1.00  0.00    -0.247 OA
HETATM   29  N6  UNL     1      79.108  10.019  -5.492  1.00  0.00    -0.306 N 
ATOM     30  H6  UNL     1      78.281   9.517  -5.812  1.00  0.00     0.171 HD
ATOM     31  H5  UNL     1      78.766   7.614  -4.445  1.00  0.00     0.164 HD
BRANCH  29  32
HETATM   32  C17 UNL     1      79.333  11.301  -6.028  1.00  0.00     0.070 A 
HETATM   33  C18 UNL     1      78.983  12.514  -5.425  1.00  0.00     0.138 A 
HETATM   34  N7  UNL     1      79.357  13.521  -6.250  1.00  0.00    -0.307 N 
HETATM   35  N8  UNL     1      79.919  13.020  -7.331  1.00  0.00    -0.297 N 
ATOM     36  H7  UNL     1      79.224  14.515  -6.063  1.00  0.00     0.186 HD
HETATM   37  C25 UNL     1      79.917  11.660  -7.220  1.00  0.00     0.141 A 
BRANCH  35  38
HETATM   38  C19 UNL     1      80.442  13.783  -8.439  1.00  0.00     0.107 C 
HETATM   39  C20 UNL     1      80.886  15.158  -8.000  1.00  0.00     0.030 C 
HETATM   40  C21 UNL     1      81.192  15.939  -9.272  1.00  0.00     0.034 C 
HETATM   41  C22 UNL     1      82.339  15.292  -9.991  1.00  0.00     0.118 C 
HETATM   42  C23 UNL     1      82.752  13.983  -9.364  1.00  0.00     0.034 C 
HETATM   43  C24 UNL     1      81.565  13.056  -9.174  1.00  0.00     0.030 C 
BRANCH  41  44
HETATM   44  O2  UNL     1      81.990  15.063 -11.338  1.00  0.00    -0.396 OA
ATOM     45  H2  UNL     1      82.632  14.493 -11.744  1.00  0.00     0.210 HD
ENDBRANCH  41  44
ENDBRANCH  35  38
ENDBRANCH  29  32
ENDBRANCH  25  26
ENDBRANCH  24  25
ENDBRANCH   1  24
TORSDOF 15
ENDMDL
MODEL 4
REMARK VINA RESULT: -7.075065902      3.569      7.780
REMARK  15 active torsions:
REMARK  status: ('A' for Active; 'I' for Inactive)
REMARK    1  A    between atoms: N1_2  and  C3_4 
REMARK    2  A    between atoms: C3_4  and  C4_5 
REMARK    3  A    between atoms: C4_5  and  C5_6 
REMARK    4  A    between atoms: C5_6  and  C6_7 
REMARK    5  A    between atoms: C6_7  and  C7_8 
REMARK    6  A    between atoms: C7_8  and  C8_9 
REMARK    7  A    between atoms: C8_9  and  N2_10 
REMARK    8  A    between atoms: C12_18  and  N4_19 
REMARK    9  A    between atoms: N4_19  and  C13_21 
REMARK   10  A    between atoms: C13_21  and  C14_22 
REMARK   11  A    between atoms: C14_22  and  C15_23 
REMARK   12  A    between atoms: C15_23  and  N5_24 
REMARK       I    between atoms: N5_24  and  C16_26 
REMARK       I    between atoms: C16_26  and  N6_28 
REMARK   13  A    between atoms: N6_28  and  C17_30 
REMARK   14  A    between atoms: N8_34  and  C19_35 
REMARK   15  A    between atoms: C22_38  and  O2_39 
ROOT
HETATM    1  C13 UNL     1      75.710   6.672  -2.669  1.00  0.00     0.123 C 
ENDROOT
BRANCH   1   2
HETATM    2  N4  UNL     1      76.331   7.417  -3.706  1.00  0.00    -0.374 N 
ATOM      3  H4  UNL     1      75.943   8.346  -3.871  1.00  0.00     0.161 HD
BRANCH   2   4
HETATM    4  C12 UNL     1      77.306   7.091  -4.461  1.00  0.00     0.140 A 
HETATM    5  C11 UNL     1      77.039   6.338  -5.610  1.00  0.00     0.094 A 
HETATM    6  C10 UNL     1      78.096   5.995  -6.404  1.00  0.00     0.133 A 
HETATM    7 CL1  UNL     1      75.386   5.884  -5.960  1.00  0.00    -0.079 Cl
HETATM    8  N3  UNL     1      79.332   6.375  -6.079  1.00  0.00    -0.200 N 
HETATM    9  C9  UNL     1      79.632   7.112  -4.962  1.00  0.00     0.679 A 
ATOM     10  H3  UNL     1      80.097   6.102  -6.696  1.00  0.00     0.183 HD
HETATM   11  N2  UNL     1      80.856   7.430  -4.729  1.00  0.00    -0.226 N 
HETATM   12  N9  UNL     1      78.579   7.438  -4.197  1.00  0.00    -0.175 N 
ATOM     13  H2  UNL     1      81.576   7.123  -5.383  1.00  0.00     0.177 HD
ATOM     14  H9  UNL     1      78.755   7.987  -3.357  1.00  0.00     0.186 HD
BRANCH  11  15
HETATM   15  C8  UNL     1      81.245   8.197  -3.586  1.00  0.00     0.138 C 
BRANCH  15  16
HETATM   16  C7  UNL     1      81.802   9.563  -3.935  1.00  0.00     0.020 C 
BRANCH  16  17
HETATM   17  C6  UNL     1      80.815  10.656  -3.691  1.00  0.00     0.002 C 
BRANCH  17  18
HETATM   18  C5  UNL     1      79.832  10.874  -4.797  1.00  0.00     0.002 C 
BRANCH  18  19
HETATM   19  C4  UNL     1      80.426  10.692  -6.157  1.00  0.00     0.030 C 
BRANCH  19  20
HETATM   20  C3  UNL     1      79.334  10.786  -7.185  1.00  0.00     0.271 C 
BRANCH  20  21
HETATM   21  N1  UNL     1      78.586   9.567  -7.329  1.00  0.00     0.080 N 
HETATM   22  C1  UNL     1      78.873   8.971  -8.604  1.00  0.00     0.309 C 
HETATM   23  C2  UNL     1      77.171   9.748  -7.128  1.00  0.00     0.309 C 
ENDBRANCH  20  21
ENDBRANCH  19  20
ENDBRANCH  18  19
ENDBRANCH  17  18
ENDBRANCH  16  17
ENDBRANCH  15  16
ENDBRANCH  11  15
ENDBRANCH   2   4
ENDBRANCH   1   2
BRANCH   1  24
HETATM   24  C14 UNL     1      76.259   7.161  -1.322  1.00  0.00     0.039 C 
BRANCH  24  25
HETATM   25  C15 UNL     1      77.255   6.144  -0.849  1.00  0.00     0.126 C 
BRANCH  25  26
HETATM   26  N5  UNL     1      77.217   4.922  -1.596  1.00  0.00    -0.343 N 
HETATM   27  C16 UNL     1      78.361   4.468  -2.286  1.00  0.00     0.320 C 
HETATM   28  O1  UNL     1      79.403   5.176  -2.218  1.00  0.00    -0.247 OA
HETATM   29  N6  UNL     1      78.312   3.260  -3.018  1.00  0.00    -0.306 N 
ATOM     30  H6  UNL     1      77.428   2.753  -3.024  1.00  0.00     0.171 HD
ATOM     31  H5  UNL     1      76.356   4.376  -1.630  1.00  0.00     0.164 HD
BRANCH  29  32
HETATM   32  C17 UNL     1      79.382   2.699  -3.741  1.00  0.00     0.070 A 
HETATM   33  C18 UNL     1      80.440   1.961  -3.197  1.00  0.00     0.138 A 
HETATM   34  N7  UNL     1      81.267   1.601  -4.207  1.00  0.00    -0.307 N 
HETATM   35  N8  UNL     1      80.799   2.065  -5.347  1.00  0.00    -0.297 N 
ATOM     36  H7  UNL     1      82.122   1.055  -4.101  1.00  0.00     0.186 HD
HETATM   37  C25 UNL     1      79.644   2.742  -5.089  1.00  0.00     0.141 A 
BRANCH  35  38
HETATM   38  C19 UNL     1      81.410   1.886  -6.644  1.00  0.00     0.107 C 
HETATM   39  C20 UNL     1      81.892   3.199  -7.212  1.00  0.00     0.030 C 
HETATM   40  C21 UNL     1      82.294   2.923  -8.655  1.00  0.00     0.034 C 
HETATM   41  C22 UNL     1      83.446   1.961  -8.676  1.00  0.00     0.118 C 
HETATM   42  C23 UNL     1      83.769   1.414  -7.308  1.00  0.00     0.034 C 
HETATM   43  C24 UNL     1      82.535   0.855  -6.625  1.00  0.00     0.030 C 
BRANCH  41  44
HETATM   44  O2  UNL     1      83.155   0.886  -9.541  1.00  0.00    -0.396 OA
ATOM     45  H2  UNL     1      83.913   0.319  -9.614  1.00  0.00     0.210 HD
ENDBRANCH  41  44
ENDBRANCH  35  38
ENDBRANCH  29  32
ENDBRANCH  25  26
ENDBRANCH  24  25
ENDBRANCH   1  24
TORSDOF 15
ENDMDL
MODEL 5
REMARK VINA RESULT: -7.072589760      4.671      7.340
REMARK  15 active torsions:
REMARK  status: ('A' for Active; 'I' for Inactive)
REMARK    1  A    between atoms: N1_2  and  C3_4 
REMARK    2  A    between atoms: C3_4  and  C4_5 
REMARK    3  A    between atoms: C4_5  and  C5_6 
REMARK    4  A    between atoms: C5_6  and  C6_7 
REMARK    5  A    between atoms: C6_7  and  C7_8 
REMARK    6  A    between atoms: C7_8  and  C8_9 
REMARK    7  A    between atoms: C8_9  and  N2_10 
REMARK    8  A    between atoms: C12_18  and  N4_19 
REMARK    9  A    between atoms: N4_19  and  C13_21 
REMARK   10  A    between atoms: C13_21  and  C14_22 
REMARK   11  A    between atoms: C14_22  and  C15_23 
REMARK   12  A    between atoms: C15_23  and  N5_24 
REMARK       I    between atoms: N5_24  and  C16_26 
REMARK       I    between atoms: C16_26  and  N6_28 
REMARK   13  A    between atoms: N6_28  and  C17_30 
REMARK   14  A    between atoms: N8_34  and  C19_35 
REMARK   15  A    between atoms: C22_38  and  O2_39 
ROOT
HETATM    1  C13 UNL     1      79.392   5.203  -2.177  1.00  0.00     0.123 C 
ENDROOT
BRANCH   1   2
HETATM    2  N4  UNL     1      78.483   5.006  -1.103  1.00  0.00    -0.374 N 
ATOM      3  H4  UNL     1      78.679   4.202  -0.506  1.00  0.00     0.161 HD
BRANCH   2   4
HETATM    4  C12 UNL     1      77.457   5.691  -0.779  1.00  0.00     0.140 A 
HETATM    5  C11 UNL     1      77.251   5.991   0.571  1.00  0.00     0.094 A 
HETATM    6  C10 UNL     1      76.146   6.722   0.898  1.00  0.00     0.133 A 
HETATM    7 CL1  UNL     1      78.408   5.417   1.751  1.00  0.00    -0.079 Cl
HETATM    8  N3  UNL     1      75.303   7.129  -0.052  1.00  0.00    -0.200 N 
HETATM    9  C9  UNL     1      75.472   6.854  -1.385  1.00  0.00     0.679 A 
ATOM     10  H3  UNL     1      74.488   7.674   0.228  1.00  0.00     0.183 HD
HETATM   11  N2  UNL     1      74.604   7.287  -2.230  1.00  0.00    -0.226 N 
HETATM   12  N9  UNL     1      76.564   6.135  -1.683  1.00  0.00    -0.175 N 
ATOM     13  H2  UNL     1      73.809   7.824  -1.886  1.00  0.00     0.177 HD
ATOM     14  H9  UNL     1      76.730   5.908  -2.663  1.00  0.00     0.186 HD
BRANCH  11  15
HETATM   15  C8  UNL     1      74.714   7.041  -3.635  1.00  0.00     0.138 C 
BRANCH  15  16
HETATM   16  C7  UNL     1      75.561   8.065  -4.364  1.00  0.00     0.020 C 
BRANCH  16  17
HETATM   17  C6  UNL     1      76.706   7.439  -5.089  1.00  0.00     0.002 C 
BRANCH  17  18
HETATM   18  C5  UNL     1      77.851   8.359  -5.370  1.00  0.00     0.002 C 
BRANCH  18  19
HETATM   19  C4  UNL     1      79.006   8.163  -4.441  1.00  0.00     0.030 C 
BRANCH  19  20
HETATM   20  C3  UNL     1      80.172   7.621  -5.218  1.00  0.00     0.271 C 
BRANCH  20  21
HETATM   21  N1  UNL     1      81.417   8.262  -4.892  1.00  0.00     0.080 N 
HETATM   22  C1  UNL     1      81.589   8.287  -3.467  1.00  0.00     0.309 C 
HETATM   23  C2  UNL     1      81.541   9.575  -5.471  1.00  0.00     0.309 C 
ENDBRANCH  20  21
ENDBRANCH  19  20
ENDBRANCH  18  19
ENDBRANCH  17  18
ENDBRANCH  16  17
ENDBRANCH  15  16
ENDBRANCH  11  15
ENDBRANCH   2   4
ENDBRANCH   1   2
BRANCH   1  24
HETATM   24  C14 UNL     1      78.800   4.565  -3.440  1.00  0.00     0.039 C 
BRANCH  24  25
HETATM   25  C15 UNL     1      78.878   3.077  -3.268  1.00  0.00     0.126 C 
BRANCH  25  26
HETATM   26  N5  UNL     1      80.161   2.533  -3.600  1.00  0.00    -0.343 N 
HETATM   27  C16 UNL     1      80.401   1.994  -4.882  1.00  0.00     0.320 C 
HETATM   28  O1  UNL     1      79.449   2.011  -5.710  1.00  0.00    -0.247 OA
HETATM   29  N6  UNL     1      81.671   1.462  -5.198  1.00  0.00    -0.306 N 
ATOM     30  H6  UNL     1      82.382   1.484  -4.468  1.00  0.00     0.171 HD
ATOM     31  H5  UNL     1      80.908   2.535  -2.905  1.00  0.00     0.164 HD
BRANCH  29  32
HETATM   32  C17 UNL     1      82.037   0.904  -6.438  1.00  0.00     0.070 A 
HETATM   33  C18 UNL     1      82.104  -0.462  -6.734  1.00  0.00     0.138 A 
HETATM   34  N7  UNL     1      82.496  -0.597  -8.023  1.00  0.00    -0.307 N 
HETATM   35  N8  UNL     1      82.681   0.593  -8.555  1.00  0.00    -0.297 N 
ATOM     36  H7  UNL     1      82.629  -1.485  -8.507  1.00  0.00     0.186 HD
HETATM   37  C25 UNL     1      82.405   1.531  -7.605  1.00  0.00     0.141 A 
BRANCH  35  38
HETATM   38  C19 UNL     1      83.104   0.853  -9.911  1.00  0.00     0.107 C 
HETATM   39  C20 UNL     1      82.278   0.073 -10.905  1.00  0.00     0.030 C 
HETATM   40  C21 UNL     1      82.959   0.241 -12.258  1.00  0.00     0.034 C 
HETATM   41  C22 UNL     1      82.919   1.686 -12.659  1.00  0.00     0.118 C 
HETATM   42  C23 UNL     1      82.384   2.577 -11.566  1.00  0.00     0.034 C 
HETATM   43  C24 UNL     1      83.104   2.340 -10.251  1.00  0.00     0.030 C 
BRANCH  41  44
HETATM   44  O2  UNL     1      84.214   2.120 -13.009  1.00  0.00    -0.396 OA
ATOM     45  H2  UNL     1      84.713   2.307 -12.223  1.00  0.00     0.210 HD
ENDBRANCH  41  44
ENDBRANCH  35  38
ENDBRANCH  29  32
ENDBRANCH  25  26
ENDBRANCH  24  25
ENDBRANCH   1  24
TORSDOF 15
ENDMDL
