MODEL 1
REMARK VINA RESULT: -7.728192979      0.000      0.000
REMARK  14 active torsions:
REMARK  status: ('A' for Active; 'I' for Inactive)
REMARK    1  A    between atoms: C1_2  and  C2_3 
REMARK    2  A    between atoms: C2_3  and  C3_4 
REMARK    3  A    between atoms: C3_4  and  C4_5 
REMARK    4  A    between atoms: C4_5  and  C5_6 
REMARK    5  A    between atoms: C5_6  and  C6_7 
REMARK    6  A    between atoms: C6_7  and  C7_8 
REMARK    7  A    between atoms: C7_8  and  C8_9 
REMARK    8  A    between atoms: C8_9  and  C9_10 
REMARK    9  A    between atoms: C9_10  and  O1_11 
REMARK   10  A    between atoms: O1_11  and  C10_12 
REMARK   11  A    between atoms: C13_15  and  N2_16 
REMARK   12  A    between atoms: N2_16  and  S1_18 
REMARK   13  A    between atoms: S1_18  and  C14_21 
REMARK   14  A    between atoms: N6_37  and  O4_39 
ROOT
HETATM    1  C10 UNL     1     -14.862   6.176  43.537  1.00  0.00     0.144 A 
HETATM    2  C11 UNL     1     -14.734   7.164  44.489  1.00  0.00     0.075 A 
HETATM    3  C12 UNL     1     -15.396   6.795  45.655  1.00  0.00     0.057 A 
HETATM    4  C13 UNL     1     -15.569   7.420  46.887  1.00  0.00     0.130 A 
HETATM    5  N3  UNL     1     -16.282   6.754  47.800  1.00  0.00    -0.337 N 
ATOM      6  H3  UNL     1     -16.438   7.172  48.717  1.00  0.00     0.168 HD
HETATM    7  C20 UNL     1     -16.801   5.540  47.530  1.00  0.00     0.183 A 
HETATM    8  N4  UNL     1     -16.637   4.926  46.334  1.00  0.00    -0.338 N 
ATOM      9  H4  UNL     1     -17.044   4.007  46.161  1.00  0.00     0.168 HD
HETATM   10  C21 UNL     1     -15.927   5.554  45.378  1.00  0.00     0.122 A 
HETATM   11  N5  UNL     1     -15.593   5.215  44.117  1.00  0.00    -0.322 N 
ATOM     12  H5  UNL     1     -15.862   4.342  43.664  1.00  0.00     0.169 HD
ENDROOT
BRANCH   1  13
HETATM   13  O1  UNL     1     -14.324   6.221  42.260  1.00  0.00    -0.336 OA
BRANCH  13  14
HETATM   14  C9  UNL     1     -13.795   7.431  41.756  1.00  0.00     0.177 C 
BRANCH  14  15
HETATM   15  C8  UNL     1     -12.282   7.283  41.755  1.00  0.00     0.027 C 
BRANCH  15  16
HETATM   16  C7  UNL     1     -11.651   8.135  42.837  1.00  0.00     0.002 C 
BRANCH  16  17
HETATM   17  C6  UNL     1     -11.966   9.579  42.507  1.00  0.00     0.000 C 
BRANCH  17  18
HETATM   18  C5  UNL     1     -12.831  10.222  43.566  1.00  0.00     0.000 C 
BRANCH  18  19
HETATM   19  C4  UNL     1     -14.165  10.626  43.094  1.00  0.00     0.000 C 
BRANCH  19  20
HETATM   20  C3  UNL     1     -14.316  11.693  42.095  1.00  0.00     0.007 C 
BRANCH  20  21
HETATM   21  C2  UNL     1     -14.701  11.383  40.716  1.00  0.00     0.075 C 
BRANCH  21  22
HETATM   22  C1  UNL     1     -13.722  11.016  39.714  1.00  0.00     0.113 C 
HETATM   23  N1  UNL     1     -12.872  11.957  39.056  1.00  0.00    -0.086 NA
HETATM   24  N6  UNL     1     -13.595   9.772  39.343  1.00  0.00    -0.260 N 
ATOM     25  H6  UNL     1     -14.176   9.055  39.777  1.00  0.00     0.195 HD
BRANCH  24  26
HETATM   26  O4  UNL     1     -12.704   9.424  38.392  1.00  0.00    -0.289 OA
ATOM     27  H4  UNL     1     -11.945   8.898  38.610  1.00  0.00     0.244 HD
ENDBRANCH  24  26
ENDBRANCH  21  22
ENDBRANCH  20  21
ENDBRANCH  19  20
ENDBRANCH  18  19
ENDBRANCH  17  18
ENDBRANCH  16  17
ENDBRANCH  15  16
ENDBRANCH  14  15
ENDBRANCH  13  14
ENDBRANCH   1  13
BRANCH   4  28
HETATM   28  N2  UNL     1     -15.039   8.560  47.036  1.00  0.00    -0.265 N 
ATOM     29  H2  UNL     1     -15.485   9.331  46.539  1.00  0.00     0.180 HD
BRANCH  28  30
HETATM   30  S1  UNL     1     -13.681   8.956  47.962  1.00  0.00     0.266 S 
HETATM   31  O2  UNL     1     -13.889   8.504  49.384  1.00  0.00    -0.200 OA
HETATM   32  O3  UNL     1     -13.571  10.473  48.012  1.00  0.00    -0.200 OA
BRANCH  30  33
HETATM   33  C14 UNL     1     -12.187   8.361  47.313  1.00  0.00     0.101 A 
HETATM   34  C15 UNL     1     -11.320   9.133  46.587  1.00  0.00     0.029 A 
HETATM   35  C16 UNL     1     -10.126   8.630  46.077  1.00  0.00     0.025 A 
HETATM   36  C17 UNL     1      -9.787   7.307  46.302  1.00  0.00     0.035 A 
HETATM   37 CL1  UNL     1      -8.300   6.618  45.685  1.00  0.00    -0.084 Cl
HETATM   38  C18 UNL     1     -10.675   6.533  47.039  1.00  0.00     0.049 A 
HETATM   39  C19 UNL     1     -11.856   7.045  47.540  1.00  0.00     0.059 A 
HETATM   40 CL2  UNL     1     -12.930   5.996  48.470  1.00  0.00    -0.083 Cl
ENDBRANCH  30  33
ENDBRANCH  28  30
ENDBRANCH   4  28
TORSDOF 14
ENDMDL
MODEL 2
REMARK VINA RESULT: -7.608568259      2.842      4.630
REMARK  14 active torsions:
REMARK  status: ('A' for Active; 'I' for Inactive)
REMARK    1  A    between atoms: C1_2  and  C2_3 
REMARK    2  A    between atoms: C2_3  and  C3_4 
REMARK    3  A    between atoms: C3_4  and  C4_5 
REMARK    4  A    between atoms: C4_5  and  C5_6 
REMARK    5  A    between atoms: C5_6  and  C6_7 
REMARK    6  A    between atoms: C6_7  and  C7_8 
REMARK    7  A    between atoms: C7_8  and  C8_9 
REMARK    8  A    between atoms: C8_9  and  C9_10 
REMARK    9  A    between atoms: C9_10  and  O1_11 
REMARK   10  A    between atoms: O1_11  and  C10_12 
REMARK   11  A    between atoms: C13_15  and  N2_16 
REMARK   12  A    between atoms: N2_16  and  S1_18 
REMARK   13  A    between atoms: S1_18  and  C14_21 
REMARK   14  A    between atoms: N6_37  and  O4_39 
ROOT
HETATM    1  C10 UNL     1     -10.793  10.056  45.997  1.00  0.00     0.144 A 
HETATM    2  C11 UNL     1     -11.902   9.656  46.709  1.00  0.00     0.075 A 
HETATM    3  C12 UNL     1     -11.783  10.043  48.040  1.00  0.00     0.057 A 
HETATM    4  C13 UNL     1     -12.608   9.889  49.151  1.00  0.00     0.130 A 
HETATM    5  N3  UNL     1     -12.162  10.402  50.302  1.00  0.00    -0.337 N 
ATOM      6  H3  UNL     1     -12.730  10.312  51.144  1.00  0.00     0.168 HD
HETATM    7  C20 UNL     1     -10.975  11.035  50.369  1.00  0.00     0.183 A 
HETATM    8  N4  UNL     1     -10.167  11.189  49.293  1.00  0.00    -0.338 N 
ATOM      9  H4  UNL     1      -9.274  11.674  49.378  1.00  0.00     0.168 HD
HETATM   10  C21 UNL     1     -10.568  10.690  48.108  1.00  0.00     0.122 A 
HETATM   11  N5  UNL     1     -10.007  10.682  46.883  1.00  0.00    -0.322 N 
ATOM     12  H5  UNL     1      -9.103  11.097  46.661  1.00  0.00     0.169 HD
ENDROOT
BRANCH   1  13
HETATM   13  O1  UNL     1     -10.587   9.832  44.644  1.00  0.00    -0.336 OA
BRANCH  13  14
HETATM   14  C9  UNL     1     -10.232   8.543  44.186  1.00  0.00     0.177 C 
BRANCH  14  15
HETATM   15  C8  UNL     1     -11.160   8.218  43.025  1.00  0.00     0.027 C 
BRANCH  15  16
HETATM   16  C7  UNL     1     -12.479   7.664  43.522  1.00  0.00     0.002 C 
BRANCH  16  17
HETATM   17  C6  UNL     1     -13.579   8.436  42.823  1.00  0.00     0.000 C 
BRANCH  17  18
HETATM   18  C5  UNL     1     -13.930   9.707  43.559  1.00  0.00     0.000 C 
BRANCH  18  19
HETATM   19  C4  UNL     1     -13.614  10.941  42.821  1.00  0.00     0.000 C 
BRANCH  19  20
HETATM   20  C3  UNL     1     -14.652  11.643  42.054  1.00  0.00     0.007 C 
BRANCH  20  21
HETATM   21  C2  UNL     1     -14.909  11.303  40.652  1.00  0.00     0.075 C 
BRANCH  21  22
HETATM   22  C1  UNL     1     -13.838  10.958  39.741  1.00  0.00     0.113 C 
HETATM   23  N1  UNL     1     -12.940  11.915  39.178  1.00  0.00    -0.086 NA
HETATM   24  N6  UNL     1     -13.666   9.720  39.367  1.00  0.00    -0.260 N 
ATOM     25  H6  UNL     1     -14.278   8.992  39.736  1.00  0.00     0.195 HD
BRANCH  24  26
HETATM   26  O4  UNL     1     -12.687   9.394  38.499  1.00  0.00    -0.289 OA
ATOM     27  H4  UNL     1     -11.939   9.966  38.374  1.00  0.00     0.244 HD
ENDBRANCH  24  26
ENDBRANCH  21  22
ENDBRANCH  20  21
ENDBRANCH  19  20
ENDBRANCH  18  19
ENDBRANCH  17  18
ENDBRANCH  16  17
ENDBRANCH  15  16
ENDBRANCH  14  15
ENDBRANCH  13  14
ENDBRANCH   1  13
BRANCH   4  28
HETATM   28  N2  UNL     1     -13.703   9.278  48.978  1.00  0.00    -0.265 N 
ATOM     29  H2  UNL     1     -14.507   9.857  48.734  1.00  0.00     0.180 HD
BRANCH  28  30
HETATM   30  S1  UNL     1     -13.991   7.616  49.103  1.00  0.00     0.266 S 
HETATM   31  O2  UNL     1     -15.070   7.367  50.124  1.00  0.00    -0.200 OA
HETATM   32  O3  UNL     1     -12.731   6.959  49.648  1.00  0.00    -0.200 OA
BRANCH  30  33
HETATM   33  C14 UNL     1     -14.350   6.848  47.591  1.00  0.00     0.101 A 
HETATM   34  C15 UNL     1     -13.640   5.786  47.098  1.00  0.00     0.029 A 
HETATM   35  C16 UNL     1     -13.949   5.186  45.880  1.00  0.00     0.025 A 
HETATM   36  C17 UNL     1     -15.008   5.666  45.128  1.00  0.00     0.035 A 
HETATM   37 CL1  UNL     1     -15.444   4.953  43.589  1.00  0.00    -0.084 Cl
HETATM   38  C18 UNL     1     -15.721   6.744  45.639  1.00  0.00     0.049 A 
HETATM   39  C19 UNL     1     -15.403   7.329  46.848  1.00  0.00     0.059 A 
HETATM   40 CL2  UNL     1     -16.361   8.696  47.428  1.00  0.00    -0.083 Cl
ENDBRANCH  30  33
ENDBRANCH  28  30
ENDBRANCH   4  28
TORSDOF 14
ENDMDL
MODEL 3
REMARK VINA RESULT: -7.536792308      2.833      5.729
REMARK  14 active torsions:
REMARK  status: ('A' for Active; 'I' for Inactive)
REMARK    1  A    between atoms: C1_2  and  C2_3 
REMARK    2  A    between atoms: C2_3  and  C3_4 
REMARK    3  A    between atoms: C3_4  and  C4_5 
REMARK    4  A    between atoms: C4_5  and  C5_6 
REMARK    5  A    between atoms: C5_6  and  C6_7 
REMARK    6  A    between atoms: C6_7  and  C7_8 
REMARK    7  A    between atoms: C7_8  and  C8_9 
REMARK    8  A    between atoms: C8_9  and  C9_10 
REMARK    9  A    between atoms: C9_10  and  O1_11 
REMARK   10  A    between atoms: O1_11  and  C10_12 
REMARK   11  A    between atoms: C13_15  and  N2_16 
REMARK   12  A    between atoms: N2_16  and  S1_18 
REMARK   13  A    between atoms: S1_18  and  C14_21 
REMARK   14  A    between atoms: N6_37  and  O4_39 
ROOT
HETATM    1  C10 UNL     1     -12.693   8.093  41.586  1.00  0.00     0.144 A 
HETATM    2  C11 UNL     1     -13.254   8.049  42.844  1.00  0.00     0.075 A 
HETATM    3  C12 UNL     1     -12.258   7.951  43.809  1.00  0.00     0.057 A 
HETATM    4  C13 UNL     1     -12.288   7.876  45.201  1.00  0.00     0.130 A 
HETATM    5  N3  UNL     1     -11.106   7.790  45.819  1.00  0.00    -0.337 N 
ATOM      6  H3  UNL     1     -11.076   7.731  46.836  1.00  0.00     0.168 HD
HETATM    7  C20 UNL     1      -9.953   7.779  45.122  1.00  0.00     0.183 A 
HETATM    8  N4  UNL     1      -9.916   7.852  43.770  1.00  0.00    -0.338 N 
ATOM      9  H4  UNL     1      -9.026   7.840  43.272  1.00  0.00     0.168 HD
HETATM   10  C21 UNL     1     -11.079   7.939  43.096  1.00  0.00     0.122 A 
HETATM   11  N5  UNL     1     -11.370   8.025  41.784  1.00  0.00    -0.322 N 
ATOM     12  H5  UNL     1     -10.674   8.036  41.039  1.00  0.00     0.169 HD
ENDROOT
BRANCH   1  13
HETATM   13  O1  UNL     1     -13.401   8.190  40.398  1.00  0.00    -0.336 OA
BRANCH  13  14
HETATM   14  C9  UNL     1     -13.030   9.149  39.429  1.00  0.00     0.177 C 
BRANCH  14  15
HETATM   15  C8  UNL     1     -13.173  10.514  40.084  1.00  0.00     0.027 C 
BRANCH  15  16
HETATM   16  C7  UNL     1     -14.606  11.000  40.020  1.00  0.00     0.002 C 
BRANCH  16  17
HETATM   17  C6  UNL     1     -14.958  11.534  41.392  1.00  0.00     0.000 C 
BRANCH  17  18
HETATM   18  C5  UNL     1     -13.785  11.460  42.342  1.00  0.00     0.000 C 
BRANCH  18  19
HETATM   19  C4  UNL     1     -14.010  12.128  43.634  1.00  0.00     0.000 C 
BRANCH  19  20
HETATM   20  C3  UNL     1     -13.944  11.370  44.892  1.00  0.00     0.007 C 
BRANCH  20  21
HETATM   21  C2  UNL     1     -13.212  11.894  46.048  1.00  0.00     0.075 C 
BRANCH  21  22
HETATM   22  C1  UNL     1     -12.106  11.174  46.642  1.00  0.00     0.113 C 
HETATM   23  N1  UNL     1     -10.807  11.092  46.052  1.00  0.00    -0.086 NA
HETATM   24  N6  UNL     1     -12.268  10.529  47.764  1.00  0.00    -0.260 N 
ATOM     25  H6  UNL     1     -13.174  10.550  48.232  1.00  0.00     0.195 HD
BRANCH  24  26
HETATM   26  O4  UNL     1     -11.249   9.834  48.312  1.00  0.00    -0.289 OA
ATOM     27  H4  UNL     1     -11.415   9.040  48.804  1.00  0.00     0.244 HD
ENDBRANCH  24  26
ENDBRANCH  21  22
ENDBRANCH  20  21
ENDBRANCH  19  20
ENDBRANCH  18  19
ENDBRANCH  17  18
ENDBRANCH  16  17
ENDBRANCH  15  16
ENDBRANCH  14  15
ENDBRANCH  13  14
ENDBRANCH   1  13
BRANCH   4  28
HETATM   28  N2  UNL     1     -13.424   7.895  45.756  1.00  0.00    -0.265 N 
ATOM     29  H2  UNL     1     -14.138   8.463  45.300  1.00  0.00     0.180 HD
BRANCH  28  30
HETATM   30  S1  UNL     1     -13.900   7.089  47.164  1.00  0.00     0.266 S 
HETATM   31  O2  UNL     1     -13.172   7.670  48.349  1.00  0.00    -0.200 OA
HETATM   32  O3  UNL     1     -13.445   5.641  47.056  1.00  0.00    -0.200 OA
BRANCH  30  33
HETATM   33  C14 UNL     1     -15.615   7.064  47.417  1.00  0.00     0.101 A 
HETATM   34  C15 UNL     1     -16.209   7.425  48.597  1.00  0.00     0.029 A 
HETATM   35  C16 UNL     1     -17.589   7.395  48.774  1.00  0.00     0.025 A 
HETATM   36  C17 UNL     1     -18.406   6.990  47.732  1.00  0.00     0.035 A 
HETATM   37 CL1  UNL     1     -20.149   6.932  47.895  1.00  0.00    -0.084 Cl
HETATM   38  C18 UNL     1     -17.792   6.626  46.540  1.00  0.00     0.049 A 
HETATM   39  C19 UNL     1     -16.422   6.660  46.378  1.00  0.00     0.059 A 
HETATM   40 CL2  UNL     1     -15.719   6.182  44.829  1.00  0.00    -0.083 Cl
ENDBRANCH  30  33
ENDBRANCH  28  30
ENDBRANCH   4  28
TORSDOF 14
ENDMDL
MODEL 4
REMARK VINA RESULT: -7.529876425      3.007      5.648
REMARK  14 active torsions:
REMARK  status: ('A' for Active; 'I' for Inactive)
REMARK    1  A    between atoms: C1_2  and  C2_3 
REMARK    2  A    between atoms: C2_3  and  C3_4 
REMARK    3  A    between atoms: C3_4  and  C4_5 
REMARK    4  A    between atoms: C4_5  and  C5_6 
REMARK    5  A    between atoms: C5_6  and  C6_7 
REMARK    6  A    between atoms: C6_7  and  C7_8 
REMARK    7  A    between atoms: C7_8  and  C8_9 
REMARK    8  A    between atoms: C8_9  and  C9_10 
REMARK    9  A    between atoms: C9_10  and  O1_11 
REMARK   10  A    between atoms: O1_11  and  C10_12 
REMARK   11  A    between atoms: C13_15  and  N2_16 
REMARK   12  A    between atoms: N2_16  and  S1_18 
REMARK   13  A    between atoms: S1_18  and  C14_21 
REMARK   14  A    between atoms: N6_37  and  O4_39 
ROOT
HETATM    1  C10 UNL     1     -12.782   7.975  41.240  1.00  0.00     0.144 A 
HETATM    2  C11 UNL     1     -13.752   7.523  42.107  1.00  0.00     0.075 A 
HETATM    3  C12 UNL     1     -13.241   7.446  43.399  1.00  0.00     0.057 A 
HETATM    4  C13 UNL     1     -13.795   7.058  44.617  1.00  0.00     0.130 A 
HETATM    5  N3  UNL     1     -12.990   7.112  45.682  1.00  0.00    -0.337 N 
ATOM      6  H3  UNL     1     -13.350   6.836  46.596  1.00  0.00     0.168 HD
HETATM    7  C20 UNL     1     -11.713   7.524  45.571  1.00  0.00     0.183 A 
HETATM    8  N4  UNL     1     -11.168   7.903  44.390  1.00  0.00    -0.338 N 
ATOM      9  H4  UNL     1     -10.196   8.209  44.340  1.00  0.00     0.168 HD
HETATM   10  C21 UNL     1     -11.935   7.867  43.284  1.00  0.00     0.122 A 
HETATM   11  N5  UNL     1     -11.693   8.173  41.995  1.00  0.00    -0.322 N 
ATOM     12  H5  UNL     1     -10.799   8.511  41.640  1.00  0.00     0.169 HD
ENDROOT
BRANCH   1  13
HETATM   13  O1  UNL     1     -12.954   8.167  39.877  1.00  0.00    -0.336 OA
BRANCH  13  14
HETATM   14  C9  UNL     1     -12.984   9.476  39.345  1.00  0.00     0.177 C 
BRANCH  14  15
HETATM   15  C8  UNL     1     -13.167  10.424  40.520  1.00  0.00     0.027 C 
BRANCH  15  16
HETATM   16  C7  UNL     1     -14.472  11.185  40.407  1.00  0.00     0.002 C 
BRANCH  16  17
HETATM   17  C6  UNL     1     -14.874  11.591  41.810  1.00  0.00     0.000 C 
BRANCH  17  18
HETATM   18  C5  UNL     1     -13.849  11.165  42.835  1.00  0.00     0.000 C 
BRANCH  18  19
HETATM   19  C4  UNL     1     -14.324  11.226  44.227  1.00  0.00     0.000 C 
BRANCH  19  20
HETATM   20  C3  UNL     1     -13.493  10.715  45.326  1.00  0.00     0.007 C 
BRANCH  20  21
HETATM   21  C2  UNL     1     -12.792  11.633  46.227  1.00  0.00     0.075 C 
BRANCH  21  22
HETATM   22  C1  UNL     1     -11.503  11.307  46.799  1.00  0.00     0.113 C 
HETATM   23  N1  UNL     1     -10.406  10.799  46.039  1.00  0.00    -0.086 NA
HETATM   24  N6  UNL     1     -11.298  11.444  48.081  1.00  0.00    -0.260 N 
ATOM     25  H6  UNL     1     -12.046  11.802  48.675  1.00  0.00     0.195 HD
BRANCH  24  26
HETATM   26  O4  UNL     1     -10.109  11.118  48.626  1.00  0.00    -0.289 OA
ATOM     27  H4  UNL     1     -10.049  10.438  49.286  1.00  0.00     0.244 HD
ENDBRANCH  24  26
ENDBRANCH  21  22
ENDBRANCH  20  21
ENDBRANCH  19  20
ENDBRANCH  18  19
ENDBRANCH  17  18
ENDBRANCH  16  17
ENDBRANCH  15  16
ENDBRANCH  14  15
ENDBRANCH  13  14
ENDBRANCH   1  13
BRANCH   4  28
HETATM   28  N2  UNL     1     -15.005   6.688  44.610  1.00  0.00    -0.265 N 
ATOM     29  H2  UNL     1     -15.487   6.742  43.712  1.00  0.00     0.180 HD
BRANCH  28  30
HETATM   30  S1  UNL     1     -15.919   6.115  45.913  1.00  0.00     0.266 S 
HETATM   31  O2  UNL     1     -15.189   4.979  46.581  1.00  0.00    -0.200 OA
HETATM   32  O3  UNL     1     -17.208   5.523  45.360  1.00  0.00    -0.200 OA
BRANCH  30  33
HETATM   33  C14 UNL     1     -16.372   7.342  47.050  1.00  0.00     0.101 A 
HETATM   34  C15 UNL     1     -15.973   8.648  46.950  1.00  0.00     0.029 A 
HETATM   35  C16 UNL     1     -16.351   9.615  47.878  1.00  0.00     0.025 A 
HETATM   36  C17 UNL     1     -17.159   9.262  48.945  1.00  0.00     0.035 A 
HETATM   37 CL1  UNL     1     -17.667  10.433  50.144  1.00  0.00    -0.084 Cl
HETATM   38  C18 UNL     1     -17.558   7.934  49.037  1.00  0.00     0.049 A 
HETATM   39  C19 UNL     1     -17.176   6.986  48.109  1.00  0.00     0.059 A 
HETATM   40 CL2  UNL     1     -17.727   5.318  48.296  1.00  0.00    -0.083 Cl
ENDBRANCH  30  33
ENDBRANCH  28  30
ENDBRANCH   4  28
TORSDOF 14
ENDMDL
MODEL 5
REMARK VINA RESULT: -7.503293575      2.373      3.634
REMARK  14 active torsions:
REMARK  status: ('A' for Active; 'I' for Inactive)
REMARK    1  A    between atoms: C1_2  and  C2_3 
REMARK    2  A    between atoms: C2_3  and  C3_4 
REMARK    3  A    between atoms: C3_4  and  C4_5 
REMARK    4  A    between atoms: C4_5  and  C5_6 
REMARK    5  A    between atoms: C5_6  and  C6_7 
REMARK    6  A    between atoms: C6_7  and  C7_8 
REMARK    7  A    between atoms: C7_8  and  C8_9 
REMARK    8  A    between atoms: C8_9  and  C9_10 
REMARK    9  A    between atoms: C9_10  and  O1_11 
REMARK   10  A    between atoms: O1_11  and  C10_12 
REMARK   11  A    between atoms: C13_15  and  N2_16 
REMARK   12  A    between atoms: N2_16  and  S1_18 
REMARK   13  A    between atoms: S1_18  and  C14_21 
REMARK   14  A    between atoms: N6_37  and  O4_39 
ROOT
HETATM    1  C10 UNL     1     -14.363   6.857  42.593  1.00  0.00     0.144 A 
HETATM    2  C11 UNL     1     -13.764   7.412  43.702  1.00  0.00     0.075 A 
HETATM    3  C12 UNL     1     -14.454   7.046  44.853  1.00  0.00     0.057 A 
HETATM    4  C13 UNL     1     -14.266   7.333  46.204  1.00  0.00     0.130 A 
HETATM    5  N3  UNL     1     -15.146   6.796  47.055  1.00  0.00    -0.337 N 
ATOM      6  H3  UNL     1     -15.051   6.979  48.054  1.00  0.00     0.168 HD
HETATM    7  C20 UNL     1     -16.155   6.019  46.617  1.00  0.00     0.183 A 
HETATM    8  N4  UNL     1     -16.344   5.736  45.306  1.00  0.00    -0.338 N 
ATOM      9  H4  UNL     1     -17.119   5.145  45.008  1.00  0.00     0.168 HD
HETATM   10  C21 UNL     1     -15.487   6.252  44.405  1.00  0.00     0.122 A 
HETATM   11  N5  UNL     1     -15.406   6.159  43.064  1.00  0.00    -0.322 N 
ATOM     12  H5  UNL     1     -16.053   5.626  42.483  1.00  0.00     0.169 HD
ENDROOT
BRANCH   1  13
HETATM   13  O1  UNL     1     -13.933   7.019  41.285  1.00  0.00    -0.336 OA
BRANCH  13  14
HETATM   14  C9  UNL     1     -12.823   7.848  41.002  1.00  0.00     0.177 C 
BRANCH  14  15
HETATM   15  C8  UNL     1     -13.252   8.791  39.889  1.00  0.00     0.027 C 
BRANCH  15  16
HETATM   16  C7  UNL     1     -12.960  10.232  40.255  1.00  0.00     0.002 C 
BRANCH  16  17
HETATM   17  C6  UNL     1     -14.268  10.989  40.163  1.00  0.00     0.000 C 
BRANCH  17  18
HETATM   18  C5  UNL     1     -14.749  11.449  41.520  1.00  0.00     0.000 C 
BRANCH  18  19
HETATM   19  C4  UNL     1     -13.932  10.968  42.646  1.00  0.00     0.000 C 
BRANCH  19  20
HETATM   20  C3  UNL     1     -14.357  11.201  44.034  1.00  0.00     0.007 C 
BRANCH  20  21
HETATM   21  C2  UNL     1     -13.623  12.128  44.898  1.00  0.00     0.075 C 
BRANCH  21  22
HETATM   22  C1  UNL     1     -13.241  11.773  46.249  1.00  0.00     0.113 C 
HETATM   23  N1  UNL     1     -14.069  11.017  47.133  1.00  0.00    -0.086 NA
HETATM   24  N6  UNL     1     -12.095  12.168  46.733  1.00  0.00    -0.260 N 
ATOM     25  H6  UNL     1     -11.461  12.712  46.148  1.00  0.00     0.195 HD
BRANCH  24  26
HETATM   26  O4  UNL     1     -11.742  11.864  47.999  1.00  0.00    -0.289 OA
ATOM     27  H4  UNL     1     -11.926  12.465  48.710  1.00  0.00     0.244 HD
ENDBRANCH  24  26
ENDBRANCH  21  22
ENDBRANCH  20  21
ENDBRANCH  19  20
ENDBRANCH  18  19
ENDBRANCH  17  18
ENDBRANCH  16  17
ENDBRANCH  15  16
ENDBRANCH  14  15
ENDBRANCH  13  14
ENDBRANCH   1  13
BRANCH   4  28
HETATM   28  N2  UNL     1     -13.286   8.073  46.507  1.00  0.00    -0.265 N 
ATOM     29  H2  UNL     1     -13.179   8.924  45.955  1.00  0.00     0.180 HD
BRANCH  28  30
HETATM   30  S1  UNL     1     -12.134   7.819  47.718  1.00  0.00     0.266 S 
HETATM   31  O2  UNL     1     -12.762   7.067  48.863  1.00  0.00    -0.200 OA
HETATM   32  O3  UNL     1     -11.728   9.176  48.274  1.00  0.00    -0.200 OA
BRANCH  30  33
HETATM   33  C14 UNL     1     -10.685   7.045  47.162  1.00  0.00     0.101 A 
HETATM   34  C15 UNL     1     -10.206   5.876  47.689  1.00  0.00     0.029 A 
HETATM   35  C16 UNL     1      -9.039   5.275  47.224  1.00  0.00     0.025 A 
HETATM   36  C17 UNL     1      -8.326   5.865  46.195  1.00  0.00     0.035 A 
HETATM   37 CL1  UNL     1      -6.852   5.157  45.568  1.00  0.00    -0.084 Cl
HETATM   38  C18 UNL     1      -8.822   7.052  45.669  1.00  0.00     0.049 A 
HETATM   39  C19 UNL     1      -9.981   7.636  46.139  1.00  0.00     0.059 A 
HETATM   40 CL2  UNL     1     -10.546   9.146  45.415  1.00  0.00    -0.083 Cl
ENDBRANCH  30  33
ENDBRANCH  28  30
ENDBRANCH   4  28
TORSDOF 14
ENDMDL
