MODEL 1
REMARK VINA RESULT: -7.004062179      0.000      0.000
REMARK  12 active torsions:
REMARK  status: ('A' for Active; 'I' for Inactive)
REMARK    1  A    between atoms: C2_2  and  N1_3 
REMARK    2  A    between atoms: C2_2  and  C9_19 
REMARK    3  A    between atoms: N1_3  and  C3_6 
REMARK    4  A    between atoms: C3_6  and  C4_7 
REMARK    5  A    between atoms: C4_7  and  N2_8 
REMARK    6  A    between atoms: N2_8  and  C5_11 
REMARK    7  A    between atoms: C5_11  and  C6_12 
REMARK    8  A    between atoms: C6_12  and  C7_13 
REMARK    9  A    between atoms: C7_13  and  C8_14 
REMARK   10  A    between atoms: C8_14  and  N3_15 
REMARK   11  A    between atoms: C17_27  and  C18_28 
REMARK   12  A    between atoms: C18_28  and  O1_31 
ROOT
HETATM    1  C9  UNL     1      23.543  12.864  52.167  1.00  0.00     0.022 C 
HETATM    2  C10 UNL     1      22.374  12.972  53.102  1.00  0.00     0.012 C 
HETATM    3  C11 UNL     1      22.330  14.396  53.643  1.00  0.00    -0.004 C 
HETATM    4  C12 UNL     1      21.021  14.669  54.310  1.00  0.00     0.001 C 
HETATM    5  C13 UNL     1      20.919  13.725  55.473  1.00  0.00    -0.010 C 
HETATM    6  C14 UNL     1      19.675  13.871  56.299  1.00  0.00     0.005 C 
HETATM    7  C15 UNL     1      18.841  15.008  55.802  1.00  0.00     0.001 C 
HETATM    8  C16 UNL     1      19.767  16.216  55.789  1.00  0.00     0.008 C 
HETATM    9  C17 UNL     1      20.735  16.087  54.603  1.00  0.00     0.024 C 
HETATM   10  C21 UNL     1      22.087  13.723  56.402  1.00  0.00     0.005 C 
HETATM   11  C22 UNL     1      23.428  13.543  55.747  1.00  0.00     0.006 C 
HETATM   12  C23 UNL     1      23.516  14.467  54.575  1.00  0.00    -0.002 C 
HETATM   13  C24 UNL     1      24.753  14.424  53.767  1.00  0.00    -0.035 C 
HETATM   14  C25 UNL     1      25.889  14.109  54.761  1.00  0.00     0.016 C 
HETATM   15  C26 UNL     1      25.029  15.894  53.386  1.00  0.00     0.017 C 
HETATM   16  C27 UNL     1      26.434  16.062  52.894  1.00  0.00     0.080 C 
HETATM   17  C28 UNL     1      26.566  15.106  51.762  1.00  0.00     0.135 C 
HETATM   18  O2  UNL     1      27.573  15.230  51.085  1.00  0.00    -0.297 OA
HETATM   19  C29 UNL     1      25.602  14.059  51.412  1.00  0.00     0.018 C 
HETATM   20  C30 UNL     1      24.698  14.610  50.340  1.00  0.00     0.023 C 
HETATM   21  C31 UNL     1      26.414  12.944  50.733  1.00  0.00     0.023 C 
HETATM   22  C32 UNL     1      24.811  13.501  52.602  1.00  0.00     0.015 C 
ENDROOT
BRANCH   1  23
HETATM   23  C2  UNL     1      23.685  11.355  51.878  1.00  0.00     0.186 C 
HETATM   24  C1  UNL     1      24.561  10.665  52.882  1.00  0.00     0.040 C 
BRANCH  23  25
HETATM   25  N1  UNL     1      22.398  10.705  51.935  1.00  0.00    -0.069 N 
ATOM     26  H12 UNL     1      22.302  10.115  52.761  1.00  0.00     0.277 HD
ATOM     27  H11 UNL     1      21.643  11.361  52.135  1.00  0.00     0.277 HD
BRANCH  25  28
HETATM   28  C3  UNL     1      22.174   9.974  50.719  1.00  0.00     0.260 C 
BRANCH  28  29
HETATM   29  C4  UNL     1      21.359  10.687  49.684  1.00  0.00     0.259 C 
BRANCH  29  30
HETATM   30  N2  UNL     1      20.154  11.166  50.368  1.00  0.00    -0.074 N 
ATOM     31  H22 UNL     1      20.106  10.829  51.330  1.00  0.00     0.277 HD
ATOM     32  H21 UNL     1      20.201  12.167  50.558  1.00  0.00     0.277 HD
BRANCH  30  33
HETATM   33  C5  UNL     1      18.966  10.818  49.617  1.00  0.00     0.232 C 
BRANCH  33  34
HETATM   34  C6  UNL     1      18.583   9.389  49.819  1.00  0.00     0.029 C 
BRANCH  34  35
HETATM   35  C7  UNL     1      18.477   8.604  48.520  1.00  0.00     0.029 C 
BRANCH  35  36
HETATM   36  C8  UNL     1      19.625   7.600  48.453  1.00  0.00     0.229 C 
BRANCH  36  37
HETATM   37  N3  UNL     1      20.520   7.926  47.354  1.00  0.00    -0.079 N 
ATOM     38  H33 UNL     1      20.104   8.601  46.711  1.00  0.00     0.274 HD
ATOM     39  H32 UNL     1      21.316   8.484  47.664  1.00  0.00     0.274 HD
ATOM     40  H31 UNL     1      20.816   7.076  46.873  1.00  0.00     0.274 HD
ENDBRANCH  36  37
ENDBRANCH  35  36
ENDBRANCH  34  35
ENDBRANCH  33  34
ENDBRANCH  30  33
ENDBRANCH  29  30
ENDBRANCH  28  29
ENDBRANCH  25  28
ENDBRANCH  23  25
ENDBRANCH   1  23
BRANCH   9  41
HETATM   41  C18 UNL     1      20.119  16.900  53.509  1.00  0.00     0.054 C 
HETATM   42  C19 UNL     1      19.585  18.181  54.167  1.00  0.00     0.045 C 
HETATM   43  C20 UNL     1      21.042  17.342  52.423  1.00  0.00     0.045 C 
BRANCH  41  44
HETATM   44  O1  UNL     1      19.020  16.299  52.904  1.00  0.00    -0.390 OA
ATOM     45  H1  UNL     1      18.928  16.498  51.980  1.00  0.00     0.210 HD
ENDBRANCH  41  44
ENDBRANCH   9  41
TORSDOF 12
ENDMDL
MODEL 2
REMARK VINA RESULT: -6.891490140      1.862      5.804
REMARK  12 active torsions:
REMARK  status: ('A' for Active; 'I' for Inactive)
REMARK    1  A    between atoms: C2_2  and  N1_3 
REMARK    2  A    between atoms: C2_2  and  C9_19 
REMARK    3  A    between atoms: N1_3  and  C3_6 
REMARK    4  A    between atoms: C3_6  and  C4_7 
REMARK    5  A    between atoms: C4_7  and  N2_8 
REMARK    6  A    between atoms: N2_8  and  C5_11 
REMARK    7  A    between atoms: C5_11  and  C6_12 
REMARK    8  A    between atoms: C6_12  and  C7_13 
REMARK    9  A    between atoms: C7_13  and  C8_14 
REMARK   10  A    between atoms: C8_14  and  N3_15 
REMARK   11  A    between atoms: C17_27  and  C18_28 
REMARK   12  A    between atoms: C18_28  and  O1_31 
ROOT
HETATM    1  C9  UNL     1      22.737  11.815  52.314  1.00  0.00     0.022 C 
HETATM    2  C10 UNL     1      24.131  11.911  51.765  1.00  0.00     0.012 C 
HETATM    3  C11 UNL     1      24.844  13.053  52.481  1.00  0.00    -0.004 C 
HETATM    4  C12 UNL     1      26.316  12.998  52.232  1.00  0.00     0.001 C 
HETATM    5  C13 UNL     1      26.514  13.176  50.754  1.00  0.00    -0.010 C 
HETATM    6  C14 UNL     1      27.947  13.186  50.305  1.00  0.00     0.005 C 
HETATM    7  C15 UNL     1      28.869  13.090  51.478  1.00  0.00     0.001 C 
HETATM    8  C16 UNL     1      28.464  14.226  52.408  1.00  0.00     0.008 C 
HETATM    9  C17 UNL     1      27.146  13.851  53.102  1.00  0.00     0.024 C 
HETATM   10  C21 UNL     1      25.841  14.365  50.155  1.00  0.00     0.005 C 
HETATM   11  C22 UNL     1      24.376  14.497  50.467  1.00  0.00     0.006 C 
HETATM   12  C23 UNL     1      24.179  14.294  51.935  1.00  0.00    -0.002 C 
HETATM   13  C24 UNL     1      22.795  14.352  52.450  1.00  0.00    -0.035 C 
HETATM   14  C25 UNL     1      22.066  15.390  51.571  1.00  0.00     0.016 C 
HETATM   15  C26 UNL     1      22.906  15.071  53.810  1.00  0.00     0.017 C 
HETATM   16  C27 UNL     1      21.563  15.540  54.278  1.00  0.00     0.080 C 
HETATM   17  C28 UNL     1      20.713  14.319  54.304  1.00  0.00     0.135 C 
HETATM   18  O2  UNL     1      19.633  14.444  54.855  1.00  0.00    -0.297 OA
HETATM   19  C29 UNL     1      21.072  13.017  53.735  1.00  0.00     0.018 C 
HETATM   20  C30 UNL     1      21.649  12.176  54.844  1.00  0.00     0.023 C 
HETATM   21  C31 UNL     1      19.745  12.341  53.353  1.00  0.00     0.023 C 
HETATM   22  C32 UNL     1      22.009  13.091  52.522  1.00  0.00     0.015 C 
ENDROOT
BRANCH   1  23
HETATM   23  C2  UNL     1      22.004  10.840  51.369  1.00  0.00     0.186 C 
HETATM   24  C1  UNL     1      21.929  11.359  49.963  1.00  0.00     0.040 C 
BRANCH  23  25
HETATM   25  N1  UNL     1      22.697   9.576  51.307  1.00  0.00    -0.069 N 
ATOM     26  H12 UNL     1      23.139   9.423  50.401  1.00  0.00     0.277 HD
ATOM     27  H11 UNL     1      23.538   9.569  51.884  1.00  0.00     0.277 HD
BRANCH  25  28
HETATM   28  C3  UNL     1      21.793   8.514  51.655  1.00  0.00     0.260 C 
BRANCH  28  29
HETATM   29  C4  UNL     1      21.241   7.738  50.500  1.00  0.00     0.259 C 
BRANCH  29  30
HETATM   30  N2  UNL     1      19.816   7.544  50.778  1.00  0.00    -0.074 N 
ATOM     31  H22 UNL     1      19.448   6.715  50.309  1.00  0.00     0.277 HD
ATOM     32  H21 UNL     1      19.655   7.258  51.743  1.00  0.00     0.277 HD
BRANCH  30  33
HETATM   33  C5  UNL     1      19.060   8.732  50.438  1.00  0.00     0.232 C 
BRANCH  33  34
HETATM   34  C6  UNL     1      19.135   9.036  48.978  1.00  0.00     0.029 C 
BRANCH  34  35
HETATM   35  C7  UNL     1      18.067   8.325  48.160  1.00  0.00     0.029 C 
BRANCH  35  36
HETATM   36  C8  UNL     1      18.749   7.400  47.155  1.00  0.00     0.229 C 
BRANCH  36  37
HETATM   37  N3  UNL     1      20.166   7.714  47.057  1.00  0.00    -0.079 N 
ATOM     38  H33 UNL     1      20.437   8.456  47.703  1.00  0.00     0.274 HD
ATOM     39  H32 UNL     1      20.749   6.966  47.434  1.00  0.00     0.274 HD
ATOM     40  H31 UNL     1      20.413   7.941  46.094  1.00  0.00     0.274 HD
ENDBRANCH  36  37
ENDBRANCH  35  36
ENDBRANCH  34  35
ENDBRANCH  33  34
ENDBRANCH  30  33
ENDBRANCH  29  30
ENDBRANCH  28  29
ENDBRANCH  25  28
ENDBRANCH  23  25
ENDBRANCH   1  23
BRANCH   9  41
HETATM   41  C18 UNL     1      27.551  13.288  54.427  1.00  0.00     0.054 C 
HETATM   42  C19 UNL     1      26.574  13.866  55.463  1.00  0.00     0.045 C 
HETATM   43  C20 UNL     1      27.471  11.804  54.559  1.00  0.00     0.045 C 
BRANCH  41  44
HETATM   44  O1  UNL     1      28.820  13.678  54.846  1.00  0.00    -0.390 OA
ATOM     45  H1  UNL     1      28.896  13.807  55.784  1.00  0.00     0.210 HD
ENDBRANCH  41  44
ENDBRANCH   9  41
TORSDOF 12
ENDMDL
MODEL 3
REMARK VINA RESULT: -6.811581437      1.334      1.769
REMARK  12 active torsions:
REMARK  status: ('A' for Active; 'I' for Inactive)
REMARK    1  A    between atoms: C2_2  and  N1_3 
REMARK    2  A    between atoms: C2_2  and  C9_19 
REMARK    3  A    between atoms: N1_3  and  C3_6 
REMARK    4  A    between atoms: C3_6  and  C4_7 
REMARK    5  A    between atoms: C4_7  and  N2_8 
REMARK    6  A    between atoms: N2_8  and  C5_11 
REMARK    7  A    between atoms: C5_11  and  C6_12 
REMARK    8  A    between atoms: C6_12  and  C7_13 
REMARK    9  A    between atoms: C7_13  and  C8_14 
REMARK   10  A    between atoms: C8_14  and  N3_15 
REMARK   11  A    between atoms: C17_27  and  C18_28 
REMARK   12  A    between atoms: C18_28  and  O1_31 
ROOT
HETATM    1  C9  UNL     1      23.869  12.127  52.474  1.00  0.00     0.022 C 
HETATM    2  C10 UNL     1      22.539  12.764  52.753  1.00  0.00     0.012 C 
HETATM    3  C11 UNL     1      22.768  14.252  52.995  1.00  0.00    -0.004 C 
HETATM    4  C12 UNL     1      21.476  15.001  52.951  1.00  0.00     0.001 C 
HETATM    5  C13 UNL     1      20.627  14.471  54.071  1.00  0.00    -0.010 C 
HETATM    6  C14 UNL     1      19.287  15.132  54.215  1.00  0.00     0.005 C 
HETATM    7  C15 UNL     1      19.139  16.247  53.230  1.00  0.00     0.001 C 
HETATM    8  C16 UNL     1      20.344  17.150  53.454  1.00  0.00     0.008 C 
HETATM    9  C17 UNL     1      21.589  16.469  52.866  1.00  0.00     0.024 C 
HETATM   10  C21 UNL     1      21.274  14.454  55.415  1.00  0.00     0.005 C 
HETATM   11  C22 UNL     1      22.621  13.788  55.470  1.00  0.00     0.006 C 
HETATM   12  C23 UNL     1      23.455  14.299  54.339  1.00  0.00    -0.002 C 
HETATM   13  C24 UNL     1      24.816  13.742  54.192  1.00  0.00    -0.035 C 
HETATM   14  C25 UNL     1      25.307  13.458  55.627  1.00  0.00     0.016 C 
HETATM   15  C26 UNL     1      25.690  14.938  53.760  1.00  0.00     0.017 C 
HETATM   16  C27 UNL     1      27.145  14.626  53.936  1.00  0.00     0.080 C 
HETATM   17  C28 UNL     1      27.375  13.388  53.143  1.00  0.00     0.135 C 
HETATM   18  O2  UNL     1      28.543  13.077  52.983  1.00  0.00    -0.297 OA
HETATM   19  C29 UNL     1      26.329  12.542  52.558  1.00  0.00     0.018 C 
HETATM   20  C30 UNL     1      26.147  12.969  51.125  1.00  0.00     0.023 C 
HETATM   21  C31 UNL     1      26.919  11.123  52.494  1.00  0.00     0.023 C 
HETATM   22  C32 UNL     1      25.005  12.543  53.333  1.00  0.00     0.015 C 
ENDROOT
BRANCH   1  23
HETATM   23  C2  UNL     1      23.599  10.608  52.511  1.00  0.00     0.186 C 
HETATM   24  C1  UNL     1      23.770  10.034  53.887  1.00  0.00     0.040 C 
BRANCH  23  25
HETATM   25  N1  UNL     1      22.242  10.324  52.110  1.00  0.00    -0.069 N 
ATOM     26  H12 UNL     1      21.753   9.743  52.790  1.00  0.00     0.277 HD
ATOM     27  H11 UNL     1      21.643  11.148  52.165  1.00  0.00     0.277 HD
BRANCH  25  28
HETATM   28  C3  UNL     1      22.241   9.740  50.797  1.00  0.00     0.260 C 
BRANCH  28  29
HETATM   29  C4  UNL     1      21.496  10.512  49.753  1.00  0.00     0.259 C 
BRANCH  29  30
HETATM   30  N2  UNL     1      20.314  11.068  50.417  1.00  0.00    -0.074 N 
ATOM     31  H22 UNL     1      20.212  10.713  51.368  1.00  0.00     0.277 HD
ATOM     32  H21 UNL     1      20.432  12.057  50.635  1.00  0.00     0.277 HD
BRANCH  30  33
HETATM   33  C5  UNL     1      19.123  10.832  49.626  1.00  0.00     0.232 C 
BRANCH  33  34
HETATM   34  C6  UNL     1      18.580   9.459  49.840  1.00  0.00     0.029 C 
BRANCH  34  35
HETATM   35  C7  UNL     1      18.360   8.690  48.545  1.00  0.00     0.029 C 
BRANCH  35  36
HETATM   36  C8  UNL     1      19.428   7.606  48.427  1.00  0.00     0.229 C 
BRANCH  36  37
HETATM   37  N3  UNL     1      20.377   7.942  47.376  1.00  0.00    -0.079 N 
ATOM     38  H33 UNL     1      20.514   8.950  47.295  1.00  0.00     0.274 HD
ATOM     39  H32 UNL     1      21.331   7.680  47.628  1.00  0.00     0.274 HD
ATOM     40  H31 UNL     1      20.090   7.525  46.491  1.00  0.00     0.274 HD
ENDBRANCH  36  37
ENDBRANCH  35  36
ENDBRANCH  34  35
ENDBRANCH  33  34
ENDBRANCH  30  33
ENDBRANCH  29  30
ENDBRANCH  28  29
ENDBRANCH  25  28
ENDBRANCH  23  25
ENDBRANCH   1  23
BRANCH   9  41
HETATM   41  C18 UNL     1      21.751  17.065  51.504  1.00  0.00     0.054 C 
HETATM   42  C19 UNL     1      22.803  18.177  51.637  1.00  0.00     0.045 C 
HETATM   43  C20 UNL     1      22.249  16.143  50.442  1.00  0.00     0.045 C 
BRANCH  41  44
HETATM   44  O1  UNL     1      20.605  17.685  51.016  1.00  0.00    -0.390 OA
ATOM     45  H1  UNL     1      20.218  17.250  50.265  1.00  0.00     0.210 HD
ENDBRANCH  41  44
ENDBRANCH   9  41
TORSDOF 12
ENDMDL
MODEL 4
REMARK VINA RESULT: -6.736331061      1.209      2.117
REMARK  12 active torsions:
REMARK  status: ('A' for Active; 'I' for Inactive)
REMARK    1  A    between atoms: C2_2  and  N1_3 
REMARK    2  A    between atoms: C2_2  and  C9_19 
REMARK    3  A    between atoms: N1_3  and  C3_6 
REMARK    4  A    between atoms: C3_6  and  C4_7 
REMARK    5  A    between atoms: C4_7  and  N2_8 
REMARK    6  A    between atoms: N2_8  and  C5_11 
REMARK    7  A    between atoms: C5_11  and  C6_12 
REMARK    8  A    between atoms: C6_12  and  C7_13 
REMARK    9  A    between atoms: C7_13  and  C8_14 
REMARK   10  A    between atoms: C8_14  and  N3_15 
REMARK   11  A    between atoms: C17_27  and  C18_28 
REMARK   12  A    between atoms: C18_28  and  O1_31 
ROOT
HETATM    1  C9  UNL     1      23.477  13.161  52.037  1.00  0.00     0.022 C 
HETATM    2  C10 UNL     1      22.298  13.280  52.959  1.00  0.00     0.012 C 
HETATM    3  C11 UNL     1      22.295  14.686  53.546  1.00  0.00    -0.004 C 
HETATM    4  C12 UNL     1      20.988  14.983  54.204  1.00  0.00     0.001 C 
HETATM    5  C13 UNL     1      20.835  14.005  55.333  1.00  0.00    -0.010 C 
HETATM    6  C14 UNL     1      19.585  14.168  56.147  1.00  0.00     0.005 C 
HETATM    7  C15 UNL     1      18.798  15.349  55.676  1.00  0.00     0.001 C 
HETATM    8  C16 UNL     1      19.766  16.524  55.716  1.00  0.00     0.008 C 
HETATM    9  C17 UNL     1      20.746  16.399  54.539  1.00  0.00     0.024 C 
HETATM   10  C21 UNL     1      21.988  13.931  56.278  1.00  0.00     0.005 C 
HETATM   11  C22 UNL     1      23.332  13.726  55.636  1.00  0.00     0.006 C 
HETATM   12  C23 UNL     1      23.469  14.684  54.496  1.00  0.00    -0.002 C 
HETATM   13  C24 UNL     1      24.716  14.624  53.704  1.00  0.00    -0.035 C 
HETATM   14  C25 UNL     1      25.826  14.236  54.703  1.00  0.00     0.016 C 
HETATM   15  C26 UNL     1      25.049  16.095  53.376  1.00  0.00     0.017 C 
HETATM   16  C27 UNL     1      26.466  16.230  52.910  1.00  0.00     0.080 C 
HETATM   17  C28 UNL     1      26.582  15.306  51.748  1.00  0.00     0.135 C 
HETATM   18  O2  UNL     1      27.602  15.417  51.090  1.00  0.00    -0.297 OA
HETATM   19  C29 UNL     1      25.587  14.306  51.350  1.00  0.00     0.018 C 
HETATM   20  C30 UNL     1      24.718  14.924  50.285  1.00  0.00     0.023 C 
HETATM   21  C31 UNL     1      26.370  13.186  50.646  1.00  0.00     0.023 C 
HETATM   22  C32 UNL     1      24.759  13.738  52.510  1.00  0.00     0.015 C 
ENDROOT
BRANCH   1  23
HETATM   23  C2  UNL     1      23.570  11.658  51.700  1.00  0.00     0.186 C 
HETATM   24  C1  UNL     1      24.477  10.920  52.641  1.00  0.00     0.040 C 
BRANCH  23  25
HETATM   25  N1  UNL     1      22.273  11.034  51.801  1.00  0.00    -0.069 N 
ATOM     26  H12 UNL     1      22.086  10.684  52.741  1.00  0.00     0.277 HD
ATOM     27  H11 UNL     1      21.513  11.712  51.744  1.00  0.00     0.277 HD
BRANCH  25  28
HETATM   28  C3  UNL     1      22.156  10.004  50.806  1.00  0.00     0.260 C 
BRANCH  28  29
HETATM   29  C4  UNL     1      21.338  10.364  49.605  1.00  0.00     0.259 C 
BRANCH  29  30
HETATM   30  N2  UNL     1      20.321  11.312  50.068  1.00  0.00    -0.074 N 
ATOM     31  H22 UNL     1      20.533  11.669  51.000  1.00  0.00     0.277 HD
ATOM     32  H21 UNL     1      20.361  12.191  49.554  1.00  0.00     0.277 HD
BRANCH  30  33
HETATM   33  C5  UNL     1      19.001  10.717  50.010  1.00  0.00     0.232 C 
BRANCH  33  34
HETATM   34  C6  UNL     1      18.125  11.205  51.114  1.00  0.00     0.029 C 
BRANCH  34  35
HETATM   35  C7  UNL     1      18.897  11.852  52.255  1.00  0.00     0.029 C 
BRANCH  35  36
HETATM   36  C8  UNL     1      17.982  12.841  52.973  1.00  0.00     0.229 C 
BRANCH  36  37
HETATM   37  N3  UNL     1      16.845  13.181  52.132  1.00  0.00    -0.079 N 
ATOM     38  H33 UNL     1      17.114  13.785  51.355  1.00  0.00     0.274 HD
ATOM     39  H32 UNL     1      16.516  12.379  51.593  1.00  0.00     0.274 HD
ATOM     40  H31 UNL     1      16.099  13.594  52.693  1.00  0.00     0.274 HD
ENDBRANCH  36  37
ENDBRANCH  35  36
ENDBRANCH  34  35
ENDBRANCH  33  34
ENDBRANCH  30  33
ENDBRANCH  29  30
ENDBRANCH  28  29
ENDBRANCH  25  28
ENDBRANCH  23  25
ENDBRANCH   1  23
BRANCH   9  41
HETATM   41  C18 UNL     1      20.176  17.269  53.465  1.00  0.00     0.054 C 
HETATM   42  C19 UNL     1      19.247  16.375  52.628  1.00  0.00     0.045 C 
HETATM   43  C20 UNL     1      19.345  18.419  53.926  1.00  0.00     0.045 C 
BRANCH  41  44
HETATM   44  O1  UNL     1      21.123  17.767  52.575  1.00  0.00    -0.390 OA
ATOM     45  H1  UNL     1      21.270  17.215  51.816  1.00  0.00     0.210 HD
ENDBRANCH  41  44
ENDBRANCH   9  41
TORSDOF 12
ENDMDL
MODEL 5
REMARK VINA RESULT: -6.704479819      2.614      5.075
REMARK  12 active torsions:
REMARK  status: ('A' for Active; 'I' for Inactive)
REMARK    1  A    between atoms: C2_2  and  N1_3 
REMARK    2  A    between atoms: C2_2  and  C9_19 
REMARK    3  A    between atoms: N1_3  and  C3_6 
REMARK    4  A    between atoms: C3_6  and  C4_7 
REMARK    5  A    between atoms: C4_7  and  N2_8 
REMARK    6  A    between atoms: N2_8  and  C5_11 
REMARK    7  A    between atoms: C5_11  and  C6_12 
REMARK    8  A    between atoms: C6_12  and  C7_13 
REMARK    9  A    between atoms: C7_13  and  C8_14 
REMARK   10  A    between atoms: C8_14  and  N3_15 
REMARK   11  A    between atoms: C17_27  and  C18_28 
REMARK   12  A    between atoms: C18_28  and  O1_31 
ROOT
HETATM    1  C9  UNL     1      20.888  10.981  51.627  1.00  0.00     0.022 C 
HETATM    2  C10 UNL     1      20.859  12.476  51.493  1.00  0.00     0.012 C 
HETATM    3  C11 UNL     1      22.150  13.030  52.084  1.00  0.00    -0.004 C 
HETATM    4  C12 UNL     1      22.341  14.460  51.694  1.00  0.00     0.001 C 
HETATM    5  C13 UNL     1      21.192  15.229  52.280  1.00  0.00    -0.010 C 
HETATM    6  C14 UNL     1      21.225  16.707  52.024  1.00  0.00     0.005 C 
HETATM    7  C15 UNL     1      22.471  17.089  51.290  1.00  0.00     0.001 C 
HETATM    8  C16 UNL     1      23.619  16.541  52.127  1.00  0.00     0.008 C 
HETATM    9  C17 UNL     1      23.684  15.017  51.941  1.00  0.00     0.024 C 
HETATM   10  C21 UNL     1      20.960  15.023  53.739  1.00  0.00     0.005 C 
HETATM   11  C22 UNL     1      20.857  13.588  54.176  1.00  0.00     0.006 C 
HETATM   12  C23 UNL     1      21.988  12.821  53.571  1.00  0.00    -0.002 C 
HETATM   13  C24 UNL     1      22.054  11.371  53.851  1.00  0.00    -0.035 C 
HETATM   14  C25 UNL     1      21.502  11.198  55.282  1.00  0.00     0.016 C 
HETATM   15  C26 UNL     1      23.557  11.067  54.024  1.00  0.00     0.017 C 
HETATM   16  C27 UNL     1      23.760   9.736  54.679  1.00  0.00     0.080 C 
HETATM   17  C28 UNL     1      23.039   8.763  53.814  1.00  0.00     0.135 C 
HETATM   18  O2  UNL     1      23.252   7.587  54.056  1.00  0.00    -0.297 OA
HETATM   19  C29 UNL     1      22.121   9.108  52.723  1.00  0.00     0.018 C 
HETATM   20  C30 UNL     1      22.909   9.085  51.439  1.00  0.00     0.023 C 
HETATM   21  C31 UNL     1      21.129   7.938  52.619  1.00  0.00     0.023 C 
HETATM   22  C32 UNL     1      21.375  10.433  52.917  1.00  0.00     0.015 C 
ENDROOT
BRANCH   1  23
HETATM   23  C2  UNL     1      19.461  10.521  51.267  1.00  0.00     0.186 C 
HETATM   24  C1  UNL     1      18.414  11.475  51.762  1.00  0.00     0.040 C 
BRANCH  23  25
HETATM   25  N1  UNL     1      19.300  10.438  49.835  1.00  0.00    -0.069 N 
ATOM     26  H12 UNL     1      18.412  10.828  49.524  1.00  0.00     0.277 HD
ATOM     27  H11 UNL     1      19.922  11.077  49.340  1.00  0.00     0.277 HD
BRANCH  25  28
HETATM   28  C3  UNL     1      19.473   9.076  49.410  1.00  0.00     0.260 C 
BRANCH  28  29
HETATM   29  C4  UNL     1      20.682   8.817  48.566  1.00  0.00     0.259 C 
BRANCH  29  30
HETATM   30  N2  UNL     1      20.233   7.983  47.448  1.00  0.00    -0.074 N 
ATOM     31  H22 UNL     1      20.345   8.458  46.552  1.00  0.00     0.277 HD
ATOM     32  H21 UNL     1      20.862   7.198  47.284  1.00  0.00     0.277 HD
BRANCH  30  33
HETATM   33  C5  UNL     1      18.868   7.542  47.653  1.00  0.00     0.232 C 
BRANCH  33  34
HETATM   34  C6  UNL     1      18.202   7.186  46.366  1.00  0.00     0.029 C 
BRANCH  34  35
HETATM   35  C7  UNL     1      16.758   7.660  46.284  1.00  0.00     0.029 C 
BRANCH  35  36
HETATM   36  C8  UNL     1      16.597   8.541  45.048  1.00  0.00     0.229 C 
BRANCH  36  37
HETATM   37  N3  UNL     1      15.870   9.757  45.383  1.00  0.00    -0.079 N 
ATOM     38  H33 UNL     1      15.264  10.059  44.621  1.00  0.00     0.274 HD
ATOM     39  H32 UNL     1      15.153   9.588  46.089  1.00  0.00     0.274 HD
ATOM     40  H31 UNL     1      16.519  10.491  45.667  1.00  0.00     0.274 HD
ENDBRANCH  36  37
ENDBRANCH  35  36
ENDBRANCH  34  35
ENDBRANCH  33  34
ENDBRANCH  30  33
ENDBRANCH  29  30
ENDBRANCH  28  29
ENDBRANCH  25  28
ENDBRANCH  23  25
ENDBRANCH   1  23
BRANCH   9  41
HETATM   41  C18 UNL     1      24.720  14.799  50.885  1.00  0.00     0.054 C 
HETATM   42  C19 UNL     1      25.793  15.879  51.098  1.00  0.00     0.045 C 
HETATM   43  C20 UNL     1      25.433  13.489  50.928  1.00  0.00     0.045 C 
BRANCH  41  44
HETATM   44  O1  UNL     1      24.255  14.980  49.586  1.00  0.00    -0.390 OA
ATOM     45  H1  UNL     1      24.923  15.256  48.970  1.00  0.00     0.210 HD
ENDBRANCH  41  44
ENDBRANCH   9  41
TORSDOF 12
ENDMDL
