MODEL 1
REMARK VINA RESULT: -7.999181149      0.000      0.000
REMARK  13 active torsions:
REMARK  status: ('A' for Active; 'I' for Inactive)
REMARK    1  A    between atoms: N1_1  and  C1_5 
REMARK    2  A    between atoms: C1_5  and  C2_6 
REMARK    3  A    between atoms: C2_6  and  C3_7 
REMARK    4  A    between atoms: C3_7  and  C4_8 
REMARK    5  A    between atoms: C4_8  and  C5_9 
REMARK    6  A    between atoms: C5_9  and  C6_10 
REMARK    7  A    between atoms: C6_10  and  N2_11 
REMARK       I    between atoms: N2_11  and  C7_13 
REMARK       I    between atoms: C7_13  and  N6_41 
REMARK       I    between atoms: N3_14  and  C8_16 
REMARK    8  A    between atoms: C8_16  and  C9_18 
REMARK    9  A    between atoms: C9_18  and  S1_19 
REMARK   10  A    between atoms: S1_19  and  C10_20 
REMARK   11  A    between atoms: C18_32  and  N5_33 
REMARK   12  A    between atoms: N5_33  and  C19_35 
REMARK   13  A    between atoms: N6_41  and  C25_43 
ROOT
HETATM    1  N2  UNL     1      -7.048 -17.659   7.590  1.00  0.00    -0.226 N 
ATOM      2  H2  UNL     1      -6.239 -17.562   6.976  1.00  0.00     0.177 HD
HETATM    3  C7  UNL     1      -6.820 -17.490   8.979  1.00  0.00     0.676 C 
HETATM    4  N3  UNL     1      -6.678 -18.543   9.695  1.00  0.00    -0.159 N 
ATOM      5  H3  UNL     1      -6.738 -19.440   9.215  1.00  0.00     0.187 HD
HETATM    6  C8  UNL     1      -6.446 -18.577  11.076  1.00  0.00     0.245 C 
HETATM    7  O1  UNL     1      -7.432 -18.913  11.816  1.00  0.00    -0.272 OA
HETATM    8  N6  UNL     1      -6.761 -16.178   9.493  1.00  0.00    -0.222 N 
ATOM      9  H6  UNL     1      -5.885 -15.871   9.915  1.00  0.00     0.178 HD
ENDROOT
BRANCH   6  10
HETATM   10  C9  UNL     1      -5.180 -18.263  11.745  1.00  0.00     0.184 C 
BRANCH  10  11
HETATM   11  S1  UNL     1      -3.729 -18.928  10.915  1.00  0.00    -0.101 SA
BRANCH  11  12
HETATM   12  C10 UNL     1      -3.488 -18.138   9.335  1.00  0.00     0.098 A 
HETATM   13  N4  UNL     1      -3.594 -18.809   8.170  1.00  0.00    -0.348 N 
HETATM   14  C11 UNL     1      -3.360 -17.989   7.134  1.00  0.00     0.045 A 
ATOM     15  H4  UNL     1      -3.820 -19.800   8.087  1.00  0.00     0.166 HD
HETATM   16  C12 UNL     1      -3.385 -18.345   5.804  1.00  0.00     0.033 C 
HETATM   17  C17 UNL     1      -3.085 -16.693   7.739  1.00  0.00     0.023 A 
HETATM   18  C13 UNL     1      -3.083 -17.575   4.702  1.00  0.00     0.048 C 
HETATM   19  C14 UNL     1      -2.849 -16.196   4.662  1.00  0.00     0.154 C 
HETATM   20  F1  UNL     1      -2.727 -15.653   3.433  1.00  0.00    -0.203 F 
HETATM   21  C15 UNL     1      -2.726 -15.317   5.724  1.00  0.00     0.155 C 
HETATM   22  F2  UNL     1      -2.511 -14.026   5.362  1.00  0.00    -0.203 F 
HETATM   23  C16 UNL     1      -2.785 -15.526   7.097  1.00  0.00     0.061 C 
HETATM   24  C18 UNL     1      -3.173 -16.817   9.136  1.00  0.00     0.075 A 
BRANCH  24  25
HETATM   25  N5  UNL     1      -2.978 -15.777  10.081  1.00  0.00    -0.382 N 
ATOM     26  H5  UNL     1      -2.564 -15.992  10.988  1.00  0.00     0.160 HD
BRANCH  25  27
HETATM   27  C19 UNL     1      -3.358 -14.424   9.773  1.00  0.00     0.082 C 
HETATM   28  C20 UNL     1      -2.196 -13.462   9.774  1.00  0.00     0.025 C 
HETATM   29  C21 UNL     1      -2.358 -12.373  10.801  1.00  0.00     0.002 C 
HETATM   30  C22 UNL     1      -3.644 -11.637  10.766  1.00  0.00     0.000 C 
HETATM   31  C23 UNL     1      -4.747 -12.501  10.211  1.00  0.00     0.002 C 
HETATM   32  C24 UNL     1      -4.464 -13.934  10.688  1.00  0.00     0.025 C 
ENDBRANCH  25  27
ENDBRANCH  24  25
ENDBRANCH  11  12
ENDBRANCH  10  11
ENDBRANCH   6  10
BRANCH   1  33
HETATM   33  C6  UNL     1      -8.297 -17.951   6.965  1.00  0.00     0.138 C 
BRANCH  33  34
HETATM   34  C5  UNL     1      -8.613 -17.247   5.717  1.00  0.00     0.020 C 
BRANCH  34  35
HETATM   35  C4  UNL     1      -7.530 -16.927   4.775  1.00  0.00     0.002 C 
BRANCH  35  36
HETATM   36  C3  UNL     1      -6.611 -15.796   4.988  1.00  0.00     0.002 C 
BRANCH  36  37
HETATM   37  C2  UNL     1      -6.511 -14.744   3.938  1.00  0.00     0.027 C 
BRANCH  37  38
HETATM   38  C1  UNL     1      -7.556 -15.103   2.853  1.00  0.00     0.229 C 
BRANCH  38  39
HETATM   39  N1  UNL     1      -7.608 -13.997   1.917  1.00  0.00    -0.079 N 
ATOM     40  H13 UNL     1      -8.330 -13.314   2.146  1.00  0.00     0.274 HD
ATOM     41  H12 UNL     1      -6.805 -13.372   1.994  1.00  0.00     0.274 HD
ATOM     42  H11 UNL     1      -7.716 -14.392   0.983  1.00  0.00     0.274 HD
ENDBRANCH  38  39
ENDBRANCH  37  38
ENDBRANCH  36  37
ENDBRANCH  35  36
ENDBRANCH  34  35
ENDBRANCH  33  34
ENDBRANCH   1  33
BRANCH   8  43
HETATM   43  C25 UNL     1      -7.859 -15.239   9.462  1.00  0.00     0.099 C 
HETATM   44  C26 UNL     1      -7.880 -14.378   8.238  1.00  0.00     0.026 C 
HETATM   45  C27 UNL     1      -9.245 -14.198   7.642  1.00  0.00     0.002 C 
HETATM   46  C28 UNL     1     -10.194 -13.906   8.794  1.00  0.00     0.000 C 
HETATM   47  C29 UNL     1     -10.376 -15.208   9.530  1.00  0.00     0.002 C 
HETATM   48  C30 UNL     1      -9.117 -15.958   9.752  1.00  0.00     0.026 C 
ENDBRANCH   8  43
TORSDOF 13
ENDMDL
MODEL 2
REMARK VINA RESULT: -7.935343948      2.532      4.627
REMARK  13 active torsions:
REMARK  status: ('A' for Active; 'I' for Inactive)
REMARK    1  A    between atoms: N1_1  and  C1_5 
REMARK    2  A    between atoms: C1_5  and  C2_6 
REMARK    3  A    between atoms: C2_6  and  C3_7 
REMARK    4  A    between atoms: C3_7  and  C4_8 
REMARK    5  A    between atoms: C4_8  and  C5_9 
REMARK    6  A    between atoms: C5_9  and  C6_10 
REMARK    7  A    between atoms: C6_10  and  N2_11 
REMARK       I    between atoms: N2_11  and  C7_13 
REMARK       I    between atoms: C7_13  and  N6_41 
REMARK       I    between atoms: N3_14  and  C8_16 
REMARK    8  A    between atoms: C8_16  and  C9_18 
REMARK    9  A    between atoms: C9_18  and  S1_19 
REMARK   10  A    between atoms: S1_19  and  C10_20 
REMARK   11  A    between atoms: C18_32  and  N5_33 
REMARK   12  A    between atoms: N5_33  and  C19_35 
REMARK   13  A    between atoms: N6_41  and  C25_43 
ROOT
HETATM    1  N2  UNL     1     -10.599 -15.828   8.833  1.00  0.00    -0.226 N 
ATOM      2  H2  UNL     1     -11.245 -16.612   8.933  1.00  0.00     0.177 HD
HETATM    3  C7  UNL     1      -9.225 -16.101   9.045  1.00  0.00     0.676 C 
HETATM    4  N3  UNL     1      -8.727 -15.821  10.191  1.00  0.00    -0.159 N 
ATOM      5  H3  UNL     1      -9.358 -15.416  10.882  1.00  0.00     0.187 HD
HETATM    6  C8  UNL     1      -7.398 -16.018  10.586  1.00  0.00     0.245 C 
HETATM    7  O1  UNL     1      -6.659 -14.978  10.659  1.00  0.00    -0.272 OA
HETATM    8  N6  UNL     1      -8.484 -16.668   7.986  1.00  0.00    -0.222 N 
ATOM      9  H6  UNL     1      -8.081 -17.594   8.129  1.00  0.00     0.178 HD
ENDROOT
BRANCH   6  10
HETATM   10  C9  UNL     1      -6.781 -17.305  10.921  1.00  0.00     0.184 C 
BRANCH  10  11
HETATM   11  S1  UNL     1      -4.982 -17.280  10.902  1.00  0.00    -0.101 SA
BRANCH  11  12
HETATM   12  C10 UNL     1      -4.372 -16.979   9.255  1.00  0.00     0.098 A 
HETATM   13  N4  UNL     1      -4.103 -17.979   8.390  1.00  0.00    -0.348 N 
HETATM   14  C11 UNL     1      -3.651 -17.485   7.228  1.00  0.00     0.045 A 
ATOM     15  H4  UNL     1      -4.225 -18.971   8.592  1.00  0.00     0.166 HD
HETATM   16  C12 UNL     1      -3.283 -18.226   6.127  1.00  0.00     0.033 C 
HETATM   17  C17 UNL     1      -3.649 -16.040   7.412  1.00  0.00     0.023 A 
HETATM   18  C13 UNL     1      -2.744 -17.788   4.936  1.00  0.00     0.048 C 
HETATM   19  C14 UNL     1      -2.608 -16.467   4.496  1.00  0.00     0.154 C 
HETATM   20  F1  UNL     1      -2.191 -16.310   3.222  1.00  0.00    -0.203 F 
HETATM   21  C15 UNL     1      -2.847 -15.300   5.200  1.00  0.00     0.155 C 
HETATM   22  F2  UNL     1      -2.634 -14.162   4.490  1.00  0.00    -0.203 F 
HETATM   23  C16 UNL     1      -3.268 -15.090   6.508  1.00  0.00     0.061 C 
HETATM   24  C18 UNL     1      -4.110 -15.747   8.706  1.00  0.00     0.075 A 
BRANCH  24  25
HETATM   25  N5  UNL     1      -4.259 -14.453   9.268  1.00  0.00    -0.382 N 
ATOM     26  H5  UNL     1      -5.032 -13.860   8.969  1.00  0.00     0.160 HD
BRANCH  25  27
HETATM   27  C19 UNL     1      -3.330 -13.969  10.255  1.00  0.00     0.082 C 
HETATM   28  C20 UNL     1      -3.849 -12.787  11.035  1.00  0.00     0.025 C 
HETATM   29  C21 UNL     1      -2.986 -11.565  10.859  1.00  0.00     0.002 C 
HETATM   30  C22 UNL     1      -1.538 -11.756  11.104  1.00  0.00     0.000 C 
HETATM   31  C23 UNL     1      -1.124 -13.178  10.827  1.00  0.00     0.002 C 
HETATM   32  C24 UNL     1      -1.977 -13.659   9.643  1.00  0.00     0.025 C 
ENDBRANCH  25  27
ENDBRANCH  24  25
ENDBRANCH  11  12
ENDBRANCH  10  11
ENDBRANCH   6  10
BRANCH   1  33
HETATM   33  C6  UNL     1     -11.170 -14.565   8.494  1.00  0.00     0.138 C 
BRANCH  33  34
HETATM   34  C5  UNL     1     -11.502 -13.653   9.595  1.00  0.00     0.020 C 
BRANCH  34  35
HETATM   35  C4  UNL     1     -12.426 -14.099  10.648  1.00  0.00     0.002 C 
BRANCH  35  36
HETATM   36  C3  UNL     1     -13.174 -13.151  11.490  1.00  0.00     0.002 C 
BRANCH  36  37
HETATM   37  C2  UNL     1     -12.775 -11.716  11.489  1.00  0.00     0.027 C 
BRANCH  37  38
HETATM   38  C1  UNL     1     -13.912 -10.942  12.200  1.00  0.00     0.229 C 
BRANCH  38  39
HETATM   39  N1  UNL     1     -14.066  -9.672  11.516  1.00  0.00    -0.079 N 
ATOM     40  H13 UNL     1     -13.959  -9.748  10.505  1.00  0.00     0.274 HD
ATOM     41  H12 UNL     1     -15.027  -9.330  11.522  1.00  0.00     0.274 HD
ATOM     42  H11 UNL     1     -13.408  -9.016  11.938  1.00  0.00     0.274 HD
ENDBRANCH  38  39
ENDBRANCH  37  38
ENDBRANCH  36  37
ENDBRANCH  35  36
ENDBRANCH  34  35
ENDBRANCH  33  34
ENDBRANCH   1  33
BRANCH   8  43
HETATM   43  C25 UNL     1      -8.258 -16.024   6.712  1.00  0.00     0.099 C 
HETATM   44  C26 UNL     1      -6.811 -15.909   6.346  1.00  0.00     0.026 C 
HETATM   45  C27 UNL     1      -6.517 -16.232   4.911  1.00  0.00     0.002 C 
HETATM   46  C28 UNL     1      -7.573 -15.526   4.074  1.00  0.00     0.000 C 
HETATM   47  C29 UNL     1      -8.855 -16.291   4.280  1.00  0.00     0.002 C 
HETATM   48  C30 UNL     1      -9.121 -16.656   5.692  1.00  0.00     0.026 C 
ENDBRANCH   8  43
TORSDOF 13
ENDMDL
MODEL 3
REMARK VINA RESULT: -7.854842500      2.348      5.358
REMARK  13 active torsions:
REMARK  status: ('A' for Active; 'I' for Inactive)
REMARK    1  A    between atoms: N1_1  and  C1_5 
REMARK    2  A    between atoms: C1_5  and  C2_6 
REMARK    3  A    between atoms: C2_6  and  C3_7 
REMARK    4  A    between atoms: C3_7  and  C4_8 
REMARK    5  A    between atoms: C4_8  and  C5_9 
REMARK    6  A    between atoms: C5_9  and  C6_10 
REMARK    7  A    between atoms: C6_10  and  N2_11 
REMARK       I    between atoms: N2_11  and  C7_13 
REMARK       I    between atoms: C7_13  and  N6_41 
REMARK       I    between atoms: N3_14  and  C8_16 
REMARK    8  A    between atoms: C8_16  and  C9_18 
REMARK    9  A    between atoms: C9_18  and  S1_19 
REMARK   10  A    between atoms: S1_19  and  C10_20 
REMARK   11  A    between atoms: C18_32  and  N5_33 
REMARK   12  A    between atoms: N5_33  and  C19_35 
REMARK   13  A    between atoms: N6_41  and  C25_43 
ROOT
HETATM    1  N2  UNL     1      -4.109 -18.022   7.278  1.00  0.00    -0.226 N 
ATOM      2  H2  UNL     1      -3.621 -17.364   7.885  1.00  0.00     0.177 HD
HETATM    3  C7  UNL     1      -5.480 -18.251   7.555  1.00  0.00     0.676 C 
HETATM    4  N3  UNL     1      -5.790 -19.294   8.232  1.00  0.00    -0.159 N 
ATOM      5  H3  UNL     1      -5.022 -19.896   8.529  1.00  0.00     0.187 HD
HETATM    6  C8  UNL     1      -7.082 -19.685   8.603  1.00  0.00     0.245 C 
HETATM    7  O1  UNL     1      -7.594 -20.664   7.960  1.00  0.00    -0.272 OA
HETATM    8  N6  UNL     1      -6.425 -17.320   7.075  1.00  0.00    -0.222 N 
ATOM      9  H6  UNL     1      -6.982 -16.810   7.761  1.00  0.00     0.178 HD
ENDROOT
BRANCH   6  10
HETATM   10  C9  UNL     1      -7.897 -19.076   9.658  1.00  0.00     0.184 C 
BRANCH  10  11
HETATM   11  S1  UNL     1      -6.992 -18.732  11.175  1.00  0.00    -0.101 SA
BRANCH  11  12
HETATM   12  C10 UNL     1      -5.998 -17.263  10.997  1.00  0.00     0.098 A 
HETATM   13  N4  UNL     1      -4.657 -17.277  11.144  1.00  0.00    -0.348 N 
HETATM   14  C11 UNL     1      -4.153 -16.046  10.968  1.00  0.00     0.045 A 
ATOM     15  H4  UNL     1      -4.104 -18.107  11.358  1.00  0.00     0.166 HD
HETATM   16  C12 UNL     1      -2.822 -15.703  11.047  1.00  0.00     0.033 C 
HETATM   17  C17 UNL     1      -5.309 -15.207  10.688  1.00  0.00     0.023 A 
HETATM   18  C13 UNL     1      -2.249 -14.452  10.952  1.00  0.00     0.048 C 
HETATM   19  C14 UNL     1      -2.869 -13.256  10.575  1.00  0.00     0.154 C 
HETATM   20  F1  UNL     1      -2.052 -12.196  10.409  1.00  0.00    -0.203 F 
HETATM   21  C15 UNL     1      -4.214 -13.022  10.351  1.00  0.00     0.155 C 
HETATM   22  F2  UNL     1      -4.509 -11.748   9.983  1.00  0.00    -0.203 F 
HETATM   23  C16 UNL     1      -5.318 -13.864  10.438  1.00  0.00     0.061 C 
HETATM   24  C18 UNL     1      -6.466 -16.004  10.713  1.00  0.00     0.075 A 
BRANCH  24  25
HETATM   25  N5  UNL     1      -7.793 -15.559  10.482  1.00  0.00    -0.382 N 
ATOM     26  H5  UNL     1      -8.321 -15.132  11.242  1.00  0.00     0.160 HD
BRANCH  25  27
HETATM   27  C19 UNL     1      -8.401 -15.705   9.186  1.00  0.00     0.082 C 
HETATM   28  C20 UNL     1      -8.147 -14.532   8.272  1.00  0.00     0.025 C 
HETATM   29  C21 UNL     1      -9.422 -13.850   7.853  1.00  0.00     0.002 C 
HETATM   30  C22 UNL     1     -10.472 -14.731   7.291  1.00  0.00     0.000 C 
HETATM   31  C23 UNL     1     -10.357 -16.129   7.839  1.00  0.00     0.002 C 
HETATM   32  C24 UNL     1      -9.886 -15.991   9.295  1.00  0.00     0.025 C 
ENDBRANCH  25  27
ENDBRANCH  24  25
ENDBRANCH  11  12
ENDBRANCH  10  11
ENDBRANCH   6  10
BRANCH   1  33
HETATM   33  C6  UNL     1      -3.345 -18.621   6.233  1.00  0.00     0.138 C 
BRANCH  33  34
HETATM   34  C5  UNL     1      -3.151 -17.845   5.002  1.00  0.00     0.020 C 
BRANCH  34  35
HETATM   35  C4  UNL     1      -1.843 -17.228   4.737  1.00  0.00     0.002 C 
BRANCH  35  36
HETATM   36  C3  UNL     1      -1.417 -15.977   5.386  1.00  0.00     0.002 C 
BRANCH  36  37
HETATM   37  C2  UNL     1      -2.457 -15.043   5.900  1.00  0.00     0.027 C 
BRANCH  37  38
HETATM   38  C1  UNL     1      -2.158 -14.837   7.405  1.00  0.00     0.229 C 
BRANCH  38  39
HETATM   39  N1  UNL     1      -1.355 -15.962   7.846  1.00  0.00    -0.079 N 
ATOM     40  H13 UNL     1      -1.673 -16.853   7.465  1.00  0.00     0.274 HD
ATOM     41  H12 UNL     1      -0.421 -15.969   7.437  1.00  0.00     0.274 HD
ATOM     42  H11 UNL     1      -1.342 -15.947   8.866  1.00  0.00     0.274 HD
ENDBRANCH  38  39
ENDBRANCH  37  38
ENDBRANCH  36  37
ENDBRANCH  35  36
ENDBRANCH  34  35
ENDBRANCH  33  34
ENDBRANCH   1  33
BRANCH   8  43
HETATM   43  C25 UNL     1      -6.657 -17.039   5.677  1.00  0.00     0.099 C 
HETATM   44  C26 UNL     1      -8.066 -17.294   5.238  1.00  0.00     0.026 C 
HETATM   45  C27 UNL     1      -8.626 -16.233   4.338  1.00  0.00     0.002 C 
HETATM   46  C28 UNL     1      -7.553 -15.916   3.308  1.00  0.00     0.000 C 
HETATM   47  C29 UNL     1      -6.487 -15.137   4.035  1.00  0.00     0.002 C 
HETATM   48  C30 UNL     1      -6.129 -15.696   5.360  1.00  0.00     0.026 C 
ENDBRANCH   8  43
TORSDOF 13
ENDMDL
MODEL 4
REMARK VINA RESULT: -7.831127600      2.912      6.861
REMARK  13 active torsions:
REMARK  status: ('A' for Active; 'I' for Inactive)
REMARK    1  A    between atoms: N1_1  and  C1_5 
REMARK    2  A    between atoms: C1_5  and  C2_6 
REMARK    3  A    between atoms: C2_6  and  C3_7 
REMARK    4  A    between atoms: C3_7  and  C4_8 
REMARK    5  A    between atoms: C4_8  and  C5_9 
REMARK    6  A    between atoms: C5_9  and  C6_10 
REMARK    7  A    between atoms: C6_10  and  N2_11 
REMARK       I    between atoms: N2_11  and  C7_13 
REMARK       I    between atoms: C7_13  and  N6_41 
REMARK       I    between atoms: N3_14  and  C8_16 
REMARK    8  A    between atoms: C8_16  and  C9_18 
REMARK    9  A    between atoms: C9_18  and  S1_19 
REMARK   10  A    between atoms: S1_19  and  C10_20 
REMARK   11  A    between atoms: C18_32  and  N5_33 
REMARK   12  A    between atoms: N5_33  and  C19_35 
REMARK   13  A    between atoms: N6_41  and  C25_43 
ROOT
HETATM    1  N2  UNL     1      -2.967 -20.374   8.616  1.00  0.00    -0.226 N 
ATOM      2  H2  UNL     1      -2.489 -20.229   9.506  1.00  0.00     0.177 HD
HETATM    3  C7  UNL     1      -4.131 -19.601   8.384  1.00  0.00     0.676 C 
HETATM    4  N3  UNL     1      -5.269 -20.148   8.604  1.00  0.00    -0.159 N 
ATOM      5  H3  UNL     1      -5.261 -21.112   8.936  1.00  0.00     0.187 HD
HETATM    6  C8  UNL     1      -6.522 -19.547   8.434  1.00  0.00     0.245 C 
HETATM    7  O1  UNL     1      -7.200 -19.909   7.413  1.00  0.00    -0.272 OA
HETATM    8  N6  UNL     1      -3.975 -18.276   7.926  1.00  0.00    -0.222 N 
ATOM      9  H6  UNL     1      -4.313 -17.522   8.525  1.00  0.00     0.178 HD
ENDROOT
BRANCH   6  10
HETATM   10  C9  UNL     1      -7.123 -18.543   9.317  1.00  0.00     0.184 C 
BRANCH  10  11
HETATM   11  S1  UNL     1      -6.216 -18.279  10.848  1.00  0.00    -0.101 SA
BRANCH  11  12
HETATM   12  C10 UNL     1      -5.310 -16.745  10.789  1.00  0.00     0.098 A 
HETATM   13  N4  UNL     1      -3.964 -16.699  10.875  1.00  0.00    -0.348 N 
HETATM   14  C11 UNL     1      -3.535 -15.429  10.812  1.00  0.00     0.045 A 
ATOM     15  H4  UNL     1      -3.359 -17.513  10.973  1.00  0.00     0.166 HD
HETATM   16  C12 UNL     1      -2.221 -15.020  10.870  1.00  0.00     0.033 C 
HETATM   17  C17 UNL     1      -4.746 -14.632  10.676  1.00  0.00     0.023 A 
HETATM   18  C13 UNL     1      -1.719 -13.736  10.886  1.00  0.00     0.048 C 
HETATM   19  C14 UNL     1      -2.419 -12.544  10.670  1.00  0.00     0.154 C 
HETATM   20  F1  UNL     1      -1.668 -11.427  10.584  1.00  0.00    -0.203 F 
HETATM   21  C15 UNL     1      -3.784 -12.364  10.532  1.00  0.00     0.155 C 
HETATM   22  F2  UNL     1      -4.162 -11.078  10.318  1.00  0.00    -0.203 F 
HETATM   23  C16 UNL     1      -4.836 -13.273  10.575  1.00  0.00     0.061 C 
HETATM   24  C18 UNL     1      -5.856 -15.492  10.664  1.00  0.00     0.075 A 
BRANCH  24  25
HETATM   25  N5  UNL     1      -7.214 -15.102  10.542  1.00  0.00    -0.382 N 
ATOM     26  H5  UNL     1      -7.660 -14.581  11.296  1.00  0.00     0.160 HD
BRANCH  25  27
HETATM   27  C19 UNL     1      -7.970 -15.435   9.363  1.00  0.00     0.082 C 
HETATM   28  C20 UNL     1      -7.764 -14.462   8.227  1.00  0.00     0.025 C 
HETATM   29  C21 UNL     1      -9.043 -13.781   7.821  1.00  0.00     0.002 C 
HETATM   30  C22 UNL     1     -10.191 -14.675   7.540  1.00  0.00     0.000 C 
HETATM   31  C23 UNL     1     -10.083 -15.958   8.323  1.00  0.00     0.002 C 
HETATM   32  C24 UNL     1      -9.446 -15.595   9.673  1.00  0.00     0.025 C 
ENDBRANCH  25  27
ENDBRANCH  24  25
ENDBRANCH  11  12
ENDBRANCH  10  11
ENDBRANCH   6  10
BRANCH   1  33
HETATM   33  C6  UNL     1      -2.396 -21.336   7.730  1.00  0.00     0.138 C 
BRANCH  33  34
HETATM   34  C5  UNL     1      -1.979 -22.622   8.301  1.00  0.00     0.020 C 
BRANCH  34  35
HETATM   35  C4  UNL     1      -0.586 -23.064   8.141  1.00  0.00     0.002 C 
BRANCH  35  36
HETATM   36  C3  UNL     1       0.383 -23.028   9.250  1.00  0.00     0.002 C 
BRANCH  36  37
HETATM   37  C2  UNL     1       1.129 -21.767   9.514  1.00  0.00     0.027 C 
BRANCH  37  38
HETATM   38  C1  UNL     1       0.369 -21.035  10.648  1.00  0.00     0.229 C 
BRANCH  38  39
HETATM   39  N1  UNL     1       0.771 -19.642  10.611  1.00  0.00    -0.079 N 
ATOM     40  H13 UNL     1       1.392 -19.426   9.831  1.00  0.00     0.274 HD
ATOM     41  H12 UNL     1       0.010 -19.014  10.352  1.00  0.00     0.274 HD
ATOM     42  H11 UNL     1       1.180 -19.418  11.518  1.00  0.00     0.274 HD
ENDBRANCH  38  39
ENDBRANCH  37  38
ENDBRANCH  36  37
ENDBRANCH  35  36
ENDBRANCH  34  35
ENDBRANCH  33  34
ENDBRANCH   1  33
BRANCH   8  43
HETATM   43  C25 UNL     1      -3.367 -17.914   6.666  1.00  0.00     0.099 C 
HETATM   44  C26 UNL     1      -4.278 -18.081   5.489  1.00  0.00     0.026 C 
HETATM   45  C27 UNL     1      -4.217 -16.951   4.505  1.00  0.00     0.002 C 
HETATM   46  C28 UNL     1      -2.746 -16.631   4.290  1.00  0.00     0.000 C 
HETATM   47  C29 UNL     1      -2.277 -15.940   5.544  1.00  0.00     0.002 C 
HETATM   48  C30 UNL     1      -2.741 -16.581   6.797  1.00  0.00     0.026 C 
ENDBRANCH   8  43
TORSDOF 13
ENDMDL
MODEL 5
REMARK VINA RESULT: -7.692157756      2.509      4.643
REMARK  13 active torsions:
REMARK  status: ('A' for Active; 'I' for Inactive)
REMARK    1  A    between atoms: N1_1  and  C1_5 
REMARK    2  A    between atoms: C1_5  and  C2_6 
REMARK    3  A    between atoms: C2_6  and  C3_7 
REMARK    4  A    between atoms: C3_7  and  C4_8 
REMARK    5  A    between atoms: C4_8  and  C5_9 
REMARK    6  A    between atoms: C5_9  and  C6_10 
REMARK    7  A    between atoms: C6_10  and  N2_11 
REMARK       I    between atoms: N2_11  and  C7_13 
REMARK       I    between atoms: C7_13  and  N6_41 
REMARK       I    between atoms: N3_14  and  C8_16 
REMARK    8  A    between atoms: C8_16  and  C9_18 
REMARK    9  A    between atoms: C9_18  and  S1_19 
REMARK   10  A    between atoms: S1_19  and  C10_20 
REMARK   11  A    between atoms: C18_32  and  N5_33 
REMARK   12  A    between atoms: N5_33  and  C19_35 
REMARK   13  A    between atoms: N6_41  and  C25_43 
ROOT
HETATM    1  N2  UNL     1      -2.791 -17.402   6.297  1.00  0.00    -0.226 N 
ATOM      2  H2  UNL     1      -2.239 -16.650   6.711  1.00  0.00     0.177 HD
HETATM    3  C7  UNL     1      -3.492 -18.247   7.193  1.00  0.00     0.676 C 
HETATM    4  N3  UNL     1      -2.960 -19.373   7.496  1.00  0.00    -0.159 N 
ATOM      5  H3  UNL     1      -2.059 -19.588   7.069  1.00  0.00     0.187 HD
HETATM    6  C8  UNL     1      -3.498 -20.335   8.360  1.00  0.00     0.245 C 
HETATM    7  O1  UNL     1      -3.998 -21.379   7.817  1.00  0.00    -0.272 OA
HETATM    8  N6  UNL     1      -4.731 -17.804   7.702  1.00  0.00    -0.222 N 
ATOM      9  H6  UNL     1      -4.808 -17.663   8.709  1.00  0.00     0.178 HD
ENDROOT
BRANCH   6  10
HETATM   10  C9  UNL     1      -3.539 -20.254   9.823  1.00  0.00     0.184 C 
BRANCH  10  11
HETATM   11  S1  UNL     1      -2.041 -19.582  10.560  1.00  0.00    -0.101 SA
BRANCH  11  12
HETATM   12  C10 UNL     1      -2.053 -17.801  10.503  1.00  0.00     0.098 A 
HETATM   13  N4  UNL     1      -1.042 -17.090   9.962  1.00  0.00    -0.348 N 
HETATM   14  C11 UNL     1      -1.294 -15.775  10.053  1.00  0.00     0.045 A 
ATOM     15  H4  UNL     1      -0.205 -17.494   9.543  1.00  0.00     0.166 HD
HETATM   16  C12 UNL     1      -0.474 -14.766   9.601  1.00  0.00     0.033 C 
HETATM   17  C17 UNL     1      -2.587 -15.687  10.717  1.00  0.00     0.023 A 
HETATM   18  C13 UNL     1      -0.636 -13.403   9.728  1.00  0.00     0.048 C 
HETATM   19  C14 UNL     1      -1.764 -12.718  10.194  1.00  0.00     0.154 C 
HETATM   20  F1  UNL     1      -1.728 -11.374  10.074  1.00  0.00    -0.203 F 
HETATM   21  C15 UNL     1      -2.912 -13.242  10.761  1.00  0.00     0.155 C 
HETATM   22  F2  UNL     1      -3.842 -12.315  11.104  1.00  0.00    -0.203 F 
HETATM   23  C16 UNL     1      -3.277 -14.554  11.041  1.00  0.00     0.061 C 
HETATM   24  C18 UNL     1      -3.045 -16.987  10.991  1.00  0.00     0.075 A 
BRANCH  24  25
HETATM   25  N5  UNL     1      -4.268 -17.326  11.625  1.00  0.00    -0.382 N 
ATOM     26  H5  UNL     1      -4.274 -17.555  12.618  1.00  0.00     0.160 HD
BRANCH  25  27
HETATM   27  C19 UNL     1      -5.499 -17.349  10.879  1.00  0.00     0.082 C 
HETATM   28  C20 UNL     1      -6.298 -16.075  11.006  1.00  0.00     0.025 C 
HETATM   29  C21 UNL     1      -7.653 -16.311  11.617  1.00  0.00     0.002 C 
HETATM   30  C22 UNL     1      -8.469 -17.378  10.991  1.00  0.00     0.000 C 
HETATM   31  C23 UNL     1      -7.593 -18.424  10.351  1.00  0.00     0.002 C 
HETATM   32  C24 UNL     1      -6.346 -18.554  11.240  1.00  0.00     0.025 C 
ENDBRANCH  25  27
ENDBRANCH  24  25
ENDBRANCH  11  12
ENDBRANCH  10  11
ENDBRANCH   6  10
BRANCH   1  33
HETATM   33  C6  UNL     1      -2.781 -17.498   4.874  1.00  0.00     0.138 C 
BRANCH  33  34
HETATM   34  C5  UNL     1      -2.974 -16.260   4.109  1.00  0.00     0.020 C 
BRANCH  34  35
HETATM   35  C4  UNL     1      -4.151 -15.421   4.378  1.00  0.00     0.002 C 
BRANCH  35  36
HETATM   36  C3  UNL     1      -5.510 -15.822   3.980  1.00  0.00     0.002 C 
BRANCH  36  37
HETATM   37  C2  UNL     1      -6.594 -14.800   3.990  1.00  0.00     0.027 C 
BRANCH  37  38
HETATM   38  C1  UNL     1      -7.556 -15.166   2.834  1.00  0.00     0.229 C 
BRANCH  38  39
HETATM   39  N1  UNL     1      -7.601 -14.032   1.930  1.00  0.00    -0.079 N 
ATOM     40  H13 UNL     1      -6.779 -13.432   2.003  1.00  0.00     0.274 HD
ATOM     41  H12 UNL     1      -7.484 -14.297   0.952  1.00  0.00     0.274 HD
ATOM     42  H11 UNL     1      -8.474 -13.536   2.107  1.00  0.00     0.274 HD
ENDBRANCH  38  39
ENDBRANCH  37  38
ENDBRANCH  36  37
ENDBRANCH  35  36
ENDBRANCH  34  35
ENDBRANCH  33  34
ENDBRANCH   1  33
BRANCH   8  43
HETATM   43  C25 UNL     1      -5.897 -17.537   6.892  1.00  0.00     0.099 C 
HETATM   44  C26 UNL     1      -6.684 -18.763   6.547  1.00  0.00     0.026 C 
HETATM   45  C27 UNL     1      -8.169 -18.588   6.663  1.00  0.00     0.002 C 
HETATM   46  C28 UNL     1      -8.508 -17.257   6.010  1.00  0.00     0.000 C 
HETATM   47  C29 UNL     1      -8.024 -16.189   6.955  1.00  0.00     0.002 C 
HETATM   48  C30 UNL     1      -6.673 -16.441   7.511  1.00  0.00     0.026 C 
ENDBRANCH   8  43
TORSDOF 13
ENDMDL
