MODEL 1
REMARK VINA RESULT: -9.733676491      0.000      0.000
REMARK  2 active torsions:
REMARK  status: ('A' for Active; 'I' for Inactive)
REMARK    1  A    between atoms: C2_3  and  N1_4 
REMARK    2  A    between atoms: N2_7  and  C5_8 
ROOT
HETATM    1  N1  UNL     1      43.409  63.160  82.595  1.00  0.00    -0.380 N 
HETATM    2  C3  UNL     1      43.961  63.207  83.948  1.00  0.00     0.153 C 
HETATM    3  C4  UNL     1      45.062  62.155  84.093  1.00  0.00     0.292 C 
HETATM    4  N2  UNL     1      46.002  62.422  83.021  1.00  0.00     0.096 N 
HETATM    5  C13 UNL     1      45.408  61.998  81.797  1.00  0.00     0.292 C 
HETATM    6  C14 UNL     1      44.325  63.035  81.450  1.00  0.00     0.153 C 
ENDROOT
BRANCH   1   7
HETATM    7  C2  UNL     1      42.026  63.213  82.347  1.00  0.00     0.025 C 
HETATM    8  C1  UNL     1      41.466  64.401  82.322  1.00  0.00     0.034 C 
HETATM    9 CL1  UNL     1      42.560  65.734  82.606  1.00  0.00    -0.087 Cl
HETATM   10  C19 UNL     1      40.022  64.777  82.087  1.00  0.00     0.053 C 
HETATM   11  C18 UNL     1      39.646  64.298  80.716  1.00  0.00     0.006 C 
HETATM   12  C17 UNL     1      39.333  62.819  80.817  1.00  0.00     0.001 C 
HETATM   13  C16 UNL     1      40.577  61.970  80.782  1.00  0.00     0.006 C 
HETATM   14  C15 UNL     1      41.291  61.930  82.121  1.00  0.00     0.058 C 
ENDBRANCH   1   7
BRANCH   4  15
HETATM   15  C5  UNL     1      47.330  61.977  83.268  1.00  0.00     0.223 C 
HETATM   16  C6  UNL     1      47.377  60.484  83.471  1.00  0.00     0.036 C 
HETATM   17  C7  UNL     1      48.487  60.070  84.408  1.00  0.00     0.002 C 
HETATM   18  C8  UNL     1      49.611  59.435  83.607  1.00  0.00     0.000 C 
HETATM   19  C9  UNL     1      50.679  60.458  83.365  1.00  0.00     0.000 C 
HETATM   20  C10 UNL     1      50.431  61.341  82.186  1.00  0.00     0.000 C 
HETATM   21  C11 UNL     1      49.643  62.588  82.525  1.00  0.00     0.002 C 
HETATM   22  C12 UNL     1      48.202  62.422  82.117  1.00  0.00     0.036 C 
ENDBRANCH   4  15
TORSDOF 2
ENDMDL
MODEL 2
REMARK VINA RESULT: -9.600838650      1.308      1.691
REMARK  2 active torsions:
REMARK  status: ('A' for Active; 'I' for Inactive)
REMARK    1  A    between atoms: C2_3  and  N1_4 
REMARK    2  A    between atoms: N2_7  and  C5_8 
ROOT
HETATM    1  N1  UNL     1      43.381  63.150  81.978  1.00  0.00    -0.380 N 
HETATM    2  C3  UNL     1      44.154  62.951  83.202  1.00  0.00     0.153 C 
HETATM    3  C4  UNL     1      45.244  61.904  82.960  1.00  0.00     0.292 C 
HETATM    4  N2  UNL     1      45.993  62.378  81.813  1.00  0.00     0.096 N 
HETATM    5  C13 UNL     1      45.192  62.182  80.650  1.00  0.00     0.292 C 
HETATM    6  C14 UNL     1      44.087  63.253  80.690  1.00  0.00     0.153 C 
ENDROOT
BRANCH   1   7
HETATM    7  C2  UNL     1      41.977  63.231  81.983  1.00  0.00     0.025 C 
HETATM    8  C1  UNL     1      41.445  64.405  82.236  1.00  0.00     0.034 C 
HETATM    9 CL1  UNL     1      42.597  65.686  82.527  1.00  0.00    -0.087 Cl
HETATM   10  C19 UNL     1      39.989  64.803  82.313  1.00  0.00     0.053 C 
HETATM   11  C18 UNL     1      39.375  64.537  80.970  1.00  0.00     0.006 C 
HETATM   12  C17 UNL     1      39.055  63.058  80.897  1.00  0.00     0.001 C 
HETATM   13  C16 UNL     1      40.257  62.233  80.520  1.00  0.00     0.006 C 
HETATM   14  C15 UNL     1      41.189  61.993  81.693  1.00  0.00     0.058 C 
ENDBRANCH   1   7
BRANCH   4  15
HETATM   15  C5  UNL     1      47.335  61.911  81.743  1.00  0.00     0.223 C 
HETATM   16  C6  UNL     1      47.754  61.664  80.317  1.00  0.00     0.036 C 
HETATM   17  C7  UNL     1      48.769  60.552  80.205  1.00  0.00     0.002 C 
HETATM   18  C8  UNL     1      50.138  61.146  79.916  1.00  0.00     0.000 C 
HETATM   19  C9  UNL     1      50.911  61.242  81.196  1.00  0.00     0.000 C 
HETATM   20  C10 UNL     1      50.624  62.468  81.999  1.00  0.00     0.000 C 
HETATM   21  C11 UNL     1      49.482  62.292  82.977  1.00  0.00     0.002 C 
HETATM   22  C12 UNL     1      48.226  62.920  82.431  1.00  0.00     0.036 C 
ENDBRANCH   4  15
TORSDOF 2
ENDMDL
MODEL 3
REMARK VINA RESULT: -9.263716600      1.454      2.126
REMARK  2 active torsions:
REMARK  status: ('A' for Active; 'I' for Inactive)
REMARK    1  A    between atoms: C2_3  and  N1_4 
REMARK    2  A    between atoms: N2_7  and  C5_8 
ROOT
HETATM    1  N1  UNL     1      42.935  62.518  81.389  1.00  0.00    -0.380 N 
HETATM    2  C3  UNL     1      43.610  62.680  80.103  1.00  0.00     0.153 C 
HETATM    3  C4  UNL     1      45.011  63.253  80.325  1.00  0.00     0.292 C 
HETATM    4  N2  UNL     1      45.656  62.356  81.264  1.00  0.00     0.096 N 
HETATM    5  C13 UNL     1      45.086  62.581  82.551  1.00  0.00     0.292 C 
HETATM    6  C14 UNL     1      43.680  61.953  82.526  1.00  0.00     0.153 C 
ENDROOT
BRANCH   1   7
HETATM    7  C2  UNL     1      41.595  62.898  81.586  1.00  0.00     0.025 C 
HETATM    8  C1  UNL     1      41.375  64.120  82.014  1.00  0.00     0.034 C 
HETATM    9 CL1  UNL     1      42.813  65.080  82.267  1.00  0.00    -0.087 Cl
HETATM   10  C19 UNL     1      40.066  64.809  82.318  1.00  0.00     0.053 C 
HETATM   11  C18 UNL     1      39.265  64.843  81.049  1.00  0.00     0.006 C 
HETATM   12  C17 UNL     1      38.611  63.486  80.884  1.00  0.00     0.001 C 
HETATM   13  C16 UNL     1      39.546  62.474  80.277  1.00  0.00     0.006 C 
HETATM   14  C15 UNL     1      40.520  61.901  81.291  1.00  0.00     0.058 C 
ENDBRANCH   1   7
BRANCH   4  15
HETATM   15  C5  UNL     1      47.077  62.342  81.195  1.00  0.00     0.223 C 
HETATM   16  C6  UNL     1      47.691  62.395  82.570  1.00  0.00     0.036 C 
HETATM   17  C7  UNL     1      49.028  63.096  82.572  1.00  0.00     0.002 C 
HETATM   18  C8  UNL     1      50.136  62.068  82.726  1.00  0.00     0.000 C 
HETATM   19  C9  UNL     1      50.703  61.752  81.375  1.00  0.00     0.000 C 
HETATM   20  C10 UNL     1      49.943  60.716  80.614  1.00  0.00     0.000 C 
HETATM   21  C11 UNL     1      48.838  61.294  79.755  1.00  0.00     0.002 C 
HETATM   22  C12 UNL     1      47.503  61.111  80.429  1.00  0.00     0.036 C 
ENDBRANCH   4  15
TORSDOF 2
ENDMDL
MODEL 4
REMARK VINA RESULT: -9.219967563      0.698      1.604
REMARK  2 active torsions:
REMARK  status: ('A' for Active; 'I' for Inactive)
REMARK    1  A    between atoms: C2_3  and  N1_4 
REMARK    2  A    between atoms: N2_7  and  C5_8 
ROOT
HETATM    1  N1  UNL     1      43.134  62.974  82.179  1.00  0.00    -0.380 N 
HETATM    2  C3  UNL     1      43.779  62.809  83.481  1.00  0.00     0.153 C 
HETATM    3  C4  UNL     1      44.818  61.689  83.402  1.00  0.00     0.292 C 
HETATM    4  N2  UNL     1      45.697  62.047  82.306  1.00  0.00     0.096 N 
HETATM    5  C13 UNL     1      44.995  61.824  81.086  1.00  0.00     0.292 C 
HETATM    6  C14 UNL     1      43.960  62.956  80.960  1.00  0.00     0.153 C 
ENDROOT
BRANCH   1   7
HETATM    7  C2  UNL     1      41.743  63.136  82.046  1.00  0.00     0.025 C 
HETATM    8  C1  UNL     1      41.259  64.342  82.232  1.00  0.00     0.034 C 
HETATM    9 CL1  UNL     1      42.450  65.561  82.618  1.00  0.00    -0.087 Cl
HETATM   10  C19 UNL     1      39.829  64.824  82.163  1.00  0.00     0.053 C 
HETATM   11  C18 UNL     1      39.331  64.570  80.770  1.00  0.00     0.006 C 
HETATM   12  C17 UNL     1      38.934  63.110  80.685  1.00  0.00     0.001 C 
HETATM   13  C16 UNL     1      40.117  62.212  80.436  1.00  0.00     0.006 C 
HETATM   14  C15 UNL     1      40.916  61.939  81.697  1.00  0.00     0.058 C 
ENDBRANCH   1   7
BRANCH   4  15
HETATM   15  C5  UNL     1      47.008  61.501  82.390  1.00  0.00     0.223 C 
HETATM   16  C6  UNL     1      48.045  62.498  81.944  1.00  0.00     0.036 C 
HETATM   17  C7  UNL     1      49.249  61.832  81.322  1.00  0.00     0.002 C 
HETATM   18  C8  UNL     1      50.416  61.892  82.293  1.00  0.00     0.000 C 
HETATM   19  C9  UNL     1      50.515  60.587  83.023  1.00  0.00     0.000 C 
HETATM   20  C10 UNL     1      49.620  60.478  84.214  1.00  0.00     0.000 C 
HETATM   21  C11 UNL     1      48.251  59.922  83.886  1.00  0.00     0.002 C 
HETATM   22  C12 UNL     1      47.239  61.036  83.809  1.00  0.00     0.036 C 
ENDBRANCH   4  15
TORSDOF 2
ENDMDL
MODEL 5
REMARK VINA RESULT: -9.212245926      1.154      1.540
REMARK  2 active torsions:
REMARK  status: ('A' for Active; 'I' for Inactive)
REMARK    1  A    between atoms: C2_3  and  N1_4 
REMARK    2  A    between atoms: N2_7  and  C5_8 
ROOT
HETATM    1  N1  UNL     1      43.358  63.258  81.876  1.00  0.00    -0.380 N 
HETATM    2  C3  UNL     1      44.167  63.105  83.085  1.00  0.00     0.153 C 
HETATM    3  C4  UNL     1      45.269  62.074  82.839  1.00  0.00     0.292 C 
HETATM    4  N2  UNL     1      45.980  62.533  81.661  1.00  0.00     0.096 N 
HETATM    5  C13 UNL     1      45.153  62.293  80.525  1.00  0.00     0.292 C 
HETATM    6  C14 UNL     1      44.028  63.343  80.568  1.00  0.00     0.153 C 
ENDROOT
BRANCH   1   7
HETATM    7  C2  UNL     1      41.953  63.313  81.916  1.00  0.00     0.025 C 
HETATM    8  C1  UNL     1      41.405  64.474  82.193  1.00  0.00     0.034 C 
HETATM    9 CL1  UNL     1      42.539  65.775  82.468  1.00  0.00    -0.087 Cl
HETATM   10  C19 UNL     1      39.945  64.844  82.309  1.00  0.00     0.053 C 
HETATM   11  C18 UNL     1      39.302  64.578  80.980  1.00  0.00     0.006 C 
HETATM   12  C17 UNL     1      39.009  63.093  80.901  1.00  0.00     0.001 C 
HETATM   13  C16 UNL     1      40.217  62.295  80.487  1.00  0.00     0.006 C 
HETATM   14  C15 UNL     1      41.182  62.062  81.635  1.00  0.00     0.058 C 
ENDBRANCH   1   7
BRANCH   4  15
HETATM   15  C5  UNL     1      47.328  62.091  81.568  1.00  0.00     0.223 C 
HETATM   16  C6  UNL     1      48.035  62.207  82.893  1.00  0.00     0.036 C 
HETATM   17  C7  UNL     1      49.512  62.474  82.732  1.00  0.00     0.002 C 
HETATM   18  C8  UNL     1      50.291  61.211  83.060  1.00  0.00     0.000 C 
HETATM   19  C9  UNL     1      50.641  60.506  81.784  1.00  0.00     0.000 C 
HETATM   20  C10 UNL     1      49.562  59.620  81.254  1.00  0.00     0.000 C 
HETATM   21  C11 UNL     1      48.605  60.332  80.322  1.00  0.00     0.002 C 
HETATM   22  C12 UNL     1      47.328  60.672  81.046  1.00  0.00     0.036 C 
ENDBRANCH   4  15
TORSDOF 2
ENDMDL
