MODEL 1
REMARK VINA RESULT: -8.206121372      0.000      0.000
REMARK  5 active torsions:
REMARK  status: ('A' for Active; 'I' for Inactive)
REMARK    1  A    between atoms: C6_7  and  C7_8 
REMARK    2  A    between atoms: C8_9  and  C9_10 
REMARK    3  A    between atoms: C12_13  and  N1_14 
REMARK    4  A    between atoms: N1_14  and  C13_16 
REMARK    5  A    between atoms: C13_16  and  C14_17 
ROOT
HETATM    1  C9  UNL     1     -22.869   7.561 -15.983  1.00  0.00     0.033 A 
HETATM    2  C10 UNL     1     -23.135   7.135 -17.283  1.00  0.00     0.026 A 
HETATM    3  C11 UNL     1     -22.170   6.416 -17.968  1.00  0.00     0.050 A 
HETATM    4  C12 UNL     1     -20.959   6.116 -17.387  1.00  0.00     0.101 A 
HETATM    5  N3  UNL     1     -20.732   6.538 -16.136  1.00  0.00    -0.351 N 
ATOM      6  H3  UNL     1     -19.838   6.321 -15.696  1.00  0.00     0.166 HD
HETATM    7  C19 UNL     1     -21.651   7.243 -15.438  1.00  0.00     0.110 A 
ENDROOT
BRANCH   1   8
HETATM    8  C8  UNL     1     -23.863   8.307 -15.263  1.00  0.00    -0.060 C 
HETATM    9  C7  UNL     1     -24.715   8.926 -14.666  1.00  0.00    -0.058 C 
BRANCH   9  10
HETATM   10  C6  UNL     1     -25.753   9.649 -13.961  1.00  0.00     0.057 A 
HETATM   11  C5  UNL     1     -26.149   9.170 -12.733  1.00  0.00     0.135 A 
HETATM   12  C4  UNL     1     -27.125   9.826 -12.042  1.00  0.00     0.044 A 
HETATM   13  F1  UNL     1     -25.591   8.062 -12.200  1.00  0.00    -0.205 F 
HETATM   14  C3  UNL     1     -27.698  10.973 -12.601  1.00  0.00     0.010 A 
HETATM   15  C2  UNL     1     -27.297  11.450 -13.833  1.00  0.00    -0.060 A 
HETATM   16  C1  UNL     1     -27.917  12.683 -14.428  1.00  0.00     0.048 C 
HETATM   17  C20 UNL     1     -26.314  10.774 -14.512  1.00  0.00     0.030 A 
ENDBRANCH   9  10
ENDBRANCH   1   8
BRANCH   4  18
HETATM   18  N1  UNL     1     -20.034   5.454 -17.982  1.00  0.00    -0.372 N 
ATOM     19  H1  UNL     1     -19.090   5.832 -17.908  1.00  0.00     0.161 HD
BRANCH  18  20
HETATM   20  C13 UNL     1     -20.177   4.255 -18.732  1.00  0.00     0.161 C 
BRANCH  20  21
HETATM   21  C14 UNL     1     -19.015   3.943 -19.598  1.00  0.00    -0.025 A 
HETATM   22  C15 UNL     1     -19.001   2.817 -20.394  1.00  0.00     0.011 A 
HETATM   23  C16 UNL     1     -17.884   2.560 -21.198  1.00  0.00     0.018 A 
HETATM   24  C17 UNL     1     -16.804   3.412 -21.207  1.00  0.00     0.087 A 
HETATM   25  N2  UNL     1     -16.847   4.498 -20.422  1.00  0.00    -0.375 N 
HETATM   26  C18 UNL     1     -17.915   4.766 -19.636  1.00  0.00     0.096 A 
ATOM     27  H2  UNL     1     -16.054   5.139 -20.416  1.00  0.00     0.164 HD
ENDBRANCH  20  21
ENDBRANCH  18  20
ENDBRANCH   4  18
TORSDOF 5
ENDMDL
MODEL 2
REMARK VINA RESULT: -7.882342780      1.436      1.930
REMARK  5 active torsions:
REMARK  status: ('A' for Active; 'I' for Inactive)
REMARK    1  A    between atoms: C6_7  and  C7_8 
REMARK    2  A    between atoms: C8_9  and  C9_10 
REMARK    3  A    between atoms: C12_13  and  N1_14 
REMARK    4  A    between atoms: N1_14  and  C13_16 
REMARK    5  A    between atoms: C13_16  and  C14_17 
ROOT
HETATM    1  C9  UNL     1     -22.565   7.638 -16.606  1.00  0.00     0.033 A 
HETATM    2  C10 UNL     1     -22.818   6.994 -17.815  1.00  0.00     0.026 A 
HETATM    3  C11 UNL     1     -21.882   6.103 -18.313  1.00  0.00     0.050 A 
HETATM    4  C12 UNL     1     -20.712   5.846 -17.636  1.00  0.00     0.101 A 
HETATM    5  N3  UNL     1     -20.497   6.480 -16.475  1.00  0.00    -0.351 N 
ATOM      6  H3  UNL     1     -19.633   6.296 -15.965  1.00  0.00     0.166 HD
HETATM    7  C19 UNL     1     -21.389   7.356 -15.959  1.00  0.00     0.110 A 
ENDROOT
BRANCH   1   8
HETATM    8  C8  UNL     1     -23.529   8.564 -16.079  1.00  0.00    -0.060 C 
HETATM    9  C7  UNL     1     -24.353   9.328 -15.631  1.00  0.00    -0.058 C 
BRANCH   9  10
HETATM   10  C6  UNL     1     -25.354  10.223 -15.085  1.00  0.00     0.057 A 
HETATM   11  C5  UNL     1     -25.575  11.414 -15.737  1.00  0.00     0.135 A 
HETATM   12  C4  UNL     1     -26.509  12.280 -15.250  1.00  0.00     0.044 A 
HETATM   13  F1  UNL     1     -24.885  11.741 -16.851  1.00  0.00    -0.205 F 
HETATM   14  C3  UNL     1     -27.220  11.933 -14.097  1.00  0.00     0.010 A 
HETATM   15  C2  UNL     1     -26.994  10.737 -13.445  1.00  0.00    -0.060 A 
HETATM   16  C1  UNL     1     -27.761  10.370 -12.206  1.00  0.00     0.048 C 
HETATM   17  C20 UNL     1     -26.049   9.880 -13.953  1.00  0.00     0.030 A 
ENDBRANCH   9  10
ENDBRANCH   1   8
BRANCH   4  18
HETATM   18  N1  UNL     1     -19.816   5.031 -18.058  1.00  0.00    -0.372 N 
ATOM     19  H1  UNL     1     -18.864   5.199 -17.733  1.00  0.00     0.161 HD
BRANCH  18  20
HETATM   20  C13 UNL     1     -19.998   3.920 -18.926  1.00  0.00     0.161 C 
BRANCH  20  21
HETATM   21  C14 UNL     1     -18.843   3.653 -19.816  1.00  0.00    -0.025 A 
HETATM   22  C15 UNL     1     -18.791   2.517 -20.595  1.00  0.00     0.011 A 
HETATM   23  C16 UNL     1     -17.682   2.303 -21.423  1.00  0.00     0.018 A 
HETATM   24  C17 UNL     1     -16.646   3.208 -21.470  1.00  0.00     0.087 A 
HETATM   25  N2  UNL     1     -16.726   4.302 -20.700  1.00  0.00    -0.375 N 
HETATM   26  C18 UNL     1     -17.787   4.530 -19.893  1.00  0.00     0.096 A 
ATOM     27  H2  UNL     1     -15.966   4.982 -20.723  1.00  0.00     0.164 HD
ENDBRANCH  20  21
ENDBRANCH  18  20
ENDBRANCH   4  18
TORSDOF 5
ENDMDL
MODEL 3
REMARK VINA RESULT: -7.864599131      1.331      1.689
REMARK  5 active torsions:
REMARK  status: ('A' for Active; 'I' for Inactive)
REMARK    1  A    between atoms: C6_7  and  C7_8 
REMARK    2  A    between atoms: C8_9  and  C9_10 
REMARK    3  A    between atoms: C12_13  and  N1_14 
REMARK    4  A    between atoms: N1_14  and  C13_16 
REMARK    5  A    between atoms: C13_16  and  C14_17 
ROOT
HETATM    1  C9  UNL     1     -22.509   7.793 -16.891  1.00  0.00     0.033 A 
HETATM    2  C10 UNL     1     -22.692   7.113 -18.094  1.00  0.00     0.026 A 
HETATM    3  C11 UNL     1     -21.780   6.136 -18.460  1.00  0.00     0.050 A 
HETATM    4  C12 UNL     1     -20.705   5.829 -17.659  1.00  0.00     0.101 A 
HETATM    5  N3  UNL     1     -20.556   6.499 -16.509  1.00  0.00    -0.351 N 
ATOM      6  H3  UNL     1     -19.762   6.279 -15.908  1.00  0.00     0.166 HD
HETATM    7  C19 UNL     1     -21.426   7.459 -16.120  1.00  0.00     0.110 A 
ENDROOT
BRANCH   1   8
HETATM    8  C8  UNL     1     -23.448   8.808 -16.500  1.00  0.00    -0.060 C 
HETATM    9  C7  UNL     1     -24.248   9.661 -16.189  1.00  0.00    -0.058 C 
BRANCH   9  10
HETATM   10  C6  UNL     1     -25.220  10.677 -15.838  1.00  0.00     0.057 A 
HETATM   11  C5  UNL     1     -25.652  10.728 -14.533  1.00  0.00     0.135 A 
HETATM   12  C4  UNL     1     -26.568  11.671 -14.168  1.00  0.00     0.044 A 
HETATM   13  F1  UNL     1     -25.188   9.862 -13.606  1.00  0.00    -0.205 F 
HETATM   14  C3  UNL     1     -27.043  12.564 -15.133  1.00  0.00     0.010 A 
HETATM   15  C2  UNL     1     -26.608  12.508 -16.442  1.00  0.00    -0.060 A 
HETATM   16  C1  UNL     1     -27.123  13.470 -17.475  1.00  0.00     0.048 C 
HETATM   17  C20 UNL     1     -25.686  11.551 -16.788  1.00  0.00     0.030 A 
ENDBRANCH   9  10
ENDBRANCH   1   8
BRANCH   4  18
HETATM   18  N1  UNL     1     -19.835   4.934 -17.957  1.00  0.00    -0.372 N 
ATOM     19  H1  UNL     1     -18.932   5.008 -17.489  1.00  0.00     0.161 HD
BRANCH  18  20
HETATM   20  C13 UNL     1     -19.986   3.851 -18.865  1.00  0.00     0.161 C 
BRANCH  20  21
HETATM   21  C14 UNL     1     -18.828   3.654 -19.770  1.00  0.00    -0.025 A 
HETATM   22  C15 UNL     1     -18.737   2.544 -20.582  1.00  0.00     0.011 A 
HETATM   23  C16 UNL     1     -17.627   2.398 -21.422  1.00  0.00     0.018 A 
HETATM   24  C17 UNL     1     -16.628   3.344 -21.450  1.00  0.00     0.087 A 
HETATM   25  N2  UNL     1     -16.745   4.412 -20.649  1.00  0.00    -0.375 N 
HETATM   26  C18 UNL     1     -17.808   4.574 -19.828  1.00  0.00     0.096 A 
ATOM     27  H2  UNL     1     -16.012   5.122 -20.657  1.00  0.00     0.164 HD
ENDBRANCH  20  21
ENDBRANCH  18  20
ENDBRANCH   4  18
TORSDOF 5
ENDMDL
MODEL 4
REMARK VINA RESULT: -7.682513971      1.526      2.194
REMARK  5 active torsions:
REMARK  status: ('A' for Active; 'I' for Inactive)
REMARK    1  A    between atoms: C6_7  and  C7_8 
REMARK    2  A    between atoms: C8_9  and  C9_10 
REMARK    3  A    between atoms: C12_13  and  N1_14 
REMARK    4  A    between atoms: N1_14  and  C13_16 
REMARK    5  A    between atoms: C13_16  and  C14_17 
ROOT
HETATM    1  C9  UNL     1     -22.806   8.097 -16.401  1.00  0.00     0.033 A 
HETATM    2  C10 UNL     1     -21.615   7.954 -15.691  1.00  0.00     0.026 A 
HETATM    3  C11 UNL     1     -20.659   7.065 -16.154  1.00  0.00     0.050 A 
HETATM    4  C12 UNL     1     -20.865   6.326 -17.296  1.00  0.00     0.101 A 
HETATM    5  N3  UNL     1     -22.020   6.486 -17.957  1.00  0.00    -0.351 N 
ATOM      6  H3  UNL     1     -22.183   5.944 -18.805  1.00  0.00     0.166 HD
HETATM    7  C19 UNL     1     -22.976   7.345 -17.534  1.00  0.00     0.110 A 
ENDROOT
BRANCH   1   8
HETATM    8  C8  UNL     1     -23.805   9.018 -15.931  1.00  0.00    -0.060 C 
HETATM    9  C7  UNL     1     -24.660   9.778 -15.537  1.00  0.00    -0.058 C 
BRANCH   9  10
HETATM   10  C6  UNL     1     -25.701  10.668 -15.064  1.00  0.00     0.057 A 
HETATM   11  C5  UNL     1     -25.940  11.815 -15.785  1.00  0.00     0.135 A 
HETATM   12  C4  UNL     1     -26.913  12.676 -15.368  1.00  0.00     0.044 A 
HETATM   13  F1  UNL     1     -25.231  12.105 -16.897  1.00  0.00    -0.205 F 
HETATM   14  C3  UNL     1     -27.643  12.368 -14.215  1.00  0.00     0.010 A 
HETATM   15  C2  UNL     1     -27.398  11.216 -13.495  1.00  0.00    -0.060 A 
HETATM   16  C1  UNL     1     -28.186  10.891 -12.258  1.00  0.00     0.048 C 
HETATM   17  C20 UNL     1     -26.415  10.363 -13.933  1.00  0.00     0.030 A 
ENDBRANCH   9  10
ENDBRANCH   1   8
BRANCH   4  18
HETATM   18  N1  UNL     1     -20.010   5.490 -17.761  1.00  0.00    -0.372 N 
ATOM     19  H1  UNL     1     -19.045   5.614 -17.456  1.00  0.00     0.161 HD
BRANCH  18  20
HETATM   20  C13 UNL     1     -20.255   4.411 -18.653  1.00  0.00     0.161 C 
BRANCH  20  21
HETATM   21  C14 UNL     1     -19.096   4.057 -19.506  1.00  0.00    -0.025 A 
HETATM   22  C15 UNL     1     -19.100   2.914 -20.277  1.00  0.00     0.011 A 
HETATM   23  C16 UNL     1     -17.984   2.618 -21.070  1.00  0.00     0.018 A 
HETATM   24  C17 UNL     1     -16.888   3.448 -21.092  1.00  0.00     0.087 A 
HETATM   25  N2  UNL     1     -16.914   4.552 -20.331  1.00  0.00    -0.375 N 
HETATM   26  C18 UNL     1     -17.980   4.858 -19.557  1.00  0.00     0.096 A 
ATOM     27  H2  UNL     1     -16.109   5.177 -20.336  1.00  0.00     0.164 HD
ENDBRANCH  20  21
ENDBRANCH  18  20
ENDBRANCH   4  18
TORSDOF 5
ENDMDL
MODEL 5
REMARK VINA RESULT: -7.606609109      3.285     10.465
REMARK  5 active torsions:
REMARK  status: ('A' for Active; 'I' for Inactive)
REMARK    1  A    between atoms: C6_7  and  C7_8 
REMARK    2  A    between atoms: C8_9  and  C9_10 
REMARK    3  A    between atoms: C12_13  and  N1_14 
REMARK    4  A    between atoms: N1_14  and  C13_16 
REMARK    5  A    between atoms: C13_16  and  C14_17 
ROOT
HETATM    1  C9  UNL     1     -21.377   6.679 -17.393  1.00  0.00     0.033 A 
HETATM    2  C10 UNL     1     -20.737   7.263 -16.301  1.00  0.00     0.026 A 
HETATM    3  C11 UNL     1     -21.388   8.262 -15.596  1.00  0.00     0.050 A 
HETATM    4  C12 UNL     1     -22.648   8.683 -15.953  1.00  0.00     0.101 A 
HETATM    5  N3  UNL     1     -23.237   8.102 -17.007  1.00  0.00    -0.351 N 
ATOM      6  H3  UNL     1     -24.172   8.406 -17.280  1.00  0.00     0.166 HD
HETATM    7  C19 UNL     1     -22.632   7.124 -17.719  1.00  0.00     0.110 A 
ENDROOT
BRANCH   1   8
HETATM    8  C8  UNL     1     -20.713   5.641 -18.133  1.00  0.00    -0.060 C 
HETATM    9  C7  UNL     1     -20.171   4.760 -18.762  1.00  0.00    -0.058 C 
BRANCH   9  10
HETATM   10  C6  UNL     1     -19.546   3.700 -19.526  1.00  0.00     0.057 A 
HETATM   11  C5  UNL     1     -18.290   3.933 -20.038  1.00  0.00     0.135 A 
HETATM   12  C4  UNL     1     -17.672   2.957 -20.764  1.00  0.00     0.044 A 
HETATM   13  F1  UNL     1     -17.658   5.109 -19.836  1.00  0.00    -0.205 F 
HETATM   14  C3  UNL     1     -18.333   1.742 -20.968  1.00  0.00     0.010 A 
HETATM   15  C2  UNL     1     -19.594   1.514 -20.453  1.00  0.00    -0.060 A 
HETATM   16  C1  UNL     1     -20.300   0.206 -20.676  1.00  0.00     0.048 C 
HETATM   17  C20 UNL     1     -20.198   2.509 -19.726  1.00  0.00     0.030 A 
ENDBRANCH   9  10
ENDBRANCH   1   8
BRANCH   4  18
HETATM   18  N1  UNL     1     -23.288   9.604 -15.331  1.00  0.00    -0.372 N 
ATOM     19  H1  UNL     1     -22.777  10.468 -15.153  1.00  0.00     0.161 HD
BRANCH  18  20
HETATM   20  C13 UNL     1     -24.629   9.558 -14.862  1.00  0.00     0.161 C 
BRANCH  20  21
HETATM   21  C14 UNL     1     -25.438  10.745 -15.228  1.00  0.00    -0.025 A 
HETATM   22  C15 UNL     1     -26.415  11.230 -14.384  1.00  0.00     0.011 A 
HETATM   23  C16 UNL     1     -27.155  12.355 -14.768  1.00  0.00     0.018 A 
HETATM   24  C17 UNL     1     -26.923  12.983 -15.969  1.00  0.00     0.087 A 
HETATM   25  N2  UNL     1     -25.966  12.488 -16.768  1.00  0.00    -0.375 N 
HETATM   26  C18 UNL     1     -25.238  11.402 -16.419  1.00  0.00     0.096 A 
ATOM     27  H2  UNL     1     -25.782  12.942 -17.662  1.00  0.00     0.164 HD
ENDBRANCH  20  21
ENDBRANCH  18  20
ENDBRANCH   4  18
TORSDOF 5
ENDMDL
