MODEL 1
REMARK VINA RESULT: -8.563492493      0.000      0.000
REMARK  5 active torsions:
REMARK  status: ('A' for Active; 'I' for Inactive)
REMARK    1  A    between atoms: C2_5  and  C3_6 
REMARK    2  A    between atoms: C11_16  and  C12_17 
REMARK    3  A    between atoms: C19_25  and  C20_26 
REMARK    4  A    between atoms: C20_26  and  O2_27 
REMARK    5  A    between atoms: O2_27  and  C21_28 
ROOT
HETATM    1  O1  UNL     1       3.351  37.751  80.565  1.00  0.00    -0.267 OA
HETATM    2  C1  UNL     1       3.816  38.597  79.757  1.00  0.00     0.261 A 
HETATM    3  N1  UNL     1       4.899  38.264  79.023  1.00  0.00    -0.308 N 
ATOM      4  H1  UNL     1       5.299  37.335  79.153  1.00  0.00     0.170 HD
HETATM    5  C2  UNL     1       5.480  39.082  78.134  1.00  0.00     0.119 A 
HETATM    6  N2  UNL     1       4.950  40.286  77.973  1.00  0.00    -0.327 N 
ATOM      7  H2  UNL     1       5.383  40.916  77.298  1.00  0.00     0.169 HD
HETATM    8  C9  UNL     1       3.854  40.732  78.663  1.00  0.00     0.119 A 
HETATM    9  C10 UNL     1       3.283  39.866  79.568  1.00  0.00     0.083 A 
HETATM   10  C11 UNL     1       2.238  40.244  80.248  1.00  0.00    -0.026 A 
HETATM   11  C18 UNL     1       1.639  41.595  80.072  1.00  0.00     0.068 A 
HETATM   12  C19 UNL     1       2.285  42.482  79.094  1.00  0.00     0.111 A 
HETATM   13  N3  UNL     1       3.422  41.928  78.425  1.00  0.00    -0.368 N 
ATOM     14  H3  UNL     1       3.911  42.497  77.733  1.00  0.00     0.161 HD
ENDROOT
BRANCH  12  15
HETATM   15  C20 UNL     1       2.772  43.784  79.745  1.00  0.00     0.201 C 
BRANCH  15  16
HETATM   16  O2  UNL     1       1.778  44.779  79.518  1.00  0.00    -0.349 OA
BRANCH  16  17
HETATM   17  C21 UNL     1       0.878  45.093  80.522  1.00  0.00     0.068 A 
HETATM   18  C22 UNL     1      -0.375  45.558  80.209  1.00  0.00     0.037 A 
HETATM   19  C23 UNL     1      -1.245  45.861  81.230  1.00  0.00     0.003 A 
HETATM   20  C24 UNL     1      -0.924  45.720  82.560  1.00  0.00     0.000 A 
HETATM   21  C25 UNL     1       0.340  45.251  82.846  1.00  0.00     0.003 A 
HETATM   22  C26 UNL     1       1.223  44.944  81.840  1.00  0.00     0.037 A 
ENDBRANCH  16  17
ENDBRANCH  15  16
ENDBRANCH  12  15
BRANCH  10  23
HETATM   23  C12 UNL     1       1.564  39.396  81.230  1.00  0.00    -0.029 A 
HETATM   24  C13 UNL     1       0.601  38.523  80.780  1.00  0.00     0.013 A 
HETATM   25  C14 UNL     1      -0.073  37.741  81.700  1.00  0.00     0.020 A 
HETATM   26  C15 UNL     1       0.212  37.835  83.032  1.00  0.00     0.011 A 
HETATM   27 BR1  UNL     1      -0.719  36.754  84.323  1.00  0.00    -0.051 Br
HETATM   28  C16 UNL     1       1.184  38.722  83.443  1.00  0.00     0.020 A 
HETATM   29  C17 UNL     1       1.867  39.507  82.553  1.00  0.00     0.013 A 
ENDBRANCH  10  23
BRANCH   5  30
HETATM   30  C3  UNL     1       6.635  38.620  77.404  1.00  0.00     0.008 A 
HETATM   31  C4  UNL     1       7.588  37.803  77.948  1.00  0.00     0.015 A 
HETATM   32  C5  UNL     1       8.700  37.369  77.216  1.00  0.00     0.001 A 
HETATM   33  C6  UNL     1       8.829  37.779  75.922  1.00  0.00     0.000 A 
HETATM   34  C7  UNL     1       7.898  38.604  75.318  1.00  0.00     0.001 A 
HETATM   35  C8  UNL     1       6.830  39.002  76.070  1.00  0.00     0.015 A 
ENDBRANCH   5  30
TORSDOF 5
ENDMDL
MODEL 2
REMARK VINA RESULT: -7.831763734      3.432      8.943
REMARK  5 active torsions:
REMARK  status: ('A' for Active; 'I' for Inactive)
REMARK    1  A    between atoms: C2_5  and  C3_6 
REMARK    2  A    between atoms: C11_16  and  C12_17 
REMARK    3  A    between atoms: C19_25  and  C20_26 
REMARK    4  A    between atoms: C20_26  and  O2_27 
REMARK    5  A    between atoms: O2_27  and  C21_28 
ROOT
HETATM    1  O1  UNL     1       2.888  36.978  80.332  1.00  0.00    -0.267 OA
HETATM    2  C1  UNL     1       3.642  37.856  79.838  1.00  0.00     0.261 A 
HETATM    3  N1  UNL     1       3.214  39.135  79.808  1.00  0.00    -0.308 N 
ATOM      4  H1  UNL     1       2.291  39.341  80.189  1.00  0.00     0.170 HD
HETATM    5  C2  UNL     1       3.930  40.152  79.306  1.00  0.00     0.119 A 
HETATM    6  N2  UNL     1       5.128  39.872  78.815  1.00  0.00    -0.327 N 
ATOM      7  H2  UNL     1       5.682  40.639  78.432  1.00  0.00     0.169 HD
HETATM    8  C9  UNL     1       5.665  38.612  78.792  1.00  0.00     0.119 A 
HETATM    9  C10 UNL     1       4.903  37.592  79.315  1.00  0.00     0.083 A 
HETATM   10  C11 UNL     1       5.370  36.376  79.317  1.00  0.00    -0.026 A 
HETATM   11  C18 UNL     1       6.716  36.057  78.766  1.00  0.00     0.068 A 
HETATM   12  C19 UNL     1       7.490  37.180  78.219  1.00  0.00     0.111 A 
HETATM   13  N3  UNL     1       6.846  38.456  78.287  1.00  0.00    -0.368 N 
ATOM     14  H3  UNL     1       7.336  39.274  77.924  1.00  0.00     0.161 HD
ENDROOT
BRANCH  12  15
HETATM   15  C20 UNL     1       7.838  36.961  76.740  1.00  0.00     0.201 C 
BRANCH  15  16
HETATM   16  O2  UNL     1       8.908  36.021  76.682  1.00  0.00    -0.349 OA
BRANCH  16  17
HETATM   17  C21 UNL     1       8.754  34.850  75.960  1.00  0.00     0.068 A 
HETATM   18  C22 UNL     1       9.811  33.988  75.805  1.00  0.00     0.037 A 
HETATM   19  C23 UNL     1       9.624  32.832  75.082  1.00  0.00     0.003 A 
HETATM   20  C24 UNL     1       8.424  32.491  74.502  1.00  0.00     0.000 A 
HETATM   21  C25 UNL     1       7.380  33.374  74.674  1.00  0.00     0.003 A 
HETATM   22  C26 UNL     1       7.547  34.533  75.392  1.00  0.00     0.037 A 
ENDBRANCH  16  17
ENDBRANCH  15  16
ENDBRANCH  12  15
BRANCH  10  23
HETATM   23  C12 UNL     1       4.635  35.230  79.849  1.00  0.00    -0.029 A 
HETATM   24  C13 UNL     1       4.829  34.892  81.168  1.00  0.00     0.013 A 
HETATM   25  C14 UNL     1       4.171  33.787  81.678  1.00  0.00     0.020 A 
HETATM   26  C15 UNL     1       3.345  33.045  80.884  1.00  0.00     0.011 A 
HETATM   27 BR1  UNL     1       2.424  31.505  81.580  1.00  0.00    -0.051 Br
HETATM   28  C16 UNL     1       3.176  33.416  79.567  1.00  0.00     0.020 A 
HETATM   29  C17 UNL     1       3.815  34.506  79.038  1.00  0.00     0.013 A 
ENDBRANCH  10  23
BRANCH   5  30
HETATM   30  C3  UNL     1       3.371  41.482  79.326  1.00  0.00     0.008 A 
HETATM   31  C4  UNL     1       2.037  41.731  79.490  1.00  0.00     0.015 A 
HETATM   32  C5  UNL     1       1.521  43.033  79.505  1.00  0.00     0.001 A 
HETATM   33  C6  UNL     1       2.384  44.078  79.351  1.00  0.00     0.000 A 
HETATM   34  C7  UNL     1       3.743  43.887  79.183  1.00  0.00     0.001 A 
HETATM   35  C8  UNL     1       4.201  42.601  79.174  1.00  0.00     0.015 A 
ENDBRANCH   5  30
TORSDOF 5
ENDMDL
MODEL 3
REMARK VINA RESULT: -7.797416636      5.245      7.966
REMARK  5 active torsions:
REMARK  status: ('A' for Active; 'I' for Inactive)
REMARK    1  A    between atoms: C2_5  and  C3_6 
REMARK    2  A    between atoms: C11_16  and  C12_17 
REMARK    3  A    between atoms: C19_25  and  C20_26 
REMARK    4  A    between atoms: C20_26  and  O2_27 
REMARK    5  A    between atoms: O2_27  and  C21_28 
ROOT
HETATM    1  O1  UNL     1       6.629  35.214  75.748  1.00  0.00    -0.267 OA
HETATM    2  C1  UNL     1       6.032  34.641  76.696  1.00  0.00     0.261 A 
HETATM    3  N1  UNL     1       5.512  33.414  76.486  1.00  0.00    -0.308 N 
ATOM      4  H1  UNL     1       5.624  32.997  75.562  1.00  0.00     0.170 HD
HETATM    5  C2  UNL     1       4.856  32.710  77.420  1.00  0.00     0.119 A 
HETATM    6  N2  UNL     1       4.718  33.261  78.617  1.00  0.00    -0.327 N 
ATOM      7  H2  UNL     1       4.221  32.734  79.336  1.00  0.00     0.169 HD
HETATM    8  C9  UNL     1       5.203  34.500  78.943  1.00  0.00     0.119 A 
HETATM    9  C10 UNL     1       5.871  35.195  77.960  1.00  0.00     0.083 A 
HETATM   10  C11 UNL     1       6.352  36.376  78.222  1.00  0.00    -0.026 A 
HETATM   11  C18 UNL     1       6.199  37.001  79.565  1.00  0.00     0.068 A 
HETATM   12  C19 UNL     1       5.478  36.220  80.580  1.00  0.00     0.111 A 
HETATM   13  N3  UNL     1       5.009  34.939  80.144  1.00  0.00    -0.368 N 
ATOM     14  H3  UNL     1       4.503  34.351  80.806  1.00  0.00     0.161 HD
ENDROOT
BRANCH  12  15
HETATM   15  C20 UNL     1       4.243  36.968  81.099  1.00  0.00     0.201 C 
BRANCH  15  16
HETATM   16  O2  UNL     1       3.514  37.436  79.968  1.00  0.00    -0.349 OA
BRANCH  16  17
HETATM   17  C21 UNL     1       3.126  38.764  79.902  1.00  0.00     0.068 A 
HETATM   18  C22 UNL     1       3.820  39.651  79.118  1.00  0.00     0.037 A 
HETATM   19  C23 UNL     1       3.408  40.963  79.076  1.00  0.00     0.003 A 
HETATM   20  C24 UNL     1       2.327  41.437  79.783  1.00  0.00     0.000 A 
HETATM   21  C25 UNL     1       1.648  40.525  80.561  1.00  0.00     0.003 A 
HETATM   22  C26 UNL     1       2.045  39.211  80.617  1.00  0.00     0.037 A 
ENDBRANCH  16  17
ENDBRANCH  15  16
ENDBRANCH  12  15
BRANCH  10  23
HETATM   23  C12 UNL     1       7.075  37.189  77.245  1.00  0.00    -0.029 A 
HETATM   24  C13 UNL     1       6.359  38.100  76.504  1.00  0.00     0.013 A 
HETATM   25  C14 UNL     1       7.020  38.849  75.548  1.00  0.00     0.020 A 
HETATM   26  C15 UNL     1       8.359  38.686  75.342  1.00  0.00     0.011 A 
HETATM   27 BR1  UNL     1       9.291  39.722  74.014  1.00  0.00    -0.051 Br
HETATM   28  C16 UNL     1       9.042  37.763  76.105  1.00  0.00     0.020 A 
HETATM   29  C17 UNL     1       8.412  37.008  77.059  1.00  0.00     0.013 A 
ENDBRANCH  10  23
BRANCH   5  30
HETATM   30  C3  UNL     1       4.341  31.405  77.084  1.00  0.00     0.008 A 
HETATM   31  C4  UNL     1       3.533  30.681  77.917  1.00  0.00     0.015 A 
HETATM   32  C5  UNL     1       3.047  29.416  77.565  1.00  0.00     0.001 A 
HETATM   33  C6  UNL     1       3.395  28.898  76.353  1.00  0.00     0.000 A 
HETATM   34  C7  UNL     1       4.208  29.584  75.469  1.00  0.00     0.001 A 
HETATM   35  C8  UNL     1       4.659  30.813  75.854  1.00  0.00     0.015 A 
ENDBRANCH   5  30
TORSDOF 5
ENDMDL
MODEL 4
REMARK VINA RESULT: -7.784688418      5.262      8.010
REMARK  5 active torsions:
REMARK  status: ('A' for Active; 'I' for Inactive)
REMARK    1  A    between atoms: C2_5  and  C3_6 
REMARK    2  A    between atoms: C11_16  and  C12_17 
REMARK    3  A    between atoms: C19_25  and  C20_26 
REMARK    4  A    between atoms: C20_26  and  O2_27 
REMARK    5  A    between atoms: O2_27  and  C21_28 
ROOT
HETATM    1  O1  UNL     1       6.612  35.190  75.655  1.00  0.00    -0.267 OA
HETATM    2  C1  UNL     1       6.037  34.624  76.620  1.00  0.00     0.261 A 
HETATM    3  N1  UNL     1       5.526  33.388  76.435  1.00  0.00    -0.308 N 
ATOM      4  H1  UNL     1       5.627  32.961  75.515  1.00  0.00     0.170 HD
HETATM    5  C2  UNL     1       4.893  32.690  77.389  1.00  0.00     0.119 A 
HETATM    6  N2  UNL     1       4.769  33.256  78.580  1.00  0.00    -0.327 N 
ATOM      7  H2  UNL     1       4.290  32.733  79.314  1.00  0.00     0.169 HD
HETATM    8  C9  UNL     1       5.247  34.505  78.882  1.00  0.00     0.119 A 
HETATM    9  C10 UNL     1       5.890  35.193  77.879  1.00  0.00     0.083 A 
HETATM   10  C11 UNL     1       6.363  36.383  78.118  1.00  0.00    -0.026 A 
HETATM   11  C18 UNL     1       6.225  37.024  79.454  1.00  0.00     0.068 A 
HETATM   12  C19 UNL     1       5.530  36.248  80.491  1.00  0.00     0.111 A 
HETATM   13  N3  UNL     1       5.068  34.957  80.080  1.00  0.00    -0.368 N 
ATOM     14  H3  UNL     1       4.579  34.372  80.758  1.00  0.00     0.161 HD
ENDROOT
BRANCH  12  15
HETATM   15  C20 UNL     1       4.295  36.991  81.021  1.00  0.00     0.201 C 
BRANCH  15  16
HETATM   16  O2  UNL     1       3.570  37.480  79.897  1.00  0.00    -0.349 OA
BRANCH  16  17
HETATM   17  C21 UNL     1       3.191  38.811  79.850  1.00  0.00     0.068 A 
HETATM   18  C22 UNL     1       2.098  39.246  80.558  1.00  0.00     0.037 A 
HETATM   19  C23 UNL     1       1.749  40.575  80.489  1.00  0.00     0.003 A 
HETATM   20  C24 UNL     1       2.444  41.500  79.745  1.00  0.00     0.000 A 
HETATM   21  C25 UNL     1       3.537  41.036  79.045  1.00  0.00     0.003 A 
HETATM   22  C26 UNL     1       3.901  39.713  79.100  1.00  0.00     0.037 A 
ENDBRANCH  16  17
ENDBRANCH  15  16
ENDBRANCH  12  15
BRANCH  10  23
HETATM   23  C12 UNL     1       7.060  37.190  77.117  1.00  0.00    -0.029 A 
HETATM   24  C13 UNL     1       8.412  36.995  76.955  1.00  0.00     0.013 A 
HETATM   25  C14 UNL     1       9.095  37.776  76.041  1.00  0.00     0.020 A 
HETATM   26  C15 UNL     1       8.438  38.726  75.313  1.00  0.00     0.011 A 
HETATM   27 BR1  UNL     1       9.375  39.821  74.038  1.00  0.00    -0.051 Br
HETATM   28  C16 UNL     1       7.082  38.891  75.504  1.00  0.00     0.020 A 
HETATM   29  C17 UNL     1       6.382  38.130  76.402  1.00  0.00     0.013 A 
ENDBRANCH  10  23
BRANCH   5  30
HETATM   30  C3  UNL     1       4.387  31.375  77.079  1.00  0.00     0.008 A 
HETATM   31  C4  UNL     1       3.666  30.622  77.964  1.00  0.00     0.015 A 
HETATM   32  C5  UNL     1       3.186  29.348  77.636  1.00  0.00     0.001 A 
HETATM   33  C6  UNL     1       3.451  28.852  76.394  1.00  0.00     0.000 A 
HETATM   34  C7  UNL     1       4.173  29.568  75.457  1.00  0.00     0.001 A 
HETATM   35  C8  UNL     1       4.621  30.805  75.821  1.00  0.00     0.015 A 
ENDBRANCH   5  30
TORSDOF 5
ENDMDL
MODEL 5
REMARK VINA RESULT: -7.636199032     10.492     14.607
REMARK  5 active torsions:
REMARK  status: ('A' for Active; 'I' for Inactive)
REMARK    1  A    between atoms: C2_5  and  C3_6 
REMARK    2  A    between atoms: C11_16  and  C12_17 
REMARK    3  A    between atoms: C19_25  and  C20_26 
REMARK    4  A    between atoms: C20_26  and  O2_27 
REMARK    5  A    between atoms: O2_27  and  C21_28 
ROOT
HETATM    1  O1  UNL     1      14.711  30.495  77.564  1.00  0.00    -0.267 OA
HETATM    2  C1  UNL     1      14.213  29.987  76.526  1.00  0.00     0.261 A 
HETATM    3  N1  UNL     1      15.043  29.518  75.572  1.00  0.00    -0.308 N 
ATOM      4  H1  UNL     1      16.048  29.593  75.731  1.00  0.00     0.170 HD
HETATM    5  C2  UNL     1      14.626  28.958  74.427  1.00  0.00     0.119 A 
HETATM    6  N2  UNL     1      13.320  28.865  74.232  1.00  0.00    -0.327 N 
ATOM      7  H2  UNL     1      12.991  28.440  73.364  1.00  0.00     0.169 HD
HETATM    8  C9  UNL     1      12.384  29.309  75.130  1.00  0.00     0.119 A 
HETATM    9  C10 UNL     1      12.847  29.878  76.294  1.00  0.00     0.083 A 
HETATM   10  C11 UNL     1      11.997  30.313  77.179  1.00  0.00    -0.026 A 
HETATM   11  C18 UNL     1      10.527  30.212  76.965  1.00  0.00     0.068 A 
HETATM   12  C19 UNL     1      10.083  29.597  75.706  1.00  0.00     0.111 A 
HETATM   13  N3  UNL     1      11.133  29.166  74.834  1.00  0.00    -0.368 N 
ATOM     14  H3  UNL     1      10.886  28.730  73.945  1.00  0.00     0.161 HD
ENDROOT
BRANCH  12  15
HETATM   15  C20 UNL     1       9.216  30.558  74.881  1.00  0.00     0.201 C 
BRANCH  15  16
HETATM   16  O2  UNL     1       9.879  31.819  74.848  1.00  0.00    -0.349 OA
BRANCH  16  17
HETATM   17  C21 UNL     1       9.193  32.966  75.211  1.00  0.00     0.068 A 
HETATM   18  C22 UNL     1       7.873  33.121  74.868  1.00  0.00     0.037 A 
HETATM   19  C23 UNL     1       7.221  34.273  75.243  1.00  0.00     0.003 A 
HETATM   20  C24 UNL     1       7.826  35.285  75.952  1.00  0.00     0.000 A 
HETATM   21  C25 UNL     1       9.152  35.102  76.283  1.00  0.00     0.003 A 
HETATM   22  C26 UNL     1       9.820  33.960  75.916  1.00  0.00     0.037 A 
ENDBRANCH  16  17
ENDBRANCH  15  16
ENDBRANCH  12  15
BRANCH  10  23
HETATM   23  C12 UNL     1      12.393  30.932  78.443  1.00  0.00    -0.029 A 
HETATM   24  C13 UNL     1      12.559  30.118  79.539  1.00  0.00     0.013 A 
HETATM   25  C14 UNL     1      12.895  30.690  80.752  1.00  0.00     0.020 A 
HETATM   26  C15 UNL     1      13.059  32.041  80.859  1.00  0.00     0.011 A 
HETATM   27 BR1  UNL     1      13.528  32.852  82.541  1.00  0.00    -0.051 Br
HETATM   28  C16 UNL     1      12.885  32.824  79.738  1.00  0.00     0.020 A 
HETATM   29  C17 UNL     1      12.552  32.282  78.525  1.00  0.00     0.013 A 
ENDBRANCH  10  23
BRANCH   5  30
HETATM   30  C3  UNL     1      15.606  28.490  73.476  1.00  0.00     0.008 A 
HETATM   31  C4  UNL     1      15.912  27.168  73.307  1.00  0.00     0.015 A 
HETATM   32  C5  UNL     1      16.867  26.740  72.376  1.00  0.00     0.001 A 
HETATM   33  C6  UNL     1      17.506  27.678  71.621  1.00  0.00     0.000 A 
HETATM   34  C7  UNL     1      17.237  29.029  71.747  1.00  0.00     0.001 A 
HETATM   35  C8  UNL     1      16.299  29.399  72.667  1.00  0.00     0.015 A 
ENDBRANCH   5  30
TORSDOF 5
ENDMDL
