MODEL 1
REMARK VINA RESULT: -7.147999692      0.000      0.000
REMARK  14 active torsions:
REMARK  status: ('A' for Active; 'I' for Inactive)
REMARK    1  A    between atoms: N1_1  and  C1_4 
REMARK    2  A    between atoms: C4_13  and  S1_14 
REMARK    3  A    between atoms: S1_14  and  S2_15 
REMARK    4  A    between atoms: S2_15  and  C5_16 
REMARK    5  A    between atoms: C5_16  and  C6_17 
REMARK    6  A    between atoms: C6_17  and  N5_18 
REMARK    7  A    between atoms: N5_18  and  C7_21 
REMARK    8  A    between atoms: C7_21  and  C8_22 
REMARK    9  A    between atoms: C8_22  and  C9_23 
REMARK   10  A    between atoms: C9_23  and  C10_24 
REMARK   11  A    between atoms: C10_24  and  N6_25 
REMARK   12  A    between atoms: N6_25  and  C11_28 
REMARK   13  A    between atoms: C11_28  and  C12_29 
REMARK   14  A    between atoms: C12_29  and  C13_30 
ROOT
HETATM    1  S2  UNL     1      -0.109 -35.646  18.839  1.00  0.00    -0.088 SA
ENDROOT
BRANCH   1   2
HETATM    2  S1  UNL     1      -1.133 -36.686  20.351  1.00  0.00    -0.021 SA
BRANCH   2   3
HETATM    3  C4  UNL     1      -0.198 -38.158  20.793  1.00  0.00     0.157 A 
HETATM    4  N4  UNL     1       1.078 -38.465  20.527  1.00  0.00    -0.320 N 
HETATM    5  C3  UNL     1       1.369 -39.670  21.041  1.00  0.00     0.139 A 
ATOM      6  H4  UNL     1       1.729 -37.874  20.011  1.00  0.00     0.169 HD
HETATM    7  N3  UNL     1       2.499 -40.427  21.049  1.00  0.00    -0.337 N 
HETATM    8  C14 UNL     1       0.239 -40.165  21.666  1.00  0.00     0.123 A 
HETATM    9  C2  UNL     1       2.491 -41.617  21.654  1.00  0.00     0.183 A 
ATOM     10  H3  UNL     1       3.348 -40.087  20.596  1.00  0.00     0.168 HD
HETATM   11  N2  UNL     1       1.430 -42.129  22.264  1.00  0.00    -0.337 N 
HETATM   12  C1  UNL     1       0.292 -41.419  22.283  1.00  0.00     0.131 A 
ATOM     13  H2  UNL     1       1.478 -43.045  22.711  1.00  0.00     0.168 HD
HETATM   14  N7  UNL     1      -0.695 -39.223  21.498  1.00  0.00    -0.330 N 
ATOM     15  H7  UNL     1      -1.651 -39.288  21.848  1.00  0.00     0.168 HD
BRANCH  12  16
HETATM   16  N1  UNL     1      -0.759 -41.883  22.857  1.00  0.00    -0.383 N 
ATOM     17  H12 UNL     1      -1.483 -42.328  22.293  1.00  0.00     0.157 HD
ATOM     18  H11 UNL     1      -0.870 -41.815  23.869  1.00  0.00     0.157 HD
ENDBRANCH  12  16
ENDBRANCH   2   3
ENDBRANCH   1   2
BRANCH   1  19
HETATM   19  C5  UNL     1       1.341 -34.809  19.495  1.00  0.00     0.114 C 
BRANCH  19  20
HETATM   20  C6  UNL     1       1.214 -34.525  20.946  1.00  0.00     0.243 C 
BRANCH  20  21
HETATM   21  N5  UNL     1       1.160 -33.126  21.301  1.00  0.00    -0.074 N 
ATOM     22  H52 UNL     1       1.603 -32.941  22.201  1.00  0.00     0.277 HD
ATOM     23  H51 UNL     1       1.772 -32.558  20.717  1.00  0.00     0.277 HD
BRANCH  21  24
HETATM   24  C7  UNL     1      -0.197 -32.670  21.265  1.00  0.00     0.232 C 
BRANCH  24  25
HETATM   25  C8  UNL     1      -0.285 -31.196  20.891  1.00  0.00     0.029 C 
BRANCH  25  26
HETATM   26  C9  UNL     1       0.947 -30.828  20.115  1.00  0.00     0.029 C 
BRANCH  26  27
HETATM   27  C10 UNL     1       0.657 -30.544  18.669  1.00  0.00     0.232 C 
BRANCH  27  28
HETATM   28  N6  UNL     1      -0.043 -31.653  18.079  1.00  0.00    -0.075 N 
ATOM     29  H62 UNL     1      -0.091 -32.443  18.721  1.00  0.00     0.277 HD
ATOM     30  H61 UNL     1      -1.040 -31.456  17.991  1.00  0.00     0.277 HD
BRANCH  28  31
HETATM   31  C11 UNL     1       0.530 -32.044  16.804  1.00  0.00     0.235 C 
BRANCH  31  32
HETATM   32  C12 UNL     1      -0.425 -32.989  16.095  1.00  0.00     0.063 C 
BRANCH  32  33
HETATM   33  C13 UNL     1      -1.663 -32.222  15.635  1.00  0.00     0.179 C 
HETATM   34 CL1  UNL     1      -2.577 -33.179  14.449  1.00  0.00    -0.108 Cl
HETATM   35 CL2  UNL     1      -1.119 -30.685  14.929  1.00  0.00    -0.108 Cl
ENDBRANCH  32  33
ENDBRANCH  31  32
ENDBRANCH  28  31
ENDBRANCH  27  28
ENDBRANCH  26  27
ENDBRANCH  25  26
ENDBRANCH  24  25
ENDBRANCH  21  24
ENDBRANCH  20  21
ENDBRANCH  19  20
ENDBRANCH   1  19
TORSDOF 14
ENDMDL
MODEL 2
REMARK VINA RESULT: -7.057352660      2.281      3.075
REMARK  14 active torsions:
REMARK  status: ('A' for Active; 'I' for Inactive)
REMARK    1  A    between atoms: N1_1  and  C1_4 
REMARK    2  A    between atoms: C4_13  and  S1_14 
REMARK    3  A    between atoms: S1_14  and  S2_15 
REMARK    4  A    between atoms: S2_15  and  C5_16 
REMARK    5  A    between atoms: C5_16  and  C6_17 
REMARK    6  A    between atoms: C6_17  and  N5_18 
REMARK    7  A    between atoms: N5_18  and  C7_21 
REMARK    8  A    between atoms: C7_21  and  C8_22 
REMARK    9  A    between atoms: C8_22  and  C9_23 
REMARK   10  A    between atoms: C9_23  and  C10_24 
REMARK   11  A    between atoms: C10_24  and  N6_25 
REMARK   12  A    between atoms: N6_25  and  C11_28 
REMARK   13  A    between atoms: C11_28  and  C12_29 
REMARK   14  A    between atoms: C12_29  and  C13_30 
ROOT
HETATM    1  S2  UNL     1      -0.510 -35.229  19.927  1.00  0.00    -0.088 SA
ENDROOT
BRANCH   1   2
HETATM    2  S1  UNL     1      -1.659 -36.943  20.322  1.00  0.00    -0.021 SA
BRANCH   2   3
HETATM    3  C4  UNL     1      -0.567 -38.287  20.809  1.00  0.00     0.157 A 
HETATM    4  N4  UNL     1       0.746 -38.434  20.594  1.00  0.00    -0.320 N 
HETATM    5  C3  UNL     1       1.165 -39.593  21.127  1.00  0.00     0.139 A 
ATOM      6  H4  UNL     1       1.339 -37.768  20.100  1.00  0.00     0.169 HD
HETATM    7  N3  UNL     1       2.379 -40.204  21.184  1.00  0.00    -0.337 N 
HETATM    8  C14 UNL     1       0.081 -40.224  21.712  1.00  0.00     0.123 A 
HETATM    9  C2  UNL     1       2.494 -41.385  21.796  1.00  0.00     0.183 A 
ATOM     10  H3  UNL     1       3.195 -39.762  20.761  1.00  0.00     0.168 HD
HETATM   11  N2  UNL     1       1.482 -42.023  22.368  1.00  0.00    -0.337 N 
HETATM   12  C1  UNL     1       0.265 -41.460  22.338  1.00  0.00     0.131 A 
ATOM     13  H2  UNL     1       1.625 -42.926  22.822  1.00  0.00     0.168 HD
HETATM   14  N7  UNL     1      -0.955 -39.404  21.502  1.00  0.00    -0.330 N 
ATOM     15  H7  UNL     1      -1.908 -39.587  21.815  1.00  0.00     0.168 HD
BRANCH  12  16
HETATM   16  N1  UNL     1      -0.742 -42.049  22.875  1.00  0.00    -0.383 N 
ATOM     17  H12 UNL     1      -0.583 -42.775  23.574  1.00  0.00     0.157 HD
ATOM     18  H11 UNL     1      -1.694 -41.793  22.613  1.00  0.00     0.157 HD
ENDBRANCH  12  16
ENDBRANCH   2   3
ENDBRANCH   1   2
BRANCH   1  19
HETATM   19  C5  UNL     1       0.720 -34.962  21.212  1.00  0.00     0.114 C 
BRANCH  19  20
HETATM   20  C6  UNL     1       2.083 -34.778  20.653  1.00  0.00     0.243 C 
BRANCH  20  21
HETATM   21  N5  UNL     1       2.325 -35.428  19.385  1.00  0.00    -0.074 N 
ATOM     22  H52 UNL     1       2.902 -36.263  19.486  1.00  0.00     0.277 HD
ATOM     23  H51 UNL     1       1.485 -35.873  19.016  1.00  0.00     0.277 HD
BRANCH  21  24
HETATM   24  C7  UNL     1       2.889 -34.491  18.461  1.00  0.00     0.232 C 
BRANCH  24  25
HETATM   25  C8  UNL     1       2.194 -34.547  17.108  1.00  0.00     0.029 C 
BRANCH  25  26
HETATM   26  C9  UNL     1       2.592 -33.334  16.317  1.00  0.00     0.029 C 
BRANCH  26  27
HETATM   27  C10 UNL     1       1.492 -32.316  16.226  1.00  0.00     0.232 C 
BRANCH  27  28
HETATM   28  N6  UNL     1       1.832 -31.151  16.996  1.00  0.00    -0.075 N 
ATOM     29  H62 UNL     1       2.669 -31.310  17.557  1.00  0.00     0.277 HD
ATOM     30  H61 UNL     1       2.179 -30.400  16.399  1.00  0.00     0.277 HD
BRANCH  28  31
HETATM   31  C11 UNL     1       0.725 -30.698  17.819  1.00  0.00     0.235 C 
BRANCH  31  32
HETATM   32  C12 UNL     1       0.429 -31.746  18.879  1.00  0.00     0.063 C 
BRANCH  32  33
HETATM   33  C13 UNL     1       0.744 -31.183  20.263  1.00  0.00     0.179 C 
HETATM   34 CL1  UNL     1      -0.649 -31.390  21.347  1.00  0.00    -0.108 Cl
HETATM   35 CL2  UNL     1       1.149 -29.463  20.070  1.00  0.00    -0.108 Cl
ENDBRANCH  32  33
ENDBRANCH  31  32
ENDBRANCH  28  31
ENDBRANCH  27  28
ENDBRANCH  26  27
ENDBRANCH  25  26
ENDBRANCH  24  25
ENDBRANCH  21  24
ENDBRANCH  20  21
ENDBRANCH  19  20
ENDBRANCH   1  19
TORSDOF 14
ENDMDL
MODEL 3
REMARK VINA RESULT: -7.031846159      2.360      3.892
REMARK  14 active torsions:
REMARK  status: ('A' for Active; 'I' for Inactive)
REMARK    1  A    between atoms: N1_1  and  C1_4 
REMARK    2  A    between atoms: C4_13  and  S1_14 
REMARK    3  A    between atoms: S1_14  and  S2_15 
REMARK    4  A    between atoms: S2_15  and  C5_16 
REMARK    5  A    between atoms: C5_16  and  C6_17 
REMARK    6  A    between atoms: C6_17  and  N5_18 
REMARK    7  A    between atoms: N5_18  and  C7_21 
REMARK    8  A    between atoms: C7_21  and  C8_22 
REMARK    9  A    between atoms: C8_22  and  C9_23 
REMARK   10  A    between atoms: C9_23  and  C10_24 
REMARK   11  A    between atoms: C10_24  and  N6_25 
REMARK   12  A    between atoms: N6_25  and  C11_28 
REMARK   13  A    between atoms: C11_28  and  C12_29 
REMARK   14  A    between atoms: C12_29  and  C13_30 
ROOT
HETATM    1  S2  UNL     1      -1.352 -36.618  18.071  1.00  0.00    -0.088 SA
ENDROOT
BRANCH   1   2
HETATM    2  S1  UNL     1      -1.643 -36.874  20.136  1.00  0.00    -0.021 SA
BRANCH   2   3
HETATM    3  C4  UNL     1      -0.579 -38.201  20.723  1.00  0.00     0.157 A 
HETATM    4  N4  UNL     1       0.754 -38.307  20.670  1.00  0.00    -0.320 N 
HETATM    5  C3  UNL     1       1.139 -39.468  21.223  1.00  0.00     0.139 A 
ATOM      6  H4  UNL     1       1.383 -37.611  20.269  1.00  0.00     0.169 HD
HETATM    7  N3  UNL     1       2.354 -40.047  21.415  1.00  0.00    -0.337 N 
HETATM    8  C14 UNL     1       0.011 -40.144  21.652  1.00  0.00     0.123 A 
HETATM    9  C2  UNL     1       2.429 -41.242  22.007  1.00  0.00     0.183 A 
ATOM     10  H3  UNL     1       3.203 -39.572  21.108  1.00  0.00     0.168 HD
HETATM   11  N2  UNL     1       1.373 -41.922  22.433  1.00  0.00    -0.337 N 
HETATM   12  C1  UNL     1       0.153 -41.392  22.266  1.00  0.00     0.131 A 
ATOM     13  H2  UNL     1       1.487 -42.833  22.880  1.00  0.00     0.168 HD
HETATM   14  N7  UNL     1      -1.016 -39.347  21.334  1.00  0.00    -0.330 N 
ATOM     15  H7  UNL     1      -1.995 -39.564  21.522  1.00  0.00     0.168 HD
BRANCH  12  16
HETATM   16  N1  UNL     1      -0.895 -42.023  22.659  1.00  0.00    -0.383 N 
ATOM     17  H12 UNL     1      -0.800 -42.770  23.347  1.00  0.00     0.157 HD
ATOM     18  H11 UNL     1      -1.816 -41.779  22.294  1.00  0.00     0.157 HD
ENDBRANCH  12  16
ENDBRANCH   2   3
ENDBRANCH   1   2
BRANCH   1  19
HETATM   19  C5  UNL     1      -2.213 -35.158  17.471  1.00  0.00     0.114 C 
BRANCH  19  20
HETATM   20  C6  UNL     1      -2.450 -35.210  16.007  1.00  0.00     0.243 C 
BRANCH  20  21
HETATM   21  N5  UNL     1      -3.234 -34.124  15.467  1.00  0.00    -0.074 N 
ATOM     22  H52 UNL     1      -4.138 -34.440  15.116  1.00  0.00     0.277 HD
ATOM     23  H51 UNL     1      -3.572 -33.496  16.196  1.00  0.00     0.277 HD
BRANCH  21  24
HETATM   24  C7  UNL     1      -2.479 -33.431  14.467  1.00  0.00     0.232 C 
BRANCH  24  25
HETATM   25  C8  UNL     1      -1.984 -32.082  14.970  1.00  0.00     0.029 C 
BRANCH  25  26
HETATM   26  C9  UNL     1      -0.491 -32.035  14.815  1.00  0.00     0.029 C 
BRANCH  26  27
HETATM   27  C10 UNL     1       0.233 -32.483  16.052  1.00  0.00     0.232 C 
BRANCH  27  28
HETATM   28  N6  UNL     1      -0.415 -31.959  17.222  1.00  0.00    -0.075 N 
ATOM     29  H62 UNL     1      -1.294 -31.501  16.984  1.00  0.00     0.277 HD
ATOM     30  H61 UNL     1      -0.780 -32.709  17.810  1.00  0.00     0.277 HD
BRANCH  28  31
HETATM   31  C11 UNL     1       0.453 -31.074  17.978  1.00  0.00     0.235 C 
BRANCH  31  32
HETATM   32  C12 UNL     1       1.099 -31.853  19.111  1.00  0.00     0.063 C 
BRANCH  32  33
HETATM   33  C13 UNL     1       0.917 -31.097  20.425  1.00  0.00     0.179 C 
HETATM   34 CL1  UNL     1      -0.658 -31.487  21.149  1.00  0.00    -0.108 Cl
HETATM   35 CL2  UNL     1       1.044 -29.359  20.075  1.00  0.00    -0.108 Cl
ENDBRANCH  32  33
ENDBRANCH  31  32
ENDBRANCH  28  31
ENDBRANCH  27  28
ENDBRANCH  26  27
ENDBRANCH  25  26
ENDBRANCH  24  25
ENDBRANCH  21  24
ENDBRANCH  20  21
ENDBRANCH  19  20
ENDBRANCH   1  19
TORSDOF 14
ENDMDL
MODEL 4
REMARK VINA RESULT: -6.886624535      1.934      3.359
REMARK  14 active torsions:
REMARK  status: ('A' for Active; 'I' for Inactive)
REMARK    1  A    between atoms: N1_1  and  C1_4 
REMARK    2  A    between atoms: C4_13  and  S1_14 
REMARK    3  A    between atoms: S1_14  and  S2_15 
REMARK    4  A    between atoms: S2_15  and  C5_16 
REMARK    5  A    between atoms: C5_16  and  C6_17 
REMARK    6  A    between atoms: C6_17  and  N5_18 
REMARK    7  A    between atoms: N5_18  and  C7_21 
REMARK    8  A    between atoms: C7_21  and  C8_22 
REMARK    9  A    between atoms: C8_22  and  C9_23 
REMARK   10  A    between atoms: C9_23  and  C10_24 
REMARK   11  A    between atoms: C10_24  and  N6_25 
REMARK   12  A    between atoms: N6_25  and  C11_28 
REMARK   13  A    between atoms: C11_28  and  C12_29 
REMARK   14  A    between atoms: C12_29  and  C13_30 
ROOT
HETATM    1  S2  UNL     1      -1.631 -36.754  18.311  1.00  0.00    -0.088 SA
ENDROOT
BRANCH   1   2
HETATM    2  S1  UNL     1      -1.334 -36.787  20.391  1.00  0.00    -0.021 SA
BRANCH   2   3
HETATM    3  C4  UNL     1      -0.332 -38.218  20.822  1.00  0.00     0.157 A 
HETATM    4  N4  UNL     1       0.949 -38.476  20.528  1.00  0.00    -0.320 N 
HETATM    5  C3  UNL     1       1.300 -39.665  21.045  1.00  0.00     0.139 A 
ATOM      6  H4  UNL     1       1.565 -37.863  19.994  1.00  0.00     0.169 HD
HETATM    7  N3  UNL     1       2.459 -40.376  21.032  1.00  0.00    -0.337 N 
HETATM    8  C14 UNL     1       0.205 -40.199  21.699  1.00  0.00     0.123 A 
HETATM    9  C2  UNL     1       2.512 -41.561  21.646  1.00  0.00     0.183 A 
ATOM     10  H3  UNL     1       3.283 -40.006  20.557  1.00  0.00     0.168 HD
HETATM   11  N2  UNL     1       1.486 -42.109  22.284  1.00  0.00    -0.337 N 
HETATM   12  C1  UNL     1       0.322 -41.445  22.323  1.00  0.00     0.131 A 
ATOM     13  H2  UNL     1       1.581 -43.019  22.736  1.00  0.00     0.168 HD
HETATM   14  N7  UNL     1      -0.769 -39.295  21.546  1.00  0.00    -0.330 N 
ATOM     15  H7  UNL     1      -1.714 -39.396  21.918  1.00  0.00     0.168 HD
BRANCH  12  16
HETATM   16  N1  UNL     1      -0.697 -41.945  22.926  1.00  0.00    -0.383 N 
ATOM     17  H12 UNL     1      -1.312 -42.584  22.422  1.00  0.00     0.157 HD
ATOM     18  H11 UNL     1      -0.889 -41.713  23.901  1.00  0.00     0.157 HD
ENDBRANCH  12  16
ENDBRANCH   2   3
ENDBRANCH   1   2
BRANCH   1  19
HETATM   19  C5  UNL     1      -1.507 -35.080  17.665  1.00  0.00     0.114 C 
BRANCH  19  20
HETATM   20  C6  UNL     1      -0.199 -34.830  17.009  1.00  0.00     0.243 C 
BRANCH  20  21
HETATM   21  N5  UNL     1       0.904 -35.620  17.504  1.00  0.00    -0.074 N 
ATOM     22  H52 UNL     1       0.696 -36.047  18.407  1.00  0.00     0.277 HD
ATOM     23  H51 UNL     1       1.036 -36.474  16.965  1.00  0.00     0.277 HD
BRANCH  21  24
HETATM   24  C7  UNL     1       2.091 -34.820  17.547  1.00  0.00     0.232 C 
BRANCH  24  25
HETATM   25  C8  UNL     1       2.791 -34.923  18.896  1.00  0.00     0.029 C 
BRANCH  25  26
HETATM   26  C9  UNL     1       2.221 -33.877  19.809  1.00  0.00     0.029 C 
BRANCH  26  27
HETATM   27  C10 UNL     1       1.719 -34.449  21.104  1.00  0.00     0.232 C 
BRANCH  27  28
HETATM   28  N6  UNL     1       0.753 -33.564  21.694  1.00  0.00    -0.075 N 
ATOM     29  H62 UNL     1       0.217 -34.034  22.422  1.00  0.00     0.277 HD
ATOM     30  H61 UNL     1       1.205 -32.848  22.263  1.00  0.00     0.277 HD
BRANCH  28  31
HETATM   31  C11 UNL     1      -0.121 -32.968  20.699  1.00  0.00     0.235 C 
BRANCH  31  32
HETATM   32  C12 UNL     1      -0.442 -31.540  21.105  1.00  0.00     0.063 C 
BRANCH  32  33
HETATM   33  C13 UNL     1      -0.201 -30.602  19.924  1.00  0.00     0.179 C 
HETATM   34 CL1  UNL     1      -0.070 -31.530  18.415  1.00  0.00    -0.108 Cl
HETATM   35 CL2  UNL     1       1.293 -29.696  20.246  1.00  0.00    -0.108 Cl
ENDBRANCH  32  33
ENDBRANCH  31  32
ENDBRANCH  28  31
ENDBRANCH  27  28
ENDBRANCH  26  27
ENDBRANCH  25  26
ENDBRANCH  24  25
ENDBRANCH  21  24
ENDBRANCH  20  21
ENDBRANCH  19  20
ENDBRANCH   1  19
TORSDOF 14
ENDMDL
MODEL 5
REMARK VINA RESULT: -6.865755301      1.135      1.869
REMARK  14 active torsions:
REMARK  status: ('A' for Active; 'I' for Inactive)
REMARK    1  A    between atoms: N1_1  and  C1_4 
REMARK    2  A    between atoms: C4_13  and  S1_14 
REMARK    3  A    between atoms: S1_14  and  S2_15 
REMARK    4  A    between atoms: S2_15  and  C5_16 
REMARK    5  A    between atoms: C5_16  and  C6_17 
REMARK    6  A    between atoms: C6_17  and  N5_18 
REMARK    7  A    between atoms: N5_18  and  C7_21 
REMARK    8  A    between atoms: C7_21  and  C8_22 
REMARK    9  A    between atoms: C8_22  and  C9_23 
REMARK   10  A    between atoms: C9_23  and  C10_24 
REMARK   11  A    between atoms: C10_24  and  N6_25 
REMARK   12  A    between atoms: N6_25  and  C11_28 
REMARK   13  A    between atoms: C11_28  and  C12_29 
REMARK   14  A    between atoms: C12_29  and  C13_30 
ROOT
HETATM    1  S2  UNL     1       1.652 -35.576  18.994  1.00  0.00    -0.088 SA
ENDROOT
BRANCH   1   2
HETATM    2  S1  UNL     1      -0.267 -36.403  19.209  1.00  0.00    -0.021 SA
BRANCH   2   3
HETATM    3  C4  UNL     1      -0.160 -37.894  20.210  1.00  0.00     0.157 A 
HETATM    4  N4  UNL     1      -1.133 -38.569  20.834  1.00  0.00    -0.320 N 
HETATM    5  C3  UNL     1      -0.610 -39.628  21.474  1.00  0.00     0.139 A 
ATOM      6  H4  UNL     1      -2.122 -38.318  20.826  1.00  0.00     0.169 HD
HETATM    7  N3  UNL     1      -1.155 -40.610  22.241  1.00  0.00    -0.337 N 
HETATM    8  C14 UNL     1       0.755 -39.641  21.257  1.00  0.00     0.123 A 
HETATM    9  C2  UNL     1      -0.366 -41.554  22.759  1.00  0.00     0.183 A 
ATOM     10  H3  UNL     1      -2.160 -40.625  22.418  1.00  0.00     0.168 HD
HETATM   11  N2  UNL     1       0.947 -41.604  22.576  1.00  0.00    -0.337 N 
HETATM   12  C1  UNL     1       1.529 -40.656  21.827  1.00  0.00     0.131 A 
ATOM     13  H2  UNL     1       1.503 -42.348  22.996  1.00  0.00     0.168 HD
HETATM   14  N7  UNL     1       0.997 -38.575  20.484  1.00  0.00    -0.330 N 
ATOM     15  H7  UNL     1       1.920 -38.305  20.145  1.00  0.00     0.168 HD
BRANCH  12  16
HETATM   16  N1  UNL     1       2.799 -40.665  21.631  1.00  0.00    -0.383 N 
ATOM     17  H12 UNL     1       3.202 -41.354  20.996  1.00  0.00     0.157 HD
ATOM     18  H11 UNL     1       3.401 -39.988  22.099  1.00  0.00     0.157 HD
ENDBRANCH  12  16
ENDBRANCH   2   3
ENDBRANCH   1   2
BRANCH   1  19
HETATM   19  C5  UNL     1       2.157 -34.711  20.487  1.00  0.00     0.114 C 
BRANCH  19  20
HETATM   20  C6  UNL     1       1.069 -34.654  21.496  1.00  0.00     0.243 C 
BRANCH  20  21
HETATM   21  N5  UNL     1       0.623 -33.327  21.853  1.00  0.00    -0.074 N 
ATOM     22  H52 UNL     1       0.126 -33.315  22.744  1.00  0.00     0.277 HD
ATOM     23  H51 UNL     1       1.400 -32.719  22.110  1.00  0.00     0.277 HD
BRANCH  21  24
HETATM   24  C7  UNL     1      -0.163 -32.778  20.789  1.00  0.00     0.232 C 
BRANCH  24  25
HETATM   25  C8  UNL     1      -0.323 -31.270  20.930  1.00  0.00     0.029 C 
BRANCH  25  26
HETATM   26  C9  UNL     1       0.765 -30.600  20.142  1.00  0.00     0.029 C 
BRANCH  26  27
HETATM   27  C10 UNL     1       1.276 -31.454  19.018  1.00  0.00     0.232 C 
BRANCH  27  28
HETATM   28  N6  UNL     1       1.148 -30.755  17.769  1.00  0.00    -0.075 N 
ATOM     29  H62 UNL     1       1.354 -29.762  17.878  1.00  0.00     0.277 HD
ATOM     30  H61 UNL     1       1.900 -31.006  17.126  1.00  0.00     0.277 HD
BRANCH  28  31
HETATM   31  C11 UNL     1      -0.154 -30.959  17.160  1.00  0.00     0.235 C 
BRANCH  31  32
HETATM   32  C12 UNL     1       0.028 -31.591  15.790  1.00  0.00     0.063 C 
BRANCH  32  33
HETATM   33  C13 UNL     1      -0.798 -32.873  15.700  1.00  0.00     0.179 C 
HETATM   34 CL1  UNL     1      -2.150 -32.658  14.567  1.00  0.00    -0.108 Cl
HETATM   35 CL2  UNL     1      -1.391 -33.253  17.332  1.00  0.00    -0.108 Cl
ENDBRANCH  32  33
ENDBRANCH  31  32
ENDBRANCH  28  31
ENDBRANCH  27  28
ENDBRANCH  26  27
ENDBRANCH  25  26
ENDBRANCH  24  25
ENDBRANCH  21  24
ENDBRANCH  20  21
ENDBRANCH  19  20
ENDBRANCH   1  19
TORSDOF 14
ENDMDL
