MODEL 1
REMARK VINA RESULT: -8.459232901      0.000      0.000
REMARK  6 active torsions:
REMARK  status: ('A' for Active; 'I' for Inactive)
REMARK    1  A    between atoms: N3_4  and  C2_6 
REMARK    2  A    between atoms: C2_6  and  C3_7 
REMARK    3  A    between atoms: C3_7  and  C4_8 
REMARK    4  A    between atoms: C4_8  and  C5_9 
REMARK    5  A    between atoms: C7_14  and  C8_15 
REMARK    6  A    between atoms: C8_15  and  N5_16 
ROOT
HETATM    1  C5  UNL     1     -30.421 -56.499   9.128  1.00  0.00     0.176 C 
HETATM    2  N4  UNL     1     -30.587 -56.381  10.576  1.00  0.00    -0.346 N 
ATOM      3  H4  UNL     1     -30.398 -55.462  10.976  1.00  0.00     0.163 HD
HETATM    4  C6  UNL     1     -30.970 -57.374  11.473  1.00  0.00     0.242 C 
HETATM    5  O1  UNL     1     -31.995 -57.120  12.219  1.00  0.00    -0.271 OA
HETATM    6  C7  UNL     1     -30.354 -58.704  11.693  1.00  0.00     0.194 C 
HETATM    7  N8  UNL     1     -28.941 -58.775  11.524  1.00  0.00    -0.345 N 
ATOM      8  H8  UNL     1     -28.445 -59.328  12.224  1.00  0.00     0.163 HD
HETATM    9  C10 UNL     1     -28.134 -58.198  10.538  1.00  0.00     0.236 C 
HETATM   10  O2  UNL     1     -27.190 -57.398  10.890  1.00  0.00    -0.272 OA
HETATM   11  C11 UNL     1     -28.222 -58.392   9.063  1.00  0.00     0.225 C 
HETATM   12  N9  UNL     1     -28.079 -57.089   8.460  1.00  0.00    -0.351 N 
ATOM     13  H9  UNL     1     -27.293 -56.895   7.839  1.00  0.00     0.163 HD
HETATM   14  C12 UNL     1     -29.031 -56.086   8.734  1.00  0.00     0.240 C 
HETATM   15  O3  UNL     1     -28.741 -54.856   8.655  1.00  0.00    -0.271 OA
ENDROOT
BRANCH   1  16
HETATM   16  C4  UNL     1     -31.390 -55.550   8.456  1.00  0.00     0.036 C 
BRANCH  16  17
HETATM   17  C3  UNL     1     -31.891 -56.003   7.132  1.00  0.00     0.022 C 
BRANCH  17  18
HETATM   18  C2  UNL     1     -32.301 -54.833   6.305  1.00  0.00     0.122 C 
BRANCH  18  19
HETATM   19  N3  UNL     1     -31.233 -54.413   5.387  1.00  0.00    -0.367 N 
HETATM   20  C1  UNL     1     -30.614 -53.323   5.680  1.00  0.00     0.196 C 
HETATM   21  N1  UNL     1     -29.561 -52.858   4.825  1.00  0.00    -0.067 NA
HETATM   22  N2  UNL     1     -30.935 -52.550   6.828  1.00  0.00    -0.067 NA
ATOM     23  H3  UNL     1     -30.994 -54.959   4.559  1.00  0.00     0.161 HD
ENDBRANCH  18  19
ENDBRANCH  17  18
ENDBRANCH  16  17
ENDBRANCH   1  16
BRANCH   6  24
HETATM   24  C8  UNL     1     -31.069 -59.800  10.899  1.00  0.00     0.156 C 
BRANCH  24  25
HETATM   25  N5  UNL     1     -32.436 -59.380  10.585  1.00  0.00    -0.364 N 
HETATM   26  C9  UNL     1     -32.715 -59.191   9.340  1.00  0.00     0.197 C 
HETATM   27  N6  UNL     1     -34.033 -58.776   8.928  1.00  0.00    -0.067 NA
HETATM   28  N7  UNL     1     -31.774 -59.369   8.302  1.00  0.00    -0.067 NA
ATOM     29  H5  UNL     1     -33.134 -59.242  11.316  1.00  0.00     0.161 HD
ENDBRANCH  24  25
ENDBRANCH   6  24
TORSDOF 6
ENDMDL
MODEL 2
REMARK VINA RESULT: -8.430835163      2.513      6.234
REMARK  6 active torsions:
REMARK  status: ('A' for Active; 'I' for Inactive)
REMARK    1  A    between atoms: N3_4  and  C2_6 
REMARK    2  A    between atoms: C2_6  and  C3_7 
REMARK    3  A    between atoms: C3_7  and  C4_8 
REMARK    4  A    between atoms: C4_8  and  C5_9 
REMARK    5  A    between atoms: C7_14  and  C8_15 
REMARK    6  A    between atoms: C8_15  and  N5_16 
ROOT
HETATM    1  C5  UNL     1     -33.059 -58.127   8.726  1.00  0.00     0.176 C 
HETATM    2  N4  UNL     1     -33.457 -56.775   9.113  1.00  0.00    -0.346 N 
ATOM      3  H4  UNL     1     -34.143 -56.706   9.865  1.00  0.00     0.163 HD
HETATM    4  C6  UNL     1     -33.012 -55.569   8.577  1.00  0.00     0.242 C 
HETATM    5  O1  UNL     1     -32.511 -54.714   9.407  1.00  0.00    -0.271 OA
HETATM    6  C7  UNL     1     -33.034 -55.126   7.163  1.00  0.00     0.194 C 
HETATM    7  N8  UNL     1     -34.132 -55.586   6.380  1.00  0.00    -0.345 N 
ATOM      8  H8  UNL     1     -34.547 -54.890   5.760  1.00  0.00     0.163 HD
HETATM    9  C10 UNL     1     -34.725 -56.852   6.338  1.00  0.00     0.236 C 
HETATM   10  O2  UNL     1     -35.977 -56.967   6.607  1.00  0.00    -0.272 OA
HETATM   11  C11 UNL     1     -34.072 -58.150   6.006  1.00  0.00     0.225 C 
HETATM   12  N9  UNL     1     -34.547 -59.115   6.968  1.00  0.00    -0.351 N 
ATOM     13  H9  UNL     1     -35.081 -59.928   6.658  1.00  0.00     0.163 HD
HETATM   14  C12 UNL     1     -34.270 -58.928   8.337  1.00  0.00     0.240 C 
HETATM   15  O3  UNL     1     -35.013 -59.418   9.238  1.00  0.00    -0.271 OA
ENDROOT
BRANCH   1  16
HETATM   16  C4  UNL     1     -32.426 -58.802   9.923  1.00  0.00     0.036 C 
BRANCH  16  17
HETATM   17  C3  UNL     1     -32.103 -57.893  11.054  1.00  0.00     0.022 C 
BRANCH  17  18
HETATM   18  C2  UNL     1     -30.626 -57.773  11.217  1.00  0.00     0.122 C 
BRANCH  18  19
HETATM   19  N3  UNL     1     -30.127 -56.483  10.718  1.00  0.00    -0.367 N 
HETATM   20  C1  UNL     1     -29.386 -56.518   9.666  1.00  0.00     0.196 C 
HETATM   21  N1  UNL     1     -28.866 -55.294   9.128  1.00  0.00    -0.067 NA
HETATM   22  N2  UNL     1     -29.056 -57.732   9.007  1.00  0.00    -0.067 NA
ATOM     23  H3  UNL     1     -30.356 -55.604  11.183  1.00  0.00     0.161 HD
ENDBRANCH  18  19
ENDBRANCH  17  18
ENDBRANCH  16  17
ENDBRANCH   1  16
BRANCH   6  24
HETATM   24  C8  UNL     1     -31.698 -55.391   6.464  1.00  0.00     0.156 C 
BRANCH  24  25
HETATM   25  N5  UNL     1     -30.671 -54.491   6.991  1.00  0.00    -0.364 N 
HETATM   26  C9  UNL     1     -30.280 -53.536   6.218  1.00  0.00     0.197 C 
HETATM   27  N6  UNL     1     -29.273 -52.597   6.644  1.00  0.00    -0.067 NA
HETATM   28  N7  UNL     1     -30.794 -53.338   4.917  1.00  0.00    -0.067 NA
ATOM     29  H5  UNL     1     -30.282 -54.614   7.926  1.00  0.00     0.161 HD
ENDBRANCH  24  25
ENDBRANCH   6  24
TORSDOF 6
ENDMDL
MODEL 3
REMARK VINA RESULT: -8.359775724      3.302      5.999
REMARK  6 active torsions:
REMARK  status: ('A' for Active; 'I' for Inactive)
REMARK    1  A    between atoms: N3_4  and  C2_6 
REMARK    2  A    between atoms: C2_6  and  C3_7 
REMARK    3  A    between atoms: C3_7  and  C4_8 
REMARK    4  A    between atoms: C4_8  and  C5_9 
REMARK    5  A    between atoms: C7_14  and  C8_15 
REMARK    6  A    between atoms: C8_15  and  N5_16 
ROOT
HETATM    1  C5  UNL     1     -34.298 -57.759   7.948  1.00  0.00     0.176 C 
HETATM    2  N4  UNL     1     -33.048 -58.196   8.567  1.00  0.00    -0.346 N 
ATOM      3  H4  UNL     1     -33.132 -58.900   9.300  1.00  0.00     0.163 HD
HETATM    4  C6  UNL     1     -31.756 -57.767   8.274  1.00  0.00     0.242 C 
HETATM    5  O1  UNL     1     -30.897 -58.680   7.959  1.00  0.00    -0.271 OA
HETATM    6  C7  UNL     1     -31.224 -56.384   8.274  1.00  0.00     0.194 C 
HETATM    7  N8  UNL     1     -31.782 -55.498   9.241  1.00  0.00    -0.345 N 
ATOM      8  H8  UNL     1     -31.112 -54.893   9.716  1.00  0.00     0.163 HD
HETATM    9  C10 UNL     1     -33.114 -55.338   9.634  1.00  0.00     0.236 C 
HETATM   10  O2  UNL     1     -33.429 -55.509  10.869  1.00  0.00    -0.272 OA
HETATM   11  C11 UNL     1     -34.278 -54.977   8.776  1.00  0.00     0.225 C 
HETATM   12  N9  UNL     1     -35.366 -55.843   9.160  1.00  0.00    -0.351 N 
ATOM     13  H9  UNL     1     -36.224 -55.448   9.546  1.00  0.00     0.163 HD
HETATM   14  C12 UNL     1     -35.237 -57.237   8.999  1.00  0.00     0.240 C 
HETATM   15  O3  UNL     1     -35.891 -58.052   9.715  1.00  0.00    -0.271 OA
ENDROOT
BRANCH   1  16
HETATM   16  C4  UNL     1     -34.956 -58.956   7.297  1.00  0.00     0.036 C 
BRANCH  16  17
HETATM   17  C3  UNL     1     -34.999 -58.914   5.812  1.00  0.00     0.022 C 
BRANCH  17  18
HETATM   18  C2  UNL     1     -35.062 -57.504   5.335  1.00  0.00     0.122 C 
BRANCH  18  19
HETATM   19  N3  UNL     1     -36.437 -57.102   5.004  1.00  0.00    -0.367 N 
HETATM   20  C1  UNL     1     -36.766 -55.888   5.279  1.00  0.00     0.196 C 
HETATM   21  N1  UNL     1     -38.093 -55.432   4.981  1.00  0.00    -0.067 NA
HETATM   22  N2  UNL     1     -35.860 -54.969   5.873  1.00  0.00    -0.067 NA
ATOM     23  H3  UNL     1     -37.097 -57.752   4.577  1.00  0.00     0.161 HD
ENDBRANCH  18  19
ENDBRANCH  17  18
ENDBRANCH  16  17
ENDBRANCH   1  16
BRANCH   6  24
HETATM   24  C8  UNL     1     -31.243 -55.767   6.873  1.00  0.00     0.156 C 
BRANCH  24  25
HETATM   25  N5  UNL     1     -30.096 -54.872   6.705  1.00  0.00    -0.364 N 
HETATM   26  C9  UNL     1     -30.340 -53.606   6.711  1.00  0.00     0.197 C 
HETATM   27  N6  UNL     1     -29.280 -52.643   6.553  1.00  0.00    -0.067 NA
HETATM   28  N7  UNL     1     -31.638 -53.071   6.866  1.00  0.00    -0.067 NA
ATOM     29  H5  UNL     1     -29.149 -55.233   6.589  1.00  0.00     0.161 HD
ENDBRANCH  24  25
ENDBRANCH   6  24
TORSDOF 6
ENDMDL
MODEL 4
REMARK VINA RESULT: -8.301397343      1.774      2.244
REMARK  6 active torsions:
REMARK  status: ('A' for Active; 'I' for Inactive)
REMARK    1  A    between atoms: N3_4  and  C2_6 
REMARK    2  A    between atoms: C2_6  and  C3_7 
REMARK    3  A    between atoms: C3_7  and  C4_8 
REMARK    4  A    between atoms: C4_8  and  C5_9 
REMARK    5  A    between atoms: C7_14  and  C8_15 
REMARK    6  A    between atoms: C8_15  and  N5_16 
ROOT
HETATM    1  C5  UNL     1     -30.345 -56.385   9.004  1.00  0.00     0.176 C 
HETATM    2  N4  UNL     1     -30.592 -56.326  10.444  1.00  0.00    -0.346 N 
ATOM      3  H4  UNL     1     -30.400 -55.432  10.896  1.00  0.00     0.163 HD
HETATM    4  C6  UNL     1     -31.057 -57.345  11.272  1.00  0.00     0.242 C 
HETATM    5  O1  UNL     1     -32.115 -57.090  11.968  1.00  0.00    -0.271 OA
HETATM    6  C7  UNL     1     -30.495 -58.702  11.466  1.00  0.00     0.194 C 
HETATM    7  N8  UNL     1     -29.077 -58.811  11.374  1.00  0.00    -0.345 N 
ATOM      8  H8  UNL     1     -28.640 -59.410  12.075  1.00  0.00     0.163 HD
HETATM    9  C10 UNL     1     -28.197 -58.218  10.464  1.00  0.00     0.236 C 
HETATM   10  O2  UNL     1     -27.252 -57.466  10.905  1.00  0.00    -0.272 OA
HETATM   11  C11 UNL     1     -28.204 -58.344   8.979  1.00  0.00     0.225 C 
HETATM   12  N9  UNL     1     -27.987 -57.021   8.445  1.00  0.00    -0.351 N 
ATOM     13  H9  UNL     1     -27.161 -56.826   7.879  1.00  0.00     0.163 HD
HETATM   14  C12 UNL     1     -28.923 -56.001   8.710  1.00  0.00     0.240 C 
HETATM   15  O3  UNL     1     -28.593 -54.778   8.704  1.00  0.00    -0.271 OA
ENDROOT
BRANCH   1  16
HETATM   16  C4  UNL     1     -31.245 -55.377   8.323  1.00  0.00     0.036 C 
BRANCH  16  17
HETATM   17  C3  UNL     1     -31.341 -55.523   6.846  1.00  0.00     0.022 C 
BRANCH  17  18
HETATM   18  C2  UNL     1     -32.740 -55.847   6.447  1.00  0.00     0.122 C 
BRANCH  18  19
HETATM   19  N3  UNL     1     -33.618 -56.000   7.616  1.00  0.00    -0.367 N 
HETATM   20  C1  UNL     1     -34.727 -55.347   7.595  1.00  0.00     0.196 C 
HETATM   21  N1  UNL     1     -35.630 -55.453   8.704  1.00  0.00    -0.067 NA
HETATM   22  N2  UNL     1     -35.101 -54.515   6.505  1.00  0.00    -0.067 NA
ATOM     23  H3  UNL     1     -33.361 -56.593   8.405  1.00  0.00     0.161 HD
ENDBRANCH  18  19
ENDBRANCH  17  18
ENDBRANCH  16  17
ENDBRANCH   1  16
BRANCH   6  24
HETATM   24  C8  UNL     1     -31.194 -59.739  10.583  1.00  0.00     0.156 C 
BRANCH  24  25
HETATM   25  N5  UNL     1     -32.612 -59.399  10.441  1.00  0.00    -0.364 N 
HETATM   26  C9  UNL     1     -33.021 -59.090   9.257  1.00  0.00     0.197 C 
HETATM   27  N6  UNL     1     -34.398 -58.742   9.013  1.00  0.00    -0.067 NA
HETATM   28  N7  UNL     1     -32.171 -59.067   8.129  1.00  0.00    -0.067 NA
ATOM     29  H5  UNL     1     -33.246 -59.407  11.239  1.00  0.00     0.161 HD
ENDBRANCH  24  25
ENDBRANCH   6  24
TORSDOF 6
ENDMDL
MODEL 5
REMARK VINA RESULT: -8.143302537      2.446      6.310
REMARK  6 active torsions:
REMARK  status: ('A' for Active; 'I' for Inactive)
REMARK    1  A    between atoms: N3_4  and  C2_6 
REMARK    2  A    between atoms: C2_6  and  C3_7 
REMARK    3  A    between atoms: C3_7  and  C4_8 
REMARK    4  A    between atoms: C4_8  and  C5_9 
REMARK    5  A    between atoms: C7_14  and  C8_15 
REMARK    6  A    between atoms: C8_15  and  N5_16 
ROOT
HETATM    1  C5  UNL     1     -33.011 -58.057   9.038  1.00  0.00     0.176 C 
HETATM    2  N4  UNL     1     -33.456 -56.685   9.275  1.00  0.00    -0.346 N 
ATOM      3  H4  UNL     1     -34.178 -56.563   9.986  1.00  0.00     0.163 HD
HETATM    4  C6  UNL     1     -33.012 -55.524   8.648  1.00  0.00     0.242 C 
HETATM    5  O1  UNL     1     -32.570 -54.581   9.413  1.00  0.00    -0.271 OA
HETATM    6  C7  UNL     1     -32.976 -55.217   7.198  1.00  0.00     0.194 C 
HETATM    7  N8  UNL     1     -34.026 -55.778   6.414  1.00  0.00    -0.345 N 
ATOM      8  H8  UNL     1     -34.426 -55.154   5.712  1.00  0.00     0.163 HD
HETATM    9  C10 UNL     1     -34.588 -57.057   6.466  1.00  0.00     0.236 C 
HETATM   10  O2  UNL     1     -35.849 -57.179   6.688  1.00  0.00    -0.272 OA
HETATM   11  C11 UNL     1     -33.893 -58.363   6.290  1.00  0.00     0.225 C 
HETATM   12  N9  UNL     1     -34.392 -59.245   7.317  1.00  0.00    -0.351 N 
ATOM     13  H9  UNL     1     -34.892 -60.097   7.063  1.00  0.00     0.163 HD
HETATM   14  C12 UNL     1     -34.184 -58.922   8.673  1.00  0.00     0.240 C 
HETATM   15  O3  UNL     1     -34.958 -59.344   9.583  1.00  0.00    -0.271 OA
ENDROOT
BRANCH   1  16
HETATM   16  C4  UNL     1     -32.421 -58.598  10.322  1.00  0.00     0.036 C 
BRANCH  16  17
HETATM   17  C3  UNL     1     -31.155 -59.359  10.156  1.00  0.00     0.022 C 
BRANCH  17  18
HETATM   18  C2  UNL     1     -30.039 -58.668  10.862  1.00  0.00     0.122 C 
BRANCH  18  19
HETATM   19  N3  UNL     1     -28.753 -58.871  10.179  1.00  0.00    -0.367 N 
HETATM   20  C1  UNL     1     -28.381 -57.950   9.362  1.00  0.00     0.196 C 
HETATM   21  N1  UNL     1     -27.136 -58.087   8.663  1.00  0.00    -0.067 NA
HETATM   22  N2  UNL     1     -29.160 -56.787   9.118  1.00  0.00    -0.067 NA
ATOM     23  H3  UNL     1     -28.185 -59.702  10.345  1.00  0.00     0.161 HD
ENDBRANCH  18  19
ENDBRANCH  17  18
ENDBRANCH  16  17
ENDBRANCH   1  16
BRANCH   6  24
HETATM   24  C8  UNL     1     -31.604 -55.512   6.588  1.00  0.00     0.156 C 
BRANCH  24  25
HETATM   25  N5  UNL     1     -30.620 -54.545   7.080  1.00  0.00    -0.364 N 
HETATM   26  C9  UNL     1     -30.277 -53.601   6.271  1.00  0.00     0.197 C 
HETATM   27  N6  UNL     1     -29.316 -52.599   6.660  1.00  0.00    -0.067 NA
HETATM   28  N7  UNL     1     -30.801 -53.475   4.965  1.00  0.00    -0.067 NA
ATOM     29  H5  UNL     1     -30.225 -54.614   8.018  1.00  0.00     0.161 HD
ENDBRANCH  24  25
ENDBRANCH   6  24
TORSDOF 6
ENDMDL
