MODEL 1
REMARK VINA RESULT: -8.440200067      0.000      0.000
REMARK  10 active torsions:
REMARK  status: ('A' for Active; 'I' for Inactive)
REMARK    1  A    between atoms: C4_4  and  O1_5 
REMARK    2  A    between atoms: O1_5  and  C5_6 
REMARK    3  A    between atoms: C8_11  and  O4_12 
REMARK    4  A    between atoms: C9_14  and  O5_15 
REMARK    5  A    between atoms: C10_17  and  O6_18 
REMARK    6  A    between atoms: C11_20  and  O7_21 
REMARK    7  A    between atoms: O7_21  and  C12_22 
REMARK    8  A    between atoms: C13_23  and  N1_24 
REMARK    9  A    between atoms: C15_29  and  N2_30 
REMARK   10  A    between atoms: C20_36  and  O9_37 
ROOT
HETATM    1  C1  UNL     1      19.116  10.488   1.477  1.00  0.00     0.040 C 
HETATM    2  C2  UNL     1      18.325  11.044   2.622  1.00  0.00     0.123 C 
HETATM    3  C3  UNL     1      18.210   9.988   3.705  1.00  0.00     0.066 C 
HETATM    4  C4  UNL     1      16.726   9.667   3.882  1.00  0.00     0.160 C 
HETATM    5  C10 UNL     1      16.223   9.342   2.524  1.00  0.00     0.202 C 
HETATM    6  C11 UNL     1      16.335  10.531   1.632  1.00  0.00     0.291 C 
HETATM    7  O10 UNL     1      17.112  11.489   2.209  1.00  0.00    -0.354 OA
ENDROOT
BRANCH   6   8
HETATM    8  O7  UNL     1      16.775  10.106   0.393  1.00  0.00    -0.349 OA
BRANCH   8   9
HETATM    9  C12 UNL     1      15.894  10.195  -0.639  1.00  0.00     0.186 C 
HETATM   10  C13 UNL     1      14.449  10.157  -0.280  1.00  0.00     0.217 C 
HETATM   11  C14 UNL     1      13.728  11.210  -1.107  1.00  0.00     0.074 C 
HETATM   12  C15 UNL     1      14.701  11.392  -2.252  1.00  0.00     0.256 C 
HETATM   13  C20 UNL     1      16.007  11.427  -1.498  1.00  0.00     0.182 C 
BRANCH  10  14
HETATM   14  N1  UNL     1      13.837   8.870  -0.606  1.00  0.00    -0.072 N 
ATOM     15  H13 UNL     1      14.346   8.396  -1.352  1.00  0.00     0.274 HD
ATOM     16  H12 UNL     1      13.982   8.192   0.142  1.00  0.00     0.274 HD
ATOM     17  H11 UNL     1      12.847   8.964  -0.833  1.00  0.00     0.274 HD
ENDBRANCH  10  14
BRANCH  12  18
HETATM   18  N2  UNL     1      14.578  10.285  -3.163  1.00  0.00     0.100 N 
HETATM   19  C16 UNL     1      15.194  10.587  -4.463  1.00  0.00     0.299 C 
HETATM   20  C17 UNL     1      14.468   9.716  -5.481  1.00  0.00     0.198 C 
HETATM   21  O8  UNL     1      14.062   8.516  -4.873  1.00  0.00    -0.388 OA
HETATM   22  C18 UNL     1      12.916   8.805  -4.147  1.00  0.00     0.198 C 
HETATM   23  C19 UNL     1      13.152  10.148  -3.479  1.00  0.00     0.299 C 
ENDBRANCH  12  18
BRANCH  13  24
HETATM   24  O9  UNL     1      17.108  11.491  -2.300  1.00  0.00    -0.391 OA
ATOM     25  H9  UNL     1      17.281  12.337  -2.697  1.00  0.00     0.210 HD
ENDBRANCH  13  24
ENDBRANCH   8   9
ENDBRANCH   6   8
BRANCH   5  26
HETATM   26  O6  UNL     1      14.949   8.775   2.528  1.00  0.00    -0.388 OA
ATOM     27  H6  UNL     1      14.788   8.205   1.785  1.00  0.00     0.210 HD
ENDBRANCH   5  26
BRANCH   4  28
HETATM   28  O1  UNL     1      16.448   8.774   4.849  1.00  0.00    -0.350 OA
BRANCH  28  29
HETATM   29  C5  UNL     1      15.602   9.154   5.847  1.00  0.00     0.294 C 
HETATM   30  O2  UNL     1      14.402   8.438   5.678  1.00  0.00    -0.335 OA
HETATM   31  C6  UNL     1      13.308   9.304   5.737  1.00  0.00     0.341 C 
HETATM   32  O3  UNL     1      13.273   9.814   7.030  1.00  0.00    -0.364 OA
HETATM   33  C7  UNL     1      13.663   8.865   7.973  1.00  0.00     0.205 C 
HETATM   34  C8  UNL     1      15.109   8.885   8.317  1.00  0.00     0.175 C 
HETATM   35  C9  UNL     1      16.091   8.937   7.231  1.00  0.00     0.204 C 
BRANCH  34  36
HETATM   36  O4  UNL     1      15.330   7.742   9.128  1.00  0.00    -0.391 OA
ATOM     37  H4  UNL     1      16.225   7.814   9.437  1.00  0.00     0.210 HD
ENDBRANCH  34  36
BRANCH  35  38
HETATM   38  O5  UNL     1      16.926   7.792   7.292  1.00  0.00    -0.388 OA
ATOM     39  H5  UNL     1      17.168   7.602   8.191  1.00  0.00     0.210 HD
ENDBRANCH  35  38
ENDBRANCH  28  29
ENDBRANCH   4  28
TORSDOF 10
ENDMDL
MODEL 2
REMARK VINA RESULT: -8.082771296      3.632      8.931
REMARK  10 active torsions:
REMARK  status: ('A' for Active; 'I' for Inactive)
REMARK    1  A    between atoms: C4_4  and  O1_5 
REMARK    2  A    between atoms: O1_5  and  C5_6 
REMARK    3  A    between atoms: C8_11  and  O4_12 
REMARK    4  A    between atoms: C9_14  and  O5_15 
REMARK    5  A    between atoms: C10_17  and  O6_18 
REMARK    6  A    between atoms: C11_20  and  O7_21 
REMARK    7  A    between atoms: O7_21  and  C12_22 
REMARK    8  A    between atoms: C13_23  and  N1_24 
REMARK    9  A    between atoms: C15_29  and  N2_30 
REMARK   10  A    between atoms: C20_36  and  O9_37 
ROOT
HETATM    1  C1  UNL     1      19.333   7.276   5.438  1.00  0.00     0.040 C 
HETATM    2  C2  UNL     1      19.045   7.488   3.982  1.00  0.00     0.123 C 
HETATM    3  C3  UNL     1      19.907   8.624   3.466  1.00  0.00     0.066 C 
HETATM    4  C4  UNL     1      18.971   9.735   2.990  1.00  0.00     0.160 C 
HETATM    5  C10 UNL     1      18.058  10.004   4.129  1.00  0.00     0.202 C 
HETATM    6  C11 UNL     1      17.232   8.800   4.426  1.00  0.00     0.291 C 
HETATM    7  O10 UNL     1      17.723   7.711   3.773  1.00  0.00    -0.354 OA
ENDROOT
BRANCH   6   8
HETATM    8  O7  UNL     1      17.149   8.656   5.797  1.00  0.00    -0.349 OA
BRANCH   8   9
HETATM    9  C12 UNL     1      16.018   9.113   6.400  1.00  0.00     0.186 C 
HETATM   10  C13 UNL     1      14.899   9.501   5.497  1.00  0.00     0.217 C 
HETATM   11  C14 UNL     1      13.604   8.973   6.094  1.00  0.00     0.074 C 
HETATM   12  C15 UNL     1      14.005   8.801   7.543  1.00  0.00     0.256 C 
HETATM   13  C20 UNL     1      15.366   8.171   7.377  1.00  0.00     0.182 C 
BRANCH  10  14
HETATM   14  N1  UNL     1      14.758  10.953   5.393  1.00  0.00    -0.072 N 
ATOM     15  H13 UNL     1      14.280  11.338   6.208  1.00  0.00     0.274 HD
ATOM     16  H12 UNL     1      15.657  11.421   5.499  1.00  0.00     0.274 HD
ATOM     17  H11 UNL     1      14.296  11.231   4.527  1.00  0.00     0.274 HD
ENDBRANCH  10  14
BRANCH  12  18
HETATM   18  N2  UNL     1      14.027  10.087   8.188  1.00  0.00     0.100 N 
HETATM   19  C16 UNL     1      15.112  10.174   9.176  1.00  0.00     0.299 C 
HETATM   20  C17 UNL     1      14.660  11.210  10.199  1.00  0.00     0.198 C 
HETATM   21  O8  UNL     1      13.862  12.179   9.571  1.00  0.00    -0.388 OA
HETATM   22  C18 UNL     1      12.600  11.622   9.424  1.00  0.00     0.198 C 
HETATM   23  C19 UNL     1      12.809  10.179   9.001  1.00  0.00     0.299 C 
ENDBRANCH  12  18
BRANCH  13  24
HETATM   24  O9  UNL     1      16.034   7.979   8.550  1.00  0.00    -0.391 OA
ATOM     25  H9  UNL     1      16.295   8.768   9.011  1.00  0.00     0.210 HD
ENDBRANCH  13  24
ENDBRANCH   8   9
ENDBRANCH   6   8
BRANCH   5  26
HETATM   26  O6  UNL     1      17.302  11.165   3.968  1.00  0.00    -0.388 OA
ATOM     27  H6  UNL     1      17.624  11.897   4.481  1.00  0.00     0.210 HD
ENDBRANCH   5  26
BRANCH   4  28
HETATM   28  O1  UNL     1      19.585  10.805   2.453  1.00  0.00    -0.350 OA
BRANCH  28  29
HETATM   29  C5  UNL     1      19.603  10.918   1.095  1.00  0.00     0.294 C 
HETATM   30  O2  UNL     1      19.121   9.707   0.565  1.00  0.00    -0.335 OA
HETATM   31  C6  UNL     1      19.980   9.236  -0.430  1.00  0.00     0.341 C 
HETATM   32  O3  UNL     1      19.929  10.159  -1.469  1.00  0.00    -0.364 OA
HETATM   33  C7  UNL     1      18.651  10.694  -1.626  1.00  0.00     0.205 C 
HETATM   34  C8  UNL     1      18.408  11.957  -0.881  1.00  0.00     0.175 C 
HETATM   35  C9  UNL     1      18.809  12.034   0.525  1.00  0.00     0.204 C 
BRANCH  34  36
HETATM   36  O4  UNL     1      17.022  12.225  -1.016  1.00  0.00    -0.391 OA
ATOM     37  H4  UNL     1      16.936  13.171  -0.975  1.00  0.00     0.210 HD
ENDBRANCH  34  36
BRANCH  35  38
HETATM   38  O5  UNL     1      17.668  12.296   1.329  1.00  0.00    -0.388 OA
ATOM     39  H5  UNL     1      16.877  12.268   0.804  1.00  0.00     0.210 HD
ENDBRANCH  35  38
ENDBRANCH  28  29
ENDBRANCH   4  28
TORSDOF 10
ENDMDL
MODEL 3
REMARK VINA RESULT: -7.997080484      3.772      8.836
REMARK  10 active torsions:
REMARK  status: ('A' for Active; 'I' for Inactive)
REMARK    1  A    between atoms: C4_4  and  O1_5 
REMARK    2  A    between atoms: O1_5  and  C5_6 
REMARK    3  A    between atoms: C8_11  and  O4_12 
REMARK    4  A    between atoms: C9_14  and  O5_15 
REMARK    5  A    between atoms: C10_17  and  O6_18 
REMARK    6  A    between atoms: C11_20  and  O7_21 
REMARK    7  A    between atoms: O7_21  and  C12_22 
REMARK    8  A    between atoms: C13_23  and  N1_24 
REMARK    9  A    between atoms: C15_29  and  N2_30 
REMARK   10  A    between atoms: C20_36  and  O9_37 
ROOT
HETATM    1  C1  UNL     1      14.000  10.043   2.531  1.00  0.00     0.040 C 
HETATM    2  C2  UNL     1      15.149  10.995   2.383  1.00  0.00     0.123 C 
HETATM    3  C3  UNL     1      16.020  10.546   1.224  1.00  0.00     0.066 C 
HETATM    4  C4  UNL     1      17.404  10.222   1.785  1.00  0.00     0.160 C 
HETATM    5  C10 UNL     1      17.171   9.272   2.901  1.00  0.00     0.202 C 
HETATM    6  C11 UNL     1      16.377   9.925   3.980  1.00  0.00     0.291 C 
HETATM    7  O10 UNL     1      15.849  11.100   3.540  1.00  0.00    -0.354 OA
ENDROOT
BRANCH   6   8
HETATM    8  O7  UNL     1      15.444   9.018   4.445  1.00  0.00    -0.349 OA
BRANCH   8   9
HETATM    9  C12 UNL     1      15.059   9.138   5.745  1.00  0.00     0.186 C 
HETATM   10  C13 UNL     1      13.800   8.441   6.128  1.00  0.00     0.217 C 
HETATM   11  C14 UNL     1      14.022   7.769   7.474  1.00  0.00     0.074 C 
HETATM   12  C15 UNL     1      15.188   8.573   8.008  1.00  0.00     0.256 C 
HETATM   13  C20 UNL     1      16.050   8.658   6.772  1.00  0.00     0.182 C 
BRANCH  10  14
HETATM   14  N1  UNL     1      12.688   9.374   6.297  1.00  0.00    -0.072 N 
ATOM     15  H13 UNL     1      12.347   9.375   7.258  1.00  0.00     0.274 HD
ATOM     16  H12 UNL     1      13.003  10.342   6.238  1.00  0.00     0.274 HD
ATOM     17  H11 UNL     1      11.932   9.191   5.637  1.00  0.00     0.274 HD
ENDBRANCH  10  14
BRANCH  12  18
HETATM   18  N2  UNL     1      14.713   9.847   8.481  1.00  0.00     0.100 N 
HETATM   19  C16 UNL     1      15.670  10.467   9.408  1.00  0.00     0.299 C 
HETATM   20  C17 UNL     1      14.846  11.382  10.306  1.00  0.00     0.198 C 
HETATM   21  O8  UNL     1      13.748  11.886   9.590  1.00  0.00    -0.388 OA
HETATM   22  C18 UNL     1      12.794  10.879   9.564  1.00  0.00     0.198 C 
HETATM   23  C19 UNL     1      13.540   9.579   9.321  1.00  0.00     0.299 C 
ENDBRANCH  12  18
BRANCH  13  24
HETATM   24  O9  UNL     1      17.164   9.428   6.926  1.00  0.00    -0.391 OA
ATOM     25  H9  UNL     1      17.597   9.365   7.769  1.00  0.00     0.210 HD
ENDBRANCH  13  24
ENDBRANCH   8   9
ENDBRANCH   6   8
BRANCH   5  26
HETATM   26  O6  UNL     1      18.339   8.668   3.366  1.00  0.00    -0.388 OA
ATOM     27  H6  UNL     1      18.255   8.313   4.244  1.00  0.00     0.210 HD
ENDBRANCH   5  26
BRANCH   4  28
HETATM   28  O1  UNL     1      18.317   9.852   0.869  1.00  0.00    -0.350 OA
BRANCH  28  29
HETATM   29  C5  UNL     1      19.318  10.728   0.573  1.00  0.00     0.294 C 
HETATM   30  O2  UNL     1      19.007  11.951   1.197  1.00  0.00    -0.335 OA
HETATM   31  C6  UNL     1      19.128  13.004   0.289  1.00  0.00     0.341 C 
HETATM   32  O3  UNL     1      20.474  13.079  -0.056  1.00  0.00    -0.364 OA
HETATM   33  C7  UNL     1      21.303  12.782   1.024  1.00  0.00     0.205 C 
HETATM   34  C8  UNL     1      21.709  11.355   1.125  1.00  0.00     0.175 C 
HETATM   35  C9  UNL     1      20.683  10.320   0.988  1.00  0.00     0.204 C 
BRANCH  34  36
HETATM   36  O4  UNL     1      22.375  11.229   2.370  1.00  0.00    -0.391 OA
ATOM     37  H4  UNL     1      22.619  10.313   2.442  1.00  0.00     0.210 HD
ENDBRANCH  34  36
BRANCH  35  38
HETATM   38  O5  UNL     1      20.632   9.543   2.175  1.00  0.00    -0.388 OA
ATOM     39  H5  UNL     1      20.939   8.660   2.009  1.00  0.00     0.210 HD
ENDBRANCH  35  38
ENDBRANCH  28  29
ENDBRANCH   4  28
TORSDOF 10
ENDMDL
MODEL 4
REMARK VINA RESULT: -7.767628821      3.757      8.550
REMARK  10 active torsions:
REMARK  status: ('A' for Active; 'I' for Inactive)
REMARK    1  A    between atoms: C4_4  and  O1_5 
REMARK    2  A    between atoms: O1_5  and  C5_6 
REMARK    3  A    between atoms: C8_11  and  O4_12 
REMARK    4  A    between atoms: C9_14  and  O5_15 
REMARK    5  A    between atoms: C10_17  and  O6_18 
REMARK    6  A    between atoms: C11_20  and  O7_21 
REMARK    7  A    between atoms: O7_21  and  C12_22 
REMARK    8  A    between atoms: C13_23  and  N1_24 
REMARK    9  A    between atoms: C15_29  and  N2_30 
REMARK   10  A    between atoms: C20_36  and  O9_37 
ROOT
HETATM    1  C1  UNL     1      20.077  12.273   1.393  1.00  0.00     0.040 C 
HETATM    2  C2  UNL     1      19.747  11.723   0.038  1.00  0.00     0.123 C 
HETATM    3  C3  UNL     1      18.529  12.444  -0.508  1.00  0.00     0.066 C 
HETATM    4  C4  UNL     1      17.426  11.405  -0.703  1.00  0.00     0.160 C 
HETATM    5  C10 UNL     1      17.305  10.701   0.598  1.00  0.00     0.202 C 
HETATM    6  C11 UNL     1      18.569   9.978   0.916  1.00  0.00     0.291 C 
HETATM    7  O10 UNL     1      19.570  10.379   0.084  1.00  0.00    -0.354 OA
ENDROOT
BRANCH   6   8
HETATM    8  O7  UNL     1      18.841  10.146   2.260  1.00  0.00    -0.349 OA
BRANCH   8   9
HETATM    9  C12 UNL     1      19.426   9.102   2.907  1.00  0.00     0.186 C 
HETATM   10  C13 UNL     1      20.700   9.398   3.621  1.00  0.00     0.217 C 
HETATM   11  C14 UNL     1      20.661   8.695   4.969  1.00  0.00     0.074 C 
HETATM   12  C15 UNL     1      19.626   7.623   4.704  1.00  0.00     0.256 C 
HETATM   13  C20 UNL     1      18.588   8.424   3.958  1.00  0.00     0.182 C 
BRANCH  10  14
HETATM   14  N1  UNL     1      21.863   8.877   2.903  1.00  0.00    -0.072 N 
ATOM     15  H13 UNL     1      21.610   8.562   1.967  1.00  0.00     0.274 HD
ATOM     16  H12 UNL     1      22.509   9.625   2.652  1.00  0.00     0.274 HD
ATOM     17  H11 UNL     1      22.336   8.140   3.427  1.00  0.00     0.274 HD
ENDBRANCH  10  14
BRANCH  12  18
HETATM   18  N2  UNL     1      20.220   6.566   3.930  1.00  0.00     0.100 N 
HETATM   19  C16 UNL     1      19.457   5.315   4.051  1.00  0.00     0.299 C 
HETATM   20  C17 UNL     1      20.453   4.192   3.791  1.00  0.00     0.198 C 
HETATM   21  O8  UNL     1      21.432   4.628   2.884  1.00  0.00    -0.388 OA
HETATM   22  C18 UNL     1      22.331   5.399   3.606  1.00  0.00     0.198 C 
HETATM   23  C19 UNL     1      21.507   6.248   4.559  1.00  0.00     0.299 C 
ENDBRANCH  12  18
BRANCH  13  24
HETATM   24  O9  UNL     1      17.543   7.681   3.494  1.00  0.00    -0.391 OA
ATOM     25  H9  UNL     1      17.635   6.740   3.581  1.00  0.00     0.210 HD
ENDBRANCH  13  24
ENDBRANCH   8   9
ENDBRANCH   6   8
BRANCH   5  26
HETATM   26  O6  UNL     1      16.172   9.892   0.686  1.00  0.00    -0.388 OA
ATOM     27  H6  UNL     1      15.723   9.963   1.521  1.00  0.00     0.210 HD
ENDBRANCH   5  26
BRANCH   4  28
HETATM   28  O1  UNL     1      16.283  11.879  -1.232  1.00  0.00    -0.350 OA
BRANCH  28  29
HETATM   29  C5  UNL     1      15.331  10.981  -1.608  1.00  0.00     0.294 C 
HETATM   30  O2  UNL     1      14.092  11.649  -1.596  1.00  0.00    -0.335 OA
HETATM   31  C6  UNL     1      13.144  10.900  -0.897  1.00  0.00     0.341 C 
HETATM   32  O3  UNL     1      12.944   9.731  -1.625  1.00  0.00    -0.364 OA
HETATM   33  C7  UNL     1      13.010   9.958  -2.999  1.00  0.00     0.205 C 
HETATM   34  C8  UNL     1      14.355   9.757  -3.599  1.00  0.00     0.175 C 
HETATM   35  C9  UNL     1      15.518  10.356  -2.941  1.00  0.00     0.204 C 
BRANCH  34  36
HETATM   36  O4  UNL     1      14.254  10.215  -4.937  1.00  0.00    -0.391 OA
ATOM     37  H4  UNL     1      14.643  11.083  -4.944  1.00  0.00     0.210 HD
ENDBRANCH  34  36
BRANCH  35  38
HETATM   38  O5  UNL     1      16.153  11.260  -3.832  1.00  0.00    -0.388 OA
ATOM     39  H5  UNL     1      16.998  10.923  -4.103  1.00  0.00     0.210 HD
ENDBRANCH  35  38
ENDBRANCH  28  29
ENDBRANCH   4  28
TORSDOF 10
ENDMDL
MODEL 5
REMARK VINA RESULT: -7.720847081      3.694      8.756
REMARK  10 active torsions:
REMARK  status: ('A' for Active; 'I' for Inactive)
REMARK    1  A    between atoms: C4_4  and  O1_5 
REMARK    2  A    between atoms: O1_5  and  C5_6 
REMARK    3  A    between atoms: C8_11  and  O4_12 
REMARK    4  A    between atoms: C9_14  and  O5_15 
REMARK    5  A    between atoms: C10_17  and  O6_18 
REMARK    6  A    between atoms: C11_20  and  O7_21 
REMARK    7  A    between atoms: O7_21  and  C12_22 
REMARK    8  A    between atoms: C13_23  and  N1_24 
REMARK    9  A    between atoms: C15_29  and  N2_30 
REMARK   10  A    between atoms: C20_36  and  O9_37 
ROOT
HETATM    1  C1  UNL     1      14.404   8.729   1.767  1.00  0.00     0.040 C 
HETATM    2  C2  UNL     1      14.610  10.191   1.508  1.00  0.00     0.123 C 
HETATM    3  C3  UNL     1      15.978  10.398   0.886  1.00  0.00     0.066 C 
HETATM    4  C4  UNL     1      16.793  11.271   1.839  1.00  0.00     0.160 C 
HETATM    5  C10 UNL     1      16.712  10.602   3.162  1.00  0.00     0.202 C 
HETATM    6  C11 UNL     1      15.304  10.578   3.647  1.00  0.00     0.291 C 
HETATM    7  O10 UNL     1      14.448  10.917   2.643  1.00  0.00    -0.354 OA
ENDROOT
BRANCH   6   8
HETATM    8  O7  UNL     1      15.059   9.344   4.215  1.00  0.00    -0.349 OA
BRANCH   8   9
HETATM    9  C12 UNL     1      14.802   9.318   5.551  1.00  0.00     0.186 C 
HETATM   10  C13 UNL     1      13.634   8.502   5.984  1.00  0.00     0.217 C 
HETATM   11  C14 UNL     1      14.033   7.729   7.231  1.00  0.00     0.074 C 
HETATM   12  C15 UNL     1      15.197   8.561   7.726  1.00  0.00     0.256 C 
HETATM   13  C20 UNL     1      15.920   8.818   6.427  1.00  0.00     0.182 C 
BRANCH  10  14
HETATM   14  N1  UNL     1      12.490   9.335   6.350  1.00  0.00    -0.072 N 
ATOM     15  H13 UNL     1      12.655   9.828   7.227  1.00  0.00     0.274 HD
ATOM     16  H12 UNL     1      12.403  10.139   5.728  1.00  0.00     0.274 HD
ATOM     17  H11 UNL     1      11.622   8.799   6.385  1.00  0.00     0.274 HD
ENDBRANCH  10  14
BRANCH  12  18
HETATM   18  N2  UNL     1      14.695   9.750   8.364  1.00  0.00     0.100 N 
HETATM   19  C16 UNL     1      15.727  10.393   9.190  1.00  0.00     0.299 C 
HETATM   20  C17 UNL     1      14.976  11.164  10.268  1.00  0.00     0.198 C 
HETATM   21  O8  UNL     1      13.745  11.610   9.762  1.00  0.00    -0.388 OA
HETATM   22  C18 UNL     1      12.883  10.523   9.792  1.00  0.00     0.198 C 
HETATM   23  C19 UNL     1      13.689   9.318   9.341  1.00  0.00     0.299 C 
ENDBRANCH  12  18
BRANCH  13  24
HETATM   24  O9  UNL     1      16.995   9.648   6.547  1.00  0.00    -0.391 OA
ATOM     25  H9  UNL     1      16.820  10.498   6.933  1.00  0.00     0.210 HD
ENDBRANCH  13  24
ENDBRANCH   8   9
ENDBRANCH   6   8
BRANCH   5  26
HETATM   26  O6  UNL     1      17.608  11.119   4.098  1.00  0.00    -0.388 OA
ATOM     27  H6  UNL     1      18.498  10.810   3.977  1.00  0.00     0.210 HD
ENDBRANCH   5  26
BRANCH   4  28
HETATM   28  O1  UNL     1      18.026  11.590   1.407  1.00  0.00    -0.350 OA
BRANCH  28  29
HETATM   29  C5  UNL     1      18.830  10.581   0.968  1.00  0.00     0.294 C 
HETATM   30  O2  UNL     1      19.497  11.044  -0.182  1.00  0.00    -0.335 OA
HETATM   31  C6  UNL     1      19.394  10.108  -1.213  1.00  0.00     0.341 C 
HETATM   32  O3  UNL     1      20.087   8.977  -0.794  1.00  0.00    -0.364 OA
HETATM   33  C7  UNL     1      21.218   9.307  -0.050  1.00  0.00     0.205 C 
HETATM   34  C8  UNL     1      21.004   9.362   1.420  1.00  0.00     0.175 C 
HETATM   35  C9  UNL     1      19.841  10.089   1.935  1.00  0.00     0.204 C 
BRANCH  34  36
HETATM   36  O4  UNL     1      22.200   9.892   1.966  1.00  0.00    -0.391 OA
ATOM     37  H4  UNL     1      22.066   9.917   2.906  1.00  0.00     0.210 HD
ENDBRANCH  34  36
BRANCH  35  38
HETATM   38  O5  UNL     1      20.278  11.142   2.781  1.00  0.00    -0.388 OA
ATOM     39  H5  UNL     1      20.186  10.897   3.694  1.00  0.00     0.210 HD
ENDBRANCH  35  38
ENDBRANCH  28  29
ENDBRANCH   4  28
TORSDOF 10
ENDMDL
