MODEL 1
REMARK VINA RESULT: -8.607624707      0.000      0.000
REMARK  8 active torsions:
REMARK  status: ('A' for Active; 'I' for Inactive)
REMARK    1  A    between atoms: C3_4  and  O1_5 
REMARK    2  A    between atoms: N2_7  and  C4_8 
REMARK    3  A    between atoms: C4_8  and  C5_9 
REMARK       I    between atoms: C5_9  and  N3_11 
REMARK    4  A    between atoms: N4_14  and  C8_15 
REMARK    5  A    between atoms: C8_15  and  C9_16 
REMARK    6  A    between atoms: C9_16  and  N5_17 
REMARK    7  A    between atoms: N5_17  and  C10_19 
REMARK    8  A    between atoms: N9_26  and  C11_27 
ROOT
HETATM    1  C9  UNL     1      17.677  10.631  -1.804  1.00  0.00     0.183 C 
ENDROOT
BRANCH   1   2
HETATM    2  C8  UNL     1      16.494   9.794  -2.111  1.00  0.00     0.088 C 
BRANCH   2   3
HETATM    3  N4  UNL     1      15.397   9.818  -1.255  1.00  0.00    -0.349 N 
HETATM    4  C7  UNL     1      14.505   8.732  -1.197  1.00  0.00     0.088 C 
HETATM    5  C6  UNL     1      14.321   8.313   0.242  1.00  0.00     0.171 C 
HETATM    6  N3  UNL     1      14.481   9.351   1.205  1.00  0.00    -0.341 N 
HETATM    7  C5  UNL     1      14.009   9.139   2.530  1.00  0.00     0.238 C 
HETATM    8  C17 UNL     1      15.104  10.636   0.940  1.00  0.00     0.171 C 
HETATM    9  O2  UNL     1      13.463   8.046   2.807  1.00  0.00    -0.272 OA
HETATM   10  C16 UNL     1      15.074  10.986  -0.537  1.00  0.00     0.088 C 
BRANCH   7  11
HETATM   11  C4  UNL     1      14.133  10.157   3.598  1.00  0.00     0.238 C 
BRANCH  11  12
HETATM   12  N2  UNL     1      14.938   9.655   4.677  1.00  0.00    -0.270 N 
HETATM   13  C3  UNL     1      16.280   9.655   4.679  1.00  0.00     0.162 A 
HETATM   14  C2  UNL     1      16.658   9.098   5.873  1.00  0.00     0.151 A 
HETATM   15  N1  UNL     1      15.557   8.762   6.592  1.00  0.00    -0.310 N 
HETATM   16  C1  UNL     1      15.500   8.156   7.893  1.00  0.00     0.160 C 
HETATM   17  C18 UNL     1      14.497   9.111   5.843  1.00  0.00     0.330 A 
HETATM   18  O3  UNL     1      13.298   8.950   6.187  1.00  0.00    -0.246 OA
BRANCH  13  19
HETATM   19  O1  UNL     1      17.130  10.106   3.711  1.00  0.00    -0.345 OA
ATOM     20  H1  UNL     1      17.182  11.000   3.395  1.00  0.00     0.219 HD
ENDBRANCH  13  19
ENDBRANCH  11  12
ENDBRANCH   7  11
ENDBRANCH   2   3
ENDBRANCH   1   2
BRANCH   1  21
HETATM   21  N5  UNL     1      18.461  10.187  -0.670  1.00  0.00    -0.218 N 
ATOM     22  H5  UNL     1      18.666   9.196  -0.546  1.00  0.00     0.178 HD
BRANCH  21  23
HETATM   23  C10 UNL     1      18.899  11.049   0.183  1.00  0.00     0.717 A 
HETATM   24  N6  UNL     1      18.377  12.274   0.455  1.00  0.00    -0.115 N 
HETATM   25  N7  UNL     1      19.100  12.870   1.390  1.00  0.00    -0.213 N 
ATOM     26  H6  UNL     1      17.553  12.674   0.006  1.00  0.00     0.207 HD
HETATM   27  N8  UNL     1      20.063  12.034   1.707  1.00  0.00    -0.206 N 
ATOM     28  H7  UNL     1      18.940  13.795   1.788  1.00  0.00     0.210 HD
HETATM   29  N9  UNL     1      19.972  10.911   0.988  1.00  0.00    -0.066 N 
ATOM     30  H8  UNL     1      20.783  12.217   2.405  1.00  0.00     0.211 HD
BRANCH  29  31
HETATM   31  C11 UNL     1      20.808   9.770   1.025  1.00  0.00     0.119 A 
HETATM   32  C12 UNL     1      21.906   9.680   0.202  1.00  0.00     0.037 A 
HETATM   33  C13 UNL     1      22.739   8.568   0.223  1.00  0.00     0.019 A 
HETATM   34  C14 UNL     1      22.440   7.543   1.096  1.00  0.00     0.090 A 
HETATM   35  N10 UNL     1      21.366   7.639   1.895  1.00  0.00    -0.351 N 
HETATM   36  C15 UNL     1      20.563   8.717   1.871  1.00  0.00     0.128 A 
ATOM     37  H10 UNL     1      21.154   6.875   2.536  1.00  0.00     0.166 HD
HETATM   38  N11 UNL     1      19.552   8.773   2.647  1.00  0.00    -0.384 N 
ATOM     39 2H11 UNL     1      18.943   9.590   2.629  1.00  0.00     0.157 HD
ATOM     40 1H11 UNL     1      19.370   7.991   3.275  1.00  0.00     0.157 HD
ENDBRANCH  29  31
ENDBRANCH  21  23
ENDBRANCH   1  21
TORSDOF 8
ENDMDL
MODEL 2
REMARK VINA RESULT: -8.481596828      0.597      1.496
REMARK  8 active torsions:
REMARK  status: ('A' for Active; 'I' for Inactive)
REMARK    1  A    between atoms: C3_4  and  O1_5 
REMARK    2  A    between atoms: N2_7  and  C4_8 
REMARK    3  A    between atoms: C4_8  and  C5_9 
REMARK       I    between atoms: C5_9  and  N3_11 
REMARK    4  A    between atoms: N4_14  and  C8_15 
REMARK    5  A    between atoms: C8_15  and  C9_16 
REMARK    6  A    between atoms: C9_16  and  N5_17 
REMARK    7  A    between atoms: N5_17  and  C10_19 
REMARK    8  A    between atoms: N9_26  and  C11_27 
ROOT
HETATM    1  C9  UNL     1      17.714  10.930  -1.972  1.00  0.00     0.183 C 
ENDROOT
BRANCH   1   2
HETATM    2  C8  UNL     1      16.640   9.979  -2.345  1.00  0.00     0.088 C 
BRANCH   2   3
HETATM    3  N4  UNL     1      15.486   9.914  -1.571  1.00  0.00    -0.349 N 
HETATM    4  C7  UNL     1      14.652   8.782  -1.617  1.00  0.00     0.088 C 
HETATM    5  C6  UNL     1      14.389   8.297  -0.212  1.00  0.00     0.171 C 
HETATM    6  N3  UNL     1      14.425   9.302   0.797  1.00  0.00    -0.341 N 
HETATM    7  C5  UNL     1      13.871   9.013   2.076  1.00  0.00     0.238 C 
HETATM    8  C17 UNL     1      14.994  10.627   0.626  1.00  0.00     0.171 C 
HETATM    9  O2  UNL     1      13.367   7.884   2.273  1.00  0.00    -0.272 OA
HETATM   10  C16 UNL     1      15.051  11.034  -0.836  1.00  0.00     0.088 C 
BRANCH   7  11
HETATM   11  C4  UNL     1      13.864   9.993   3.187  1.00  0.00     0.238 C 
BRANCH  11  12
HETATM   12  N2  UNL     1      14.708   9.540   4.258  1.00  0.00    -0.270 N 
HETATM   13  C3  UNL     1      14.262   9.199   5.477  1.00  0.00     0.162 A 
HETATM   14  C2  UNL     1      15.367   8.827   6.195  1.00  0.00     0.151 A 
HETATM   15  N1  UNL     1      16.477   8.939   5.423  1.00  0.00    -0.310 N 
HETATM   16  C1  UNL     1      17.839   8.652   5.781  1.00  0.00     0.160 C 
HETATM   17  C18 UNL     1      16.059   9.381   4.224  1.00  0.00     0.330 A 
HETATM   18  O3  UNL     1      16.814   9.605   3.245  1.00  0.00    -0.246 OA
BRANCH  13  19
HETATM   19  O1  UNL     1      12.979   9.209   5.943  1.00  0.00    -0.345 OA
ATOM     20  H1  UNL     1      12.199   9.317   5.412  1.00  0.00     0.219 HD
ENDBRANCH  13  19
ENDBRANCH  11  12
ENDBRANCH   7  11
ENDBRANCH   2   3
ENDBRANCH   1   2
BRANCH   1  21
HETATM   21  N5  UNL     1      18.631  10.449  -0.960  1.00  0.00    -0.218 N 
ATOM     22  H5  UNL     1      18.975   9.489  -0.995  1.00  0.00     0.178 HD
BRANCH  21  23
HETATM   23  C10 UNL     1      19.010  11.237  -0.013  1.00  0.00     0.717 A 
HETATM   24  N6  UNL     1      18.486  12.449   0.307  1.00  0.00    -0.115 N 
HETATM   25  N7  UNL     1      19.138  12.959   1.340  1.00  0.00    -0.213 N 
ATOM     26  H6  UNL     1      17.707  12.898  -0.176  1.00  0.00     0.207 HD
HETATM   27  N8  UNL     1      20.060  12.083   1.669  1.00  0.00    -0.206 N 
ATOM     28  H7  UNL     1      18.960  13.857   1.791  1.00  0.00     0.210 HD
HETATM   29  N9  UNL     1      20.012  11.018   0.864  1.00  0.00    -0.066 N 
ATOM     30  H8  UNL     1      20.723  12.201   2.435  1.00  0.00     0.211 HD
BRANCH  29  31
HETATM   31  C11 UNL     1      20.825   9.861   0.883  1.00  0.00     0.119 A 
HETATM   32  C12 UNL     1      21.961   9.791   0.109  1.00  0.00     0.037 A 
HETATM   33  C13 UNL     1      22.773   8.662   0.113  1.00  0.00     0.019 A 
HETATM   34  C14 UNL     1      22.414   7.602   0.918  1.00  0.00     0.090 A 
HETATM   35  N10 UNL     1      21.305   7.679   1.669  1.00  0.00    -0.351 N 
HETATM   36  C15 UNL     1      20.523   8.772   1.662  1.00  0.00     0.128 A 
ATOM     37  H10 UNL     1      21.049   6.888   2.260  1.00  0.00     0.166 HD
HETATM   38  N11 UNL     1      19.476   8.809   2.390  1.00  0.00    -0.384 N 
ATOM     39 2H11 UNL     1      18.883   9.638   2.385  1.00  0.00     0.157 HD
ATOM     40 1H11 UNL     1      19.251   8.000   2.969  1.00  0.00     0.157 HD
ENDBRANCH  29  31
ENDBRANCH  21  23
ENDBRANCH   1  21
TORSDOF 8
ENDMDL
MODEL 3
REMARK VINA RESULT: -8.453542700      2.401      6.654
REMARK  8 active torsions:
REMARK  status: ('A' for Active; 'I' for Inactive)
REMARK    1  A    between atoms: C3_4  and  O1_5 
REMARK    2  A    between atoms: N2_7  and  C4_8 
REMARK    3  A    between atoms: C4_8  and  C5_9 
REMARK       I    between atoms: C5_9  and  N3_11 
REMARK    4  A    between atoms: N4_14  and  C8_15 
REMARK    5  A    between atoms: C8_15  and  C9_16 
REMARK    6  A    between atoms: C9_16  and  N5_17 
REMARK    7  A    between atoms: N5_17  and  C10_19 
REMARK    8  A    between atoms: N9_26  and  C11_27 
ROOT
HETATM    1  C9  UNL     1      12.984  10.704   1.943  1.00  0.00     0.183 C 
ENDROOT
BRANCH   1   2
HETATM    2  C8  UNL     1      13.728  11.686   2.766  1.00  0.00     0.088 C 
BRANCH   2   3
HETATM    3  N4  UNL     1      14.845  11.269   3.484  1.00  0.00    -0.349 N 
HETATM    4  C7  UNL     1      14.859  10.021   4.133  1.00  0.00     0.088 C 
HETATM    5  C6  UNL     1      16.105   9.267   3.738  1.00  0.00     0.171 C 
HETATM    6  N3  UNL     1      17.228  10.077   3.402  1.00  0.00    -0.341 N 
HETATM    7  C5  UNL     1      18.517   9.477   3.344  1.00  0.00     0.238 C 
HETATM    8  C17 UNL     1      17.164  11.497   3.103  1.00  0.00     0.171 C 
HETATM    9  O2  UNL     1      18.624   8.255   3.595  1.00  0.00    -0.272 OA
HETATM   10  C16 UNL     1      15.926  12.145   3.699  1.00  0.00     0.088 C 
BRANCH   7  11
HETATM   11  C4  UNL     1      19.741  10.238   3.002  1.00  0.00     0.238 C 
BRANCH  11  12
HETATM   12  N2  UNL     1      20.263   9.800   1.736  1.00  0.00    -0.270 N 
HETATM   13  C3  UNL     1      19.899  10.315   0.552  1.00  0.00     0.162 A 
HETATM   14  C2  UNL     1      20.617   9.633  -0.395  1.00  0.00     0.151 A 
HETATM   15  N1  UNL     1      21.412   8.712   0.206  1.00  0.00    -0.310 N 
HETATM   16  C1  UNL     1      22.324   7.790  -0.413  1.00  0.00     0.160 C 
HETATM   17  C18 UNL     1      21.187   8.823   1.526  1.00  0.00     0.330 A 
HETATM   18  O3  UNL     1      21.750   8.124   2.407  1.00  0.00    -0.246 OA
BRANCH  13  19
HETATM   19  O1  UNL     1      19.001  11.311   0.300  1.00  0.00    -0.345 OA
ATOM     20  H1  UNL     1      18.765  12.007   0.903  1.00  0.00     0.219 HD
ENDBRANCH  13  19
ENDBRANCH  11  12
ENDBRANCH   7  11
ENDBRANCH   2   3
ENDBRANCH   1   2
BRANCH   1  21
HETATM   21  N5  UNL     1      13.652  10.298   0.724  1.00  0.00    -0.218 N 
ATOM     22  H5  UNL     1      13.904  10.994   0.022  1.00  0.00     0.178 HD
BRANCH  21  23
HETATM   23  C10 UNL     1      13.926   9.054   0.528  1.00  0.00     0.717 A 
HETATM   24  N6  UNL     1      13.773   8.030   1.408  1.00  0.00    -0.115 N 
HETATM   25  N7  UNL     1      14.161   6.896   0.846  1.00  0.00    -0.213 N 
ATOM     26  H6  UNL     1      13.413   8.121   2.358  1.00  0.00     0.207 HD
HETATM   27  N8  UNL     1      14.553   7.197  -0.371  1.00  0.00    -0.206 N 
ATOM     28  H7  UNL     1      14.157   5.970   1.274  1.00  0.00     0.210 HD
HETATM   29  N9  UNL     1      14.424   8.508  -0.601  1.00  0.00    -0.066 N 
ATOM     30  H8  UNL     1      14.908   6.523  -1.049  1.00  0.00     0.211 HD
BRANCH  29  31
HETATM   31  C11 UNL     1      14.731   9.231  -1.777  1.00  0.00     0.119 A 
HETATM   32  C12 UNL     1      13.809   9.341  -2.792  1.00  0.00     0.037 A 
HETATM   33  C13 UNL     1      14.092  10.046  -3.956  1.00  0.00     0.019 A 
HETATM   34  C14 UNL     1      15.330  10.641  -4.075  1.00  0.00     0.090 A 
HETATM   35  N10 UNL     1      16.223  10.529  -3.080  1.00  0.00    -0.351 N 
HETATM   36  C15 UNL     1      15.945   9.846  -1.956  1.00  0.00     0.128 A 
ATOM     37  H10 UNL     1      17.136  10.973  -3.179  1.00  0.00     0.166 HD
HETATM   38  N11 UNL     1      16.820   9.761  -1.032  1.00  0.00    -0.384 N 
ATOM     39 2H11 UNL     1      16.609   9.243  -0.179  1.00  0.00     0.157 HD
ATOM     40 1H11 UNL     1      17.722  10.217  -1.165  1.00  0.00     0.157 HD
ENDBRANCH  29  31
ENDBRANCH  21  23
ENDBRANCH   1  21
TORSDOF 8
ENDMDL
MODEL 4
REMARK VINA RESULT: -8.387816680      2.277      5.359
REMARK  8 active torsions:
REMARK  status: ('A' for Active; 'I' for Inactive)
REMARK    1  A    between atoms: C3_4  and  O1_5 
REMARK    2  A    between atoms: N2_7  and  C4_8 
REMARK    3  A    between atoms: C4_8  and  C5_9 
REMARK       I    between atoms: C5_9  and  N3_11 
REMARK    4  A    between atoms: N4_14  and  C8_15 
REMARK    5  A    between atoms: C8_15  and  C9_16 
REMARK    6  A    between atoms: C9_16  and  N5_17 
REMARK    7  A    between atoms: N5_17  and  C10_19 
REMARK    8  A    between atoms: N9_26  and  C11_27 
ROOT
HETATM    1  C9  UNL     1      17.691  11.683   3.863  1.00  0.00     0.183 C 
ENDROOT
BRANCH   1   2
HETATM    2  C8  UNL     1      16.724  10.787   4.539  1.00  0.00     0.088 C 
BRANCH   2   3
HETATM    3  N4  UNL     1      15.618  10.318   3.836  1.00  0.00    -0.349 N 
HETATM    4  C7  UNL     1      14.430  11.070   3.777  1.00  0.00     0.088 C 
HETATM    5  C6  UNL     1      13.999  11.212   2.338  1.00  0.00     0.171 C 
HETATM    6  N3  UNL     1      14.389  10.146   1.476  1.00  0.00    -0.341 N 
HETATM    7  C5  UNL     1      13.759  10.022   0.206  1.00  0.00     0.238 C 
HETATM    8  C17 UNL     1      15.402   9.155   1.793  1.00  0.00     0.171 C 
HETATM    9  O2  UNL     1      12.878  10.852  -0.113  1.00  0.00    -0.272 OA
HETATM   10  C16 UNL     1      15.614   9.020   3.291  1.00  0.00     0.088 C 
BRANCH   7  11
HETATM   11  C4  UNL     1      14.100   8.949  -0.757  1.00  0.00     0.238 C 
BRANCH  11  12
HETATM   12  N2  UNL     1      14.778   9.499  -1.898  1.00  0.00    -0.270 N 
HETATM   13  C3  UNL     1      16.019  10.008  -1.866  1.00  0.00     0.162 A 
HETATM   14  C2  UNL     1      16.293  10.422  -3.143  1.00  0.00     0.151 A 
HETATM   15  N1  UNL     1      15.230  10.168  -3.947  1.00  0.00    -0.310 N 
HETATM   16  C1  UNL     1      15.096  10.441  -5.351  1.00  0.00     0.160 C 
HETATM   17  C18 UNL     1      14.296   9.596  -3.167  1.00  0.00     0.330 A 
HETATM   18  O3  UNL     1      13.166   9.220  -3.569  1.00  0.00    -0.246 OA
BRANCH  13  19
HETATM   19  O1  UNL     1      16.865  10.112  -0.800  1.00  0.00    -0.345 OA
ATOM     20  H1  UNL     1      16.700  10.614  -0.010  1.00  0.00     0.219 HD
ENDBRANCH  13  19
ENDBRANCH  11  12
ENDBRANCH   7  11
ENDBRANCH   2   3
ENDBRANCH   1   2
BRANCH   1  21
HETATM   21  N5  UNL     1      18.555  11.033   2.900  1.00  0.00    -0.218 N 
ATOM     22  H5  UNL     1      18.901  10.090   3.077  1.00  0.00     0.178 HD
BRANCH  21  23
HETATM   23  C10 UNL     1      18.885  11.649   1.817  1.00  0.00     0.717 A 
HETATM   24  N6  UNL     1      18.306  12.762   1.295  1.00  0.00    -0.115 N 
HETATM   25  N7  UNL     1      18.921  13.102   0.174  1.00  0.00    -0.213 N 
ATOM     26  H6  UNL     1      17.517  13.261   1.707  1.00  0.00     0.207 HD
HETATM   27  N8  UNL     1      19.875  12.218  -0.012  1.00  0.00    -0.206 N 
ATOM     28  H7  UNL     1      18.698  13.894  -0.429  1.00  0.00     0.210 HD
HETATM   29  N9  UNL     1      19.883  11.314   0.973  1.00  0.00    -0.066 N 
ATOM     30  H8  UNL     1      20.522  12.221  -0.800  1.00  0.00     0.211 HD
BRANCH  29  31
HETATM   31  C11 UNL     1      20.746  10.207   1.147  1.00  0.00     0.119 A 
HETATM   32  C12 UNL     1      21.774  10.257   2.060  1.00  0.00     0.037 A 
HETATM   33  C13 UNL     1      22.633   9.181   2.245  1.00  0.00     0.019 A 
HETATM   34  C14 UNL     1      22.434   8.047   1.486  1.00  0.00     0.090 A 
HETATM   35  N10 UNL     1      21.429   8.007   0.597  1.00  0.00    -0.351 N 
HETATM   36  C15 UNL     1      20.600   9.051   0.422  1.00  0.00     0.128 A 
ATOM     37  H10 UNL     1      21.291   7.163   0.041  1.00  0.00     0.166 HD
HETATM   38  N11 UNL     1      19.656   8.975  -0.432  1.00  0.00    -0.384 N 
ATOM     39 2H11 UNL     1      19.027   9.767  -0.565  1.00  0.00     0.157 HD
ATOM     40 1H11 UNL     1      19.547   8.116  -0.971  1.00  0.00     0.157 HD
ENDBRANCH  29  31
ENDBRANCH  21  23
ENDBRANCH   1  21
TORSDOF 8
ENDMDL
MODEL 5
REMARK VINA RESULT: -8.370190599      1.413      1.965
REMARK  8 active torsions:
REMARK  status: ('A' for Active; 'I' for Inactive)
REMARK    1  A    between atoms: C3_4  and  O1_5 
REMARK    2  A    between atoms: N2_7  and  C4_8 
REMARK    3  A    between atoms: C4_8  and  C5_9 
REMARK       I    between atoms: C5_9  and  N3_11 
REMARK    4  A    between atoms: N4_14  and  C8_15 
REMARK    5  A    between atoms: C8_15  and  C9_16 
REMARK    6  A    between atoms: C9_16  and  N5_17 
REMARK    7  A    between atoms: N5_17  and  C10_19 
REMARK    8  A    between atoms: N9_26  and  C11_27 
ROOT
HETATM    1  C9  UNL     1      17.648  10.128  -1.660  1.00  0.00     0.183 C 
ENDROOT
BRANCH   1   2
HETATM    2  C8  UNL     1      16.334  10.371  -2.300  1.00  0.00     0.088 C 
BRANCH   2   3
HETATM    3  N4  UNL     1      15.170   9.986  -1.641  1.00  0.00    -0.349 N 
HETATM    4  C7  UNL     1      14.751   8.644  -1.646  1.00  0.00     0.088 C 
HETATM    5  C6  UNL     1      14.477   8.201  -0.229  1.00  0.00     0.171 C 
HETATM    6  N3  UNL     1      14.063   9.232   0.663  1.00  0.00    -0.341 N 
HETATM    7  C5  UNL     1      13.470   8.870   1.905  1.00  0.00     0.238 C 
HETATM    8  C17 UNL     1      14.201  10.654   0.406  1.00  0.00     0.171 C 
HETATM    9  O2  UNL     1      13.327   7.655   2.174  1.00  0.00    -0.272 OA
HETATM   10  C16 UNL     1      14.313  10.952  -1.080  1.00  0.00     0.088 C 
BRANCH   7  11
HETATM   11  C4  UNL     1      13.010   9.870   2.897  1.00  0.00     0.238 C 
BRANCH  11  12
HETATM   12  N2  UNL     1      14.018  10.077   3.901  1.00  0.00    -0.270 N 
HETATM   13  C3  UNL     1      14.840  11.137   3.936  1.00  0.00     0.162 A 
HETATM   14  C2  UNL     1      15.640  10.960   5.034  1.00  0.00     0.151 A 
HETATM   15  N1  UNL     1      15.308   9.804   5.663  1.00  0.00    -0.310 N 
HETATM   16  C1  UNL     1      15.892   9.242   6.849  1.00  0.00     0.160 C 
HETATM   17  C18 UNL     1      14.302   9.265   4.954  1.00  0.00     0.330 A 
HETATM   18  O3  UNL     1      13.732   8.181   5.238  1.00  0.00    -0.246 OA
BRANCH  13  19
HETATM   19  O1  UNL     1      14.900  12.193   3.073  1.00  0.00    -0.345 OA
ATOM     20  H1  UNL     1      15.399  12.990   3.210  1.00  0.00     0.219 HD
ENDBRANCH  13  19
ENDBRANCH  11  12
ENDBRANCH   7  11
ENDBRANCH   2   3
ENDBRANCH   1   2
BRANCH   1  21
HETATM   21  N5  UNL     1      17.640  10.177  -0.213  1.00  0.00    -0.218 N 
ATOM     22  H5  UNL     1      17.162   9.451   0.321  1.00  0.00     0.178 HD
BRANCH  21  23
HETATM   23  C10 UNL     1      18.239  11.141   0.399  1.00  0.00     0.717 A 
HETATM   24  N6  UNL     1      18.306  12.442   0.015  1.00  0.00    -0.115 N 
HETATM   25  N7  UNL     1      19.008  13.133   0.899  1.00  0.00    -0.213 N 
ATOM     26  H6  UNL     1      17.880  12.828  -0.827  1.00  0.00     0.207 HD
HETATM   27  N8  UNL     1      19.378  12.282   1.830  1.00  0.00    -0.206 N 
ATOM     28  H7  UNL     1      19.219  14.130   0.866  1.00  0.00     0.210 HD
HETATM   29  N9  UNL     1      18.927  11.054   1.556  1.00  0.00    -0.066 N 
ATOM     30  H8  UNL     1      19.935  12.526   2.648  1.00  0.00     0.211 HD
BRANCH  29  31
HETATM   31  C11 UNL     1      19.104   9.864   2.300  1.00  0.00     0.119 A 
HETATM   32  C12 UNL     1      18.162   9.468   3.221  1.00  0.00     0.037 A 
HETATM   33  C13 UNL     1      18.318   8.303   3.963  1.00  0.00     0.019 A 
HETATM   34  C14 UNL     1      19.449   7.542   3.756  1.00  0.00     0.090 A 
HETATM   35  N10 UNL     1      20.363   7.937   2.856  1.00  0.00    -0.351 N 
HETATM   36  C15 UNL     1      20.208   9.064   2.140  1.00  0.00     0.128 A 
ATOM     37  H10 UNL     1      21.196   7.366   2.711  1.00  0.00     0.166 HD
HETATM   38  N11 UNL     1      21.098   9.406   1.293  1.00  0.00    -0.384 N 
ATOM     39 2H11 UNL     1      20.981  10.262   0.751  1.00  0.00     0.157 HD
ATOM     40 1H11 UNL     1      21.918   8.812   1.174  1.00  0.00     0.157 HD
ENDBRANCH  29  31
ENDBRANCH  21  23
ENDBRANCH   1  21
TORSDOF 8
ENDMDL
