MODEL 1
REMARK VINA RESULT: -5.556381463      0.000      0.000
REMARK  4 active torsions:
REMARK  status: ('A' for Active; 'I' for Inactive)
REMARK    1  A    between atoms: N1_1  and  N2_4 
REMARK       I    between atoms: N2_4  and  C1_6 
REMARK       I    between atoms: C1_6  and  N3_7 
REMARK    2  A    between atoms: N6_12  and  S1_14 
REMARK    3  A    between atoms: S1_14  and  N7_17 
REMARK    4  A    between atoms: N7_17  and  N8_19 
ROOT
HETATM    1  N2  UNL     1       2.650 -16.411  21.290  1.00  0.00    -0.138 N 
ATOM      2  H2  UNL     1       2.420 -15.800  22.074  1.00  0.00     0.205 HD
HETATM    3  C1  UNL     1       1.742 -17.413  20.891  1.00  0.00     0.709 C 
HETATM    4  N3  UNL     1       2.176 -18.758  20.917  1.00  0.00    -0.164 N 
ATOM      5  H3  UNL     1       2.545 -19.118  21.797  1.00  0.00     0.186 HD
HETATM    6  C2  UNL     1       2.141 -19.554  19.926  1.00  0.00     0.215 C 
HETATM    7  N4  UNL     1       1.638 -19.105  18.687  1.00  0.00    -0.066 NA
HETATM    8  N5  UNL     1       2.601 -20.880  20.066  1.00  0.00    -0.066 NA
HETATM    9  N6  UNL     1       0.547 -17.091  20.513  1.00  0.00    -0.097 N 
ATOM     10  H6  UNL     1      -0.109 -17.817  20.223  1.00  0.00     0.199 HD
ENDROOT
BRANCH   1  11
HETATM   11  N1  UNL     1       3.852 -16.254  20.621  1.00  0.00    -0.331 N 
ATOM     12  H12 UNL     1       3.917 -15.553  19.884  1.00  0.00     0.177 HD
ATOM     13  H11 UNL     1       4.654 -16.834  20.866  1.00  0.00     0.177 HD
ENDBRANCH   1  11
BRANCH   9  14
HETATM   14  S1  UNL     1       0.062 -15.439  20.498  1.00  0.00     0.350 S 
HETATM   15  O1  UNL     1      -1.415 -15.281  20.305  1.00  0.00    -0.180 OA
HETATM   16  O2  UNL     1       0.458 -14.847  21.822  1.00  0.00    -0.180 OA
BRANCH  14  17
HETATM   17  N7  UNL     1       0.892 -14.562  19.256  1.00  0.00    -0.216 N 
ATOM     18  H7  UNL     1       1.229 -13.603  19.348  1.00  0.00     0.201 HD
BRANCH  17  19
HETATM   19  N8  UNL     1       1.036 -15.359  18.096  1.00  0.00    -0.335 N 
ATOM     20  H82 UNL     1       1.203 -16.365  18.115  1.00  0.00     0.177 HD
ATOM     21  H81 UNL     1       0.951 -14.787  17.256  1.00  0.00     0.177 HD
ENDBRANCH  17  19
ENDBRANCH  14  17
ENDBRANCH   9  14
TORSDOF 4
ENDMDL
MODEL 2
REMARK VINA RESULT: -5.480596201      3.045      4.822
REMARK  4 active torsions:
REMARK  status: ('A' for Active; 'I' for Inactive)
REMARK    1  A    between atoms: N1_1  and  N2_4 
REMARK       I    between atoms: N2_4  and  C1_6 
REMARK       I    between atoms: C1_6  and  N3_7 
REMARK    2  A    between atoms: N6_12  and  S1_14 
REMARK    3  A    between atoms: S1_14  and  N7_17 
REMARK    4  A    between atoms: N7_17  and  N8_19 
ROOT
HETATM    1  N2  UNL     1       2.678 -16.771  19.160  1.00  0.00    -0.138 N 
ATOM      2  H2  UNL     1       2.994 -17.411  18.432  1.00  0.00     0.205 HD
HETATM    3  C1  UNL     1       1.486 -17.039  19.862  1.00  0.00     0.709 C 
HETATM    4  N3  UNL     1       0.447 -16.083  19.808  1.00  0.00    -0.164 N 
ATOM      5  H3  UNL     1       0.113 -15.801  18.886  1.00  0.00     0.186 HD
HETATM    6  C2  UNL     1      -0.105 -15.547  20.820  1.00  0.00     0.215 C 
HETATM    7  N4  UNL     1       0.319 -15.905  22.117  1.00  0.00    -0.066 NA
HETATM    8  N5  UNL     1      -1.137 -14.601  20.647  1.00  0.00    -0.066 NA
HETATM    9  N6  UNL     1       1.364 -18.139  20.536  1.00  0.00    -0.097 N 
ATOM     10  H6  UNL     1       0.501 -18.331  21.044  1.00  0.00     0.199 HD
ENDROOT
BRANCH   1  11
HETATM   11  N1  UNL     1       3.421 -15.641  19.456  1.00  0.00    -0.331 N 
ATOM     12  H12 UNL     1       3.350 -15.235  20.389  1.00  0.00     0.177 HD
ATOM     13  H11 UNL     1       4.026 -15.226  18.749  1.00  0.00     0.177 HD
ENDBRANCH   1  11
BRANCH   9  14
HETATM   14  S1  UNL     1       2.657 -19.275  20.574  1.00  0.00     0.350 S 
HETATM   15  O1  UNL     1       3.013 -19.779  19.209  1.00  0.00    -0.180 OA
HETATM   16  O2  UNL     1       3.846 -18.575  21.172  1.00  0.00    -0.180 OA
BRANCH  14  17
HETATM   17  N7  UNL     1       2.268 -20.622  21.591  1.00  0.00    -0.216 N 
ATOM     18  H7  UNL     1       1.989 -21.543  21.253  1.00  0.00     0.201 HD
BRANCH  17  19
HETATM   19  N8  UNL     1       2.389 -20.267  22.954  1.00  0.00    -0.335 N 
ATOM     20  H82 UNL     1       3.222 -19.837  23.358  1.00  0.00     0.177 HD
ATOM     21  H81 UNL     1       1.537 -20.500  23.463  1.00  0.00     0.177 HD
ENDBRANCH  17  19
ENDBRANCH  14  17
ENDBRANCH   9  14
TORSDOF 4
ENDMDL
MODEL 3
REMARK VINA RESULT: -5.368241725      2.038      2.533
REMARK  4 active torsions:
REMARK  status: ('A' for Active; 'I' for Inactive)
REMARK    1  A    between atoms: N1_1  and  N2_4 
REMARK       I    between atoms: N2_4  and  C1_6 
REMARK       I    between atoms: C1_6  and  N3_7 
REMARK    2  A    between atoms: N6_12  and  S1_14 
REMARK    3  A    between atoms: S1_14  and  N7_17 
REMARK    4  A    between atoms: N7_17  and  N8_19 
ROOT
HETATM    1  N2  UNL     1       0.514 -16.979  20.852  1.00  0.00    -0.138 N 
ATOM      2  H2  UNL     1      -0.243 -16.644  20.255  1.00  0.00     0.205 HD
HETATM    3  C1  UNL     1       1.587 -17.699  20.289  1.00  0.00     0.709 C 
HETATM    4  N3  UNL     1       1.830 -19.011  20.756  1.00  0.00    -0.164 N 
ATOM      5  H3  UNL     1       1.059 -19.676  20.716  1.00  0.00     0.186 HD
HETATM    6  C2  UNL     1       2.939 -19.425  21.222  1.00  0.00     0.215 C 
HETATM    7  N4  UNL     1       4.037 -18.543  21.297  1.00  0.00    -0.066 NA
HETATM    8  N5  UNL     1       3.069 -20.759  21.660  1.00  0.00    -0.066 NA
HETATM    9  N6  UNL     1       2.320 -17.157  19.370  1.00  0.00    -0.097 N 
ATOM     10  H6  UNL     1       3.097 -17.679  18.964  1.00  0.00     0.199 HD
ENDROOT
BRANCH   1  11
HETATM   11  N1  UNL     1       0.485 -16.724  22.212  1.00  0.00    -0.331 N 
ATOM     12  H12 UNL     1       1.332 -16.387  22.669  1.00  0.00     0.177 HD
ATOM     13  H11 UNL     1      -0.374 -16.872  22.743  1.00  0.00     0.177 HD
ENDBRANCH   1  11
BRANCH   9  14
HETATM   14  S1  UNL     1       1.987 -15.556  18.833  1.00  0.00     0.350 S 
HETATM   15  O1  UNL     1       0.748 -15.484  17.993  1.00  0.00    -0.180 OA
HETATM   16  O2  UNL     1       1.807 -14.703  20.059  1.00  0.00    -0.180 OA
BRANCH  14  17
HETATM   17  N7  UNL     1       3.319 -14.915  17.931  1.00  0.00    -0.216 N 
ATOM     18  H7  UNL     1       3.444 -15.021  16.924  1.00  0.00     0.201 HD
BRANCH  17  19
HETATM   19  N8  UNL     1       4.210 -14.223  18.785  1.00  0.00    -0.335 N 
ATOM     20  H82 UNL     1       5.114 -14.590  19.081  1.00  0.00     0.177 HD
ATOM     21  H81 UNL     1       3.819 -13.319  19.054  1.00  0.00     0.177 HD
ENDBRANCH  17  19
ENDBRANCH  14  17
ENDBRANCH   9  14
TORSDOF 4
ENDMDL
MODEL 4
REMARK VINA RESULT: -5.198730056      1.616      2.136
REMARK  4 active torsions:
REMARK  status: ('A' for Active; 'I' for Inactive)
REMARK    1  A    between atoms: N1_1  and  N2_4 
REMARK       I    between atoms: N2_4  and  C1_6 
REMARK       I    between atoms: C1_6  and  N3_7 
REMARK    2  A    between atoms: N6_12  and  S1_14 
REMARK    3  A    between atoms: S1_14  and  N7_17 
REMARK    4  A    between atoms: N7_17  and  N8_19 
ROOT
HETATM    1  N2  UNL     1       2.722 -15.802  19.678  1.00  0.00    -0.138 N 
ATOM      2  H2  UNL     1       2.828 -14.947  20.225  1.00  0.00     0.205 HD
HETATM    3  C1  UNL     1       2.146 -16.946  20.267  1.00  0.00     0.709 C 
HETATM    4  N3  UNL     1       2.914 -18.130  20.322  1.00  0.00    -0.164 N 
ATOM      5  H3  UNL     1       3.830 -18.078  20.768  1.00  0.00     0.186 HD
HETATM    6  C2  UNL     1       2.551 -19.257  19.858  1.00  0.00     0.215 C 
HETATM    7  N4  UNL     1       1.293 -19.382  19.233  1.00  0.00    -0.066 NA
HETATM    8  N5  UNL     1       3.402 -20.376  19.969  1.00  0.00    -0.066 NA
HETATM    9  N6  UNL     1       0.941 -16.893  20.738  1.00  0.00    -0.097 N 
ATOM     10  H6  UNL     1       0.524 -17.722  21.163  1.00  0.00     0.199 HD
ENDROOT
BRANCH   1  11
HETATM   11  N1  UNL     1       3.146 -15.836  18.361  1.00  0.00    -0.331 N 
ATOM     12  H12 UNL     1       2.610 -15.327  17.658  1.00  0.00     0.177 HD
ATOM     13  H11 UNL     1       3.980 -16.362  18.104  1.00  0.00     0.177 HD
ENDBRANCH   1  11
BRANCH   9  14
HETATM   14  S1  UNL     1       0.041 -15.428  20.649  1.00  0.00     0.350 S 
HETATM   15  O1  UNL     1       0.853 -14.236  21.055  1.00  0.00    -0.180 OA
HETATM   16  O2  UNL     1      -0.402 -15.265  19.221  1.00  0.00    -0.180 OA
BRANCH  14  17
HETATM   17  N7  UNL     1      -1.377 -15.511  21.639  1.00  0.00    -0.216 N 
ATOM     18  H7  UNL     1      -1.373 -15.537  22.659  1.00  0.00     0.201 HD
BRANCH  17  19
HETATM   19  N8  UNL     1      -2.542 -15.536  20.837  1.00  0.00    -0.335 N 
ATOM     20  H82 UNL     1      -2.717 -14.890  20.068  1.00  0.00     0.177 HD
ATOM     21  H81 UNL     1      -3.168 -16.284  21.138  1.00  0.00     0.177 HD
ENDBRANCH  17  19
ENDBRANCH  14  17
ENDBRANCH   9  14
TORSDOF 4
ENDMDL
MODEL 5
REMARK VINA RESULT: -5.138312479      1.800      2.608
REMARK  4 active torsions:
REMARK  status: ('A' for Active; 'I' for Inactive)
REMARK    1  A    between atoms: N1_1  and  N2_4 
REMARK       I    between atoms: N2_4  and  C1_6 
REMARK       I    between atoms: C1_6  and  N3_7 
REMARK    2  A    between atoms: N6_12  and  S1_14 
REMARK    3  A    between atoms: S1_14  and  N7_17 
REMARK    4  A    between atoms: N7_17  and  N8_19 
ROOT
HETATM    1  N2  UNL     1       2.109 -18.621  19.384  1.00  0.00    -0.138 N 
ATOM      2  H2  UNL     1       2.185 -17.937  18.631  1.00  0.00     0.205 HD
HETATM    3  C1  UNL     1       2.788 -18.404  20.600  1.00  0.00     0.709 C 
HETATM    4  N3  UNL     1       3.736 -19.365  21.019  1.00  0.00    -0.164 N 
ATOM      5  H3  UNL     1       4.489 -19.597  20.372  1.00  0.00     0.186 HD
HETATM    6  C2  UNL     1       3.720 -19.963  22.141  1.00  0.00     0.215 C 
HETATM    7  N4  UNL     1       2.700 -19.676  23.071  1.00  0.00    -0.066 NA
HETATM    8  N5  UNL     1       4.721 -20.907  22.454  1.00  0.00    -0.066 NA
HETATM    9  N6  UNL     1       2.535 -17.346  21.303  1.00  0.00    -0.097 N 
ATOM     10  H6  UNL     1       3.026 -17.191  22.184  1.00  0.00     0.199 HD
ENDROOT
BRANCH   1  11
HETATM   11  N1  UNL     1       1.342 -19.759  19.209  1.00  0.00    -0.331 N 
ATOM     12  H12 UNL     1       1.720 -20.659  19.504  1.00  0.00     0.177 HD
ATOM     13  H11 UNL     1       0.414 -19.692  18.791  1.00  0.00     0.177 HD
ENDBRANCH   1  11
BRANCH   9  14
HETATM   14  S1  UNL     1       1.372 -16.202  20.754  1.00  0.00     0.350 S 
HETATM   15  O1  UNL     1       0.273 -16.843  19.961  1.00  0.00    -0.180 OA
HETATM   16  O2  UNL     1       0.787 -15.543  21.972  1.00  0.00    -0.180 OA
BRANCH  14  17
HETATM   17  N7  UNL     1       2.119 -14.972  19.791  1.00  0.00    -0.216 N 
ATOM     18  H7  UNL     1       2.760 -14.263  20.149  1.00  0.00     0.201 HD
BRANCH  17  19
HETATM   19  N8  UNL     1       1.718 -15.086  18.440  1.00  0.00    -0.335 N 
ATOM     20  H82 UNL     1       1.582 -14.288  17.818  1.00  0.00     0.177 HD
ATOM     21  H81 UNL     1       1.589 -16.065  18.185  1.00  0.00     0.177 HD
ENDBRANCH  17  19
ENDBRANCH  14  17
ENDBRANCH   9  14
TORSDOF 4
ENDMDL
