MODEL 1
REMARK VINA RESULT: -6.931603644      0.000      0.000
REMARK  2 active torsions:
REMARK  status: ('A' for Active; 'I' for Inactive)
REMARK    1  A    between atoms: C5_5  and  O1_6 
REMARK    2  A    between atoms: C13_18  and  O4_19 
ROOT
HETATM    1  C1  UNL     1     -14.210  33.610  -2.885  1.00  0.00     0.046 C 
HETATM    2  C2  UNL     1     -14.809  34.181  -1.658  1.00  0.00    -0.056 C 
HETATM    3  C3  UNL     1     -14.896  33.450  -0.546  1.00  0.00    -0.019 C 
HETATM    4  C4  UNL     1     -15.516  34.125   0.631  1.00  0.00     0.071 C 
HETATM    5  C5  UNL     1     -16.837  34.658   0.222  1.00  0.00     0.128 C 
HETATM    6  C6  UNL     1     -16.742  35.505  -1.052  1.00  0.00     0.121 C 
HETATM    7  C7  UNL     1     -17.614  34.899  -2.137  1.00  0.00     0.052 C 
HETATM    8  O2  UNL     1     -17.241  36.786  -0.688  1.00  0.00    -0.365 OA
HETATM    9  C8  UNL     1     -18.254  36.435   0.099  1.00  0.00     0.176 C 
HETATM   10  C9  UNL     1     -18.997  37.311   0.969  1.00  0.00     0.114 C 
HETATM   11 BR1  UNL     1     -20.728  37.708   0.145  1.00  0.00    -0.086 Br
HETATM   12  C10 UNL     1     -19.226  36.375   2.172  1.00  0.00     0.187 C 
HETATM   13  O3  UNL     1     -18.619  35.158   1.822  1.00  0.00    -0.373 OA
HETATM   14  C11 UNL     1     -17.508  35.573   1.149  1.00  0.00     0.118 C 
HETATM   15  C12 UNL     1     -16.661  36.378   2.051  1.00  0.00     0.052 C 
HETATM   16  C13 UNL     1     -15.344  35.569  -1.581  1.00  0.00     0.184 C 
ENDROOT
BRANCH   5  17
HETATM   17  O1  UNL     1     -17.672  33.541  -0.016  1.00  0.00    -0.383 OA
ATOM     18  H1  UNL     1     -18.241  33.774  -0.740  1.00  0.00     0.210 HD
ENDBRANCH   5  17
BRANCH  16  19
HETATM   19  O4  UNL     1     -14.518  36.444  -0.922  1.00  0.00    -0.388 OA
ATOM     20  H4  UNL     1     -14.979  37.055  -0.359  1.00  0.00     0.210 HD
ENDBRANCH  16  19
TORSDOF 2
ENDMDL
MODEL 2
REMARK VINA RESULT: -6.703190627      2.680      4.071
REMARK  2 active torsions:
REMARK  status: ('A' for Active; 'I' for Inactive)
REMARK    1  A    between atoms: C5_5  and  O1_6 
REMARK    2  A    between atoms: C13_18  and  O4_19 
ROOT
HETATM    1  C1  UNL     1     -13.059  32.851  -3.214  1.00  0.00     0.046 C 
HETATM    2  C2  UNL     1     -13.935  33.990  -3.564  1.00  0.00    -0.056 C 
HETATM    3  C3  UNL     1     -13.409  35.161  -3.926  1.00  0.00    -0.019 C 
HETATM    4  C4  UNL     1     -14.383  36.240  -4.257  1.00  0.00     0.071 C 
HETATM    5  C5  UNL     1     -15.320  36.391  -3.119  1.00  0.00     0.128 C 
HETATM    6  C6  UNL     1     -15.934  35.050  -2.703  1.00  0.00     0.121 C 
HETATM    7  C7  UNL     1     -15.582  34.750  -1.257  1.00  0.00     0.052 C 
HETATM    8  O2  UNL     1     -17.339  35.224  -2.834  1.00  0.00    -0.365 OA
HETATM    9  C8  UNL     1     -17.471  36.467  -2.378  1.00  0.00     0.176 C 
HETATM   10  C9  UNL     1     -18.645  37.294  -2.493  1.00  0.00     0.114 C 
HETATM   11 BR1  UNL     1     -19.563  37.340  -0.765  1.00  0.00    -0.086 Br
HETATM   12  C10 UNL     1     -17.990  38.668  -2.740  1.00  0.00     0.187 C 
HETATM   13  O3  UNL     1     -16.606  38.433  -2.719  1.00  0.00    -0.373 OA
HETATM   14  C11 UNL     1     -16.509  37.219  -3.332  1.00  0.00     0.118 C 
HETATM   15  C12 UNL     1     -17.036  37.322  -4.708  1.00  0.00     0.052 C 
HETATM   16  C13 UNL     1     -15.423  33.916  -3.534  1.00  0.00     0.184 C 
ENDROOT
BRANCH   5  17
HETATM   17  O1  UNL     1     -14.571  36.919  -2.042  1.00  0.00    -0.383 OA
ATOM     18  H1  UNL     1     -15.074  37.643  -1.687  1.00  0.00     0.210 HD
ENDBRANCH   5  17
BRANCH  16  19
HETATM   19  O4  UNL     1     -15.995  33.807  -4.776  1.00  0.00    -0.388 OA
ATOM     20  H4  UNL     1     -16.907  34.074  -4.802  1.00  0.00     0.210 HD
ENDBRANCH  16  19
TORSDOF 2
ENDMDL
MODEL 3
REMARK VINA RESULT: -6.667044076      3.939      6.123
REMARK  2 active torsions:
REMARK  status: ('A' for Active; 'I' for Inactive)
REMARK    1  A    between atoms: C5_5  and  O1_6 
REMARK    2  A    between atoms: C13_18  and  O4_19 
ROOT
HETATM    1  C1  UNL     1     -20.659  38.556  -3.174  1.00  0.00     0.046 C 
HETATM    2  C2  UNL     1     -19.257  38.100  -3.047  1.00  0.00    -0.056 C 
HETATM    3  C3  UNL     1     -18.251  38.967  -3.163  1.00  0.00    -0.019 C 
HETATM    4  C4  UNL     1     -16.880  38.398  -3.017  1.00  0.00     0.071 C 
HETATM    5  C5  UNL     1     -16.739  37.269  -3.965  1.00  0.00     0.128 C 
HETATM    6  C6  UNL     1     -17.888  36.264  -3.832  1.00  0.00     0.121 C 
HETATM    7  C7  UNL     1     -18.629  36.154  -5.153  1.00  0.00     0.052 C 
HETATM    8  O2  UNL     1     -17.268  35.023  -3.519  1.00  0.00    -0.365 OA
HETATM    9  C8  UNL     1     -16.198  35.084  -4.307  1.00  0.00     0.176 C 
HETATM   10  C9  UNL     1     -15.051  34.214  -4.252  1.00  0.00     0.114 C 
HETATM   11 BR1  UNL     1     -15.158  32.925  -5.722  1.00  0.00    -0.086 Br
HETATM   12  C10 UNL     1     -13.926  35.221  -4.559  1.00  0.00     0.187 C 
HETATM   13  O3  UNL     1     -14.568  36.456  -4.747  1.00  0.00    -0.373 OA
HETATM   14  C11 UNL     1     -15.562  36.409  -3.816  1.00  0.00     0.118 C 
HETATM   15  C12 UNL     1     -14.967  36.290  -2.469  1.00  0.00     0.052 C 
HETATM   16  C13 UNL     1     -18.881  36.680  -2.793  1.00  0.00     0.184 C 
ENDROOT
BRANCH   5  17
HETATM   17  O1  UNL     1     -16.747  37.824  -5.266  1.00  0.00    -0.383 OA
ATOM     18  H1  UNL     1     -17.655  37.855  -5.545  1.00  0.00     0.210 HD
ENDBRANCH   5  17
BRANCH  16  19
HETATM   19  O4  UNL     1     -18.499  36.434  -1.499  1.00  0.00    -0.388 OA
ATOM     20  H4  UNL     1     -18.858  35.630  -1.141  1.00  0.00     0.210 HD
ENDBRANCH  16  19
TORSDOF 2
ENDMDL
MODEL 4
REMARK VINA RESULT: -6.529912491      3.445      4.391
REMARK  2 active torsions:
REMARK  status: ('A' for Active; 'I' for Inactive)
REMARK    1  A    between atoms: C5_5  and  O1_6 
REMARK    2  A    between atoms: C13_18  and  O4_19 
ROOT
HETATM    1  C1  UNL     1     -13.256  33.015  -2.790  1.00  0.00     0.046 C 
HETATM    2  C2  UNL     1     -14.204  34.151  -2.764  1.00  0.00    -0.056 C 
HETATM    3  C3  UNL     1     -15.051  34.302  -1.745  1.00  0.00    -0.019 C 
HETATM    4  C4  UNL     1     -15.961  35.481  -1.822  1.00  0.00     0.071 C 
HETATM    5  C5  UNL     1     -16.672  35.439  -3.121  1.00  0.00     0.128 C 
HETATM    6  C6  UNL     1     -15.704  35.273  -4.298  1.00  0.00     0.121 C 
HETATM    7  C7  UNL     1     -16.031  33.999  -5.056  1.00  0.00     0.052 C 
HETATM    8  O2  UNL     1     -15.929  36.404  -5.130  1.00  0.00    -0.365 OA
HETATM    9  C8  UNL     1     -17.252  36.505  -5.047  1.00  0.00     0.176 C 
HETATM   10  C9  UNL     1     -18.048  37.621  -5.489  1.00  0.00     0.114 C 
HETATM   11 BR1  UNL     1     -18.920  37.153  -7.178  1.00  0.00    -0.086 Br
HETATM   12  C10 UNL     1     -19.115  37.656  -4.376  1.00  0.00     0.187 C 
HETATM   13  O3  UNL     1     -18.791  36.597  -3.513  1.00  0.00    -0.373 OA
HETATM   14  C11 UNL     1     -17.429  36.631  -3.513  1.00  0.00     0.118 C 
HETATM   15  C12 UNL     1     -16.971  37.935  -2.991  1.00  0.00     0.052 C 
HETATM   16  C13 UNL     1     -14.282  35.174  -3.845  1.00  0.00     0.184 C 
ENDROOT
BRANCH   5  17
HETATM   17  O1  UNL     1     -17.547  34.328  -3.072  1.00  0.00    -0.383 OA
ATOM     18  H1  UNL     1     -17.832  34.163  -3.963  1.00  0.00     0.210 HD
ENDBRANCH   5  17
BRANCH  16  19
HETATM   19  O4  UNL     1     -13.697  36.371  -3.516  1.00  0.00    -0.388 OA
ATOM     20  H4  UNL     1     -13.571  36.490  -2.582  1.00  0.00     0.210 HD
ENDBRANCH  16  19
TORSDOF 2
ENDMDL
MODEL 5
REMARK VINA RESULT: -6.456942346      3.438      5.501
REMARK  2 active torsions:
REMARK  status: ('A' for Active; 'I' for Inactive)
REMARK    1  A    between atoms: C5_5  and  O1_6 
REMARK    2  A    between atoms: C13_18  and  O4_19 
ROOT
HETATM    1  C1  UNL     1     -19.827  39.728  -3.502  1.00  0.00     0.046 C 
HETATM    2  C2  UNL     1     -18.671  38.838  -3.750  1.00  0.00    -0.056 C 
HETATM    3  C3  UNL     1     -18.573  38.159  -4.894  1.00  0.00    -0.019 C 
HETATM    4  C4  UNL     1     -17.368  37.294  -5.037  1.00  0.00     0.071 C 
HETATM    5  C5  UNL     1     -17.294  36.395  -3.862  1.00  0.00     0.128 C 
HETATM    6  C6  UNL     1     -17.398  37.170  -2.543  1.00  0.00     0.121 C 
HETATM    7  C7  UNL     1     -18.603  36.685  -1.757  1.00  0.00     0.052 C 
HETATM    8  O2  UNL     1     -16.203  36.867  -1.835  1.00  0.00    -0.365 OA
HETATM    9  C8  UNL     1     -16.072  35.575  -2.124  1.00  0.00     0.176 C 
HETATM   10  C9  UNL     1     -14.905  34.765  -1.887  1.00  0.00     0.114 C 
HETATM   11 BR1  UNL     1     -15.223  33.634  -0.321  1.00  0.00    -0.086 Br
HETATM   12  C10 UNL     1     -14.924  33.879  -3.148  1.00  0.00     0.187 C 
HETATM   13  O3  UNL     1     -16.052  34.288  -3.877  1.00  0.00    -0.373 OA
HETATM   14  C11 UNL     1     -16.056  35.635  -3.673  1.00  0.00     0.118 C 
HETATM   15  C12 UNL     1     -14.807  36.215  -4.208  1.00  0.00     0.052 C 
HETATM   16  C13 UNL     1     -17.569  38.639  -2.767  1.00  0.00     0.184 C 
ENDROOT
BRANCH   5  17
HETATM   17  O1  UNL     1     -18.381  35.496  -3.967  1.00  0.00    -0.383 OA
ATOM     18  H1  UNL     1     -18.802  35.475  -3.116  1.00  0.00     0.210 HD
ENDBRANCH   5  17
BRANCH  16  19
HETATM   19  O4  UNL     1     -16.417  39.312  -3.086  1.00  0.00    -0.388 OA
ATOM     20  H4  UNL     1     -16.412  39.664  -3.968  1.00  0.00     0.210 HD
ENDBRANCH  16  19
TORSDOF 2
ENDMDL
