MODEL 1
REMARK VINA RESULT: -8.755373443      0.000      0.000
REMARK  12 active torsions:
REMARK  status: ('A' for Active; 'I' for Inactive)
REMARK    1  A    between atoms: C2_2  and  C3_3 
REMARK    2  A    between atoms: C3_3  and  N1_4 
REMARK    3  A    between atoms: N1_4  and  C4_5 
REMARK    4  A    between atoms: N1_4  and  C7_8 
REMARK    5  A    between atoms: C4_5  and  C5_6 
REMARK    6  A    between atoms: C7_8  and  C8_9 
REMARK    7  A    between atoms: C8_9  and  C9_10 
REMARK    8  A    between atoms: C9_10  and  N2_11 
REMARK    9  A    between atoms: C12_14  and  N3_15 
REMARK   10  A    between atoms: C16_22  and  O1_23 
REMARK   11  A    between atoms: N5_25  and  C17_26 
REMARK   12  A    between atoms: C17_26  and  C18_27 
ROOT
HETATM    1  N3  UNL     1     -12.391  19.446 -15.330  1.00  0.00    -0.323 N 
HETATM    2  C13 UNL     1     -12.812  20.239 -14.230  1.00  0.00     0.174 C 
HETATM    3  C14 UNL     1     -14.337  20.177 -14.031  1.00  0.00     0.046 A 
HETATM    4  C15 UNL     1     -15.069  20.214 -15.203  1.00  0.00     0.109 A 
HETATM    5  S1  UNL     1     -16.671  20.377 -14.551  1.00  0.00     0.006 SA
HETATM    6  N4  UNL     1     -16.323  20.386 -12.910  1.00  0.00    -0.305 N 
ATOM      7  H4  UNL     1     -16.973  20.466 -12.128  1.00  0.00     0.176 HD
HETATM    8  C16 UNL     1     -14.994  20.263 -12.872  1.00  0.00     0.157 A 
HETATM    9  N5  UNL     1     -14.519  19.956 -16.482  1.00  0.00    -0.287 N 
HETATM   10  C26 UNL     1     -13.106  19.568 -16.562  1.00  0.00     0.326 C 
HETATM   11  O3  UNL     1     -12.539  19.351 -17.620  1.00  0.00    -0.247 OA
ENDROOT
BRANCH   1  12
HETATM   12  C12 UNL     1     -11.305  18.539 -15.153  1.00  0.00     0.107 C 
HETATM   13  C11 UNL     1      -9.971  19.209 -15.274  1.00  0.00     0.047 C 
HETATM   14  C10 UNL     1      -8.955  18.187 -14.696  1.00  0.00     0.140 C 
HETATM   15  N2  UNL     1      -9.555  16.936 -14.493  1.00  0.00    -0.331 N 
HETATM   16  N8  UNL     1     -10.239  16.445 -15.559  1.00  0.00    -0.142 NA
HETATM   17  C27 UNL     1     -11.318  17.323 -16.055  1.00  0.00     0.160 C 
BRANCH  15  18
HETATM   18  C9  UNL     1      -8.802  15.918 -13.857  1.00  0.00     0.143 C 
BRANCH  18  19
HETATM   19  C8  UNL     1      -8.475  14.705 -14.653  1.00  0.00     0.065 C 
BRANCH  19  20
HETATM   20  C7  UNL     1      -7.104  14.668 -15.254  1.00  0.00     0.064 C 
BRANCH  20  21
HETATM   21  N1  UNL     1      -6.815  15.392 -16.394  1.00  0.00    -0.374 N 
BRANCH  21  22
HETATM   22  C3  UNL     1      -5.662  16.268 -16.374  1.00  0.00     0.126 C 
BRANCH  22  23
HETATM   23  C2  UNL     1      -4.439  15.502 -15.861  1.00  0.00     0.016 C 
HETATM   24  C1  UNL     1      -3.216  16.379 -15.959  1.00  0.00     0.006 C 
ENDBRANCH  22  23
ENDBRANCH  21  22
BRANCH  21  25
HETATM   25  C4  UNL     1      -7.599  15.527 -17.520  1.00  0.00     0.062 C 
BRANCH  25  26
HETATM   26  C5  UNL     1      -7.409  16.707 -18.406  1.00  0.00     0.040 C 
HETATM   27  C6  UNL     1      -8.624  17.515 -18.693  1.00  0.00     0.010 C 
ENDBRANCH  25  26
ENDBRANCH  21  25
ENDBRANCH  20  21
ENDBRANCH  19  20
ENDBRANCH  18  19
ENDBRANCH  15  18
ENDBRANCH   1  12
BRANCH   9  28
HETATM   28  C17 UNL     1     -15.177  20.206 -17.717  1.00  0.00     0.179 C 
BRANCH  28  29
HETATM   29  C18 UNL     1     -15.398  21.622 -18.027  1.00  0.00     0.029 A 
HETATM   30  C19 UNL     1     -16.636  22.200 -17.670  1.00  0.00     0.029 A 
HETATM   31  C20 UNL     1     -16.961  23.443 -18.165  1.00  0.00     0.007 A 
HETATM   32  C21 UNL     1     -18.204  23.994 -17.844  1.00  0.00     0.101 A 
HETATM   33  C24 UNL     1     -16.138  24.169 -19.002  1.00  0.00     0.048 A 
HETATM   34  N6  UNL     1     -18.600  25.179 -18.319  1.00  0.00    -0.374 N 
HETATM   35  C22 UNL     1     -17.784  25.888 -19.137  1.00  0.00     0.090 A 
ATOM     36  H6  UNL     1     -19.516  25.549 -18.066  1.00  0.00     0.164 HD
HETATM   37  C23 UNL     1     -16.554  25.404 -19.488  1.00  0.00     0.047 A 
HETATM   38  N7  UNL     1     -14.976  23.617 -19.331  1.00  0.00    -0.322 N 
HETATM   39  C25 UNL     1     -14.630  22.397 -18.860  1.00  0.00     0.253 A 
ATOM     40  H7  UNL     1     -14.336  24.119 -19.946  1.00  0.00     0.169 HD
HETATM   41  O2  UNL     1     -13.491  21.933 -19.215  1.00  0.00    -0.268 OA
ENDBRANCH  28  29
ENDBRANCH   9  28
BRANCH   8  42
HETATM   42  O1  UNL     1     -14.427  20.234 -11.684  1.00  0.00    -0.345 OA
ATOM     43  H1  UNL     1     -13.947  19.494 -11.330  1.00  0.00     0.219 HD
ENDBRANCH   8  42
TORSDOF 12
ENDMDL
MODEL 2
REMARK VINA RESULT: -8.638688873      2.601      4.108
REMARK  12 active torsions:
REMARK  status: ('A' for Active; 'I' for Inactive)
REMARK    1  A    between atoms: C2_2  and  C3_3 
REMARK    2  A    between atoms: C3_3  and  N1_4 
REMARK    3  A    between atoms: N1_4  and  C4_5 
REMARK    4  A    between atoms: N1_4  and  C7_8 
REMARK    5  A    between atoms: C4_5  and  C5_6 
REMARK    6  A    between atoms: C7_8  and  C8_9 
REMARK    7  A    between atoms: C8_9  and  C9_10 
REMARK    8  A    between atoms: C9_10  and  N2_11 
REMARK    9  A    between atoms: C12_14  and  N3_15 
REMARK   10  A    between atoms: C16_22  and  O1_23 
REMARK   11  A    between atoms: N5_25  and  C17_26 
REMARK   12  A    between atoms: C17_26  and  C18_27 
ROOT
HETATM    1  N3  UNL     1     -14.271  21.684 -17.125  1.00  0.00    -0.323 N 
HETATM    2  C13 UNL     1     -14.034  22.240 -15.840  1.00  0.00     0.174 C 
HETATM    3  C14 UNL     1     -15.229  22.022 -14.894  1.00  0.00     0.046 A 
HETATM    4  C15 UNL     1     -16.467  22.201 -15.484  1.00  0.00     0.109 A 
HETATM    5  S1  UNL     1     -17.484  22.121 -14.079  1.00  0.00     0.006 SA
HETATM    6  N4  UNL     1     -16.327  21.875 -12.889  1.00  0.00    -0.305 N 
ATOM      7  H4  UNL     1     -16.467  21.768 -11.885  1.00  0.00     0.176 HD
HETATM    8  C16 UNL     1     -15.178  21.855 -13.570  1.00  0.00     0.157 A 
HETATM    9  N5  UNL     1     -16.675  22.211 -16.885  1.00  0.00    -0.287 N 
HETATM   10  C26 UNL     1     -15.523  21.958 -17.758  1.00  0.00     0.326 C 
HETATM   11  O3  UNL     1     -15.601  21.971 -18.975  1.00  0.00    -0.247 OA
ENDROOT
BRANCH   1  12
HETATM   12  C12 UNL     1     -13.274  20.850 -17.711  1.00  0.00     0.107 C 
HETATM   13  C11 UNL     1     -13.244  19.479 -17.110  1.00  0.00     0.047 C 
HETATM   14  C10 UNL     1     -12.396  18.628 -18.092  1.00  0.00     0.140 C 
HETATM   15  N2  UNL     1     -11.757  19.437 -19.042  1.00  0.00    -0.331 N 
HETATM   16  N8  UNL     1     -11.064  20.488 -18.531  1.00  0.00    -0.142 NA
HETATM   17  C27 UNL     1     -11.868  21.411 -17.704  1.00  0.00     0.160 C 
BRANCH  15  18
HETATM   18  C9  UNL     1     -11.037  18.813 -20.091  1.00  0.00     0.143 C 
BRANCH  18  19
HETATM   19  C8  UNL     1      -9.554  18.930 -20.072  1.00  0.00     0.065 C 
BRANCH  19  20
HETATM   20  C7  UNL     1      -8.828  17.897 -19.266  1.00  0.00     0.064 C 
BRANCH  20  21
HETATM   21  N1  UNL     1      -8.037  16.949 -19.886  1.00  0.00    -0.374 N 
BRANCH  21  22
HETATM   22  C3  UNL     1      -7.571  15.827 -19.097  1.00  0.00     0.126 C 
BRANCH  22  23
HETATM   23  C2  UNL     1      -8.243  15.846 -17.721  1.00  0.00     0.016 C 
HETATM   24  C1  UNL     1      -7.247  15.432 -16.667  1.00  0.00     0.006 C 
ENDBRANCH  22  23
ENDBRANCH  21  22
BRANCH  21  25
HETATM   25  C4  UNL     1      -7.475  17.020 -21.142  1.00  0.00     0.062 C 
BRANCH  25  26
HETATM   26  C5  UNL     1      -7.226  15.766 -21.903  1.00  0.00     0.040 C 
HETATM   27  C6  UNL     1      -7.215  15.889 -23.386  1.00  0.00     0.010 C 
ENDBRANCH  25  26
ENDBRANCH  21  25
ENDBRANCH  20  21
ENDBRANCH  19  20
ENDBRANCH  18  19
ENDBRANCH  15  18
ENDBRANCH   1  12
BRANCH   9  28
HETATM   28  C17 UNL     1     -17.877  22.616 -17.526  1.00  0.00     0.179 C 
BRANCH  28  29
HETATM   29  C18 UNL     1     -18.066  24.066 -17.633  1.00  0.00     0.029 A 
HETATM   30  C19 UNL     1     -18.496  24.771 -16.487  1.00  0.00     0.029 A 
HETATM   31  C20 UNL     1     -18.913  26.075 -16.623  1.00  0.00     0.007 A 
HETATM   32  C21 UNL     1     -19.377  26.758 -15.495  1.00  0.00     0.101 A 
HETATM   33  C24 UNL     1     -18.941  26.745 -17.829  1.00  0.00     0.048 A 
HETATM   34  N6  UNL     1     -19.833  28.012 -15.560  1.00  0.00    -0.374 N 
HETATM   35  C22 UNL     1     -19.853  28.665 -16.748  1.00  0.00     0.090 A 
ATOM     36  H6  UNL     1     -20.166  28.478 -14.716  1.00  0.00     0.164 HD
HETATM   37  C23 UNL     1     -19.412  28.053 -17.889  1.00  0.00     0.047 A 
HETATM   38  N7  UNL     1     -18.536  26.073 -18.900  1.00  0.00    -0.322 N 
HETATM   39  C25 UNL     1     -18.119  24.791 -18.797  1.00  0.00     0.253 A 
ATOM     40  H7  UNL     1     -18.538  26.530 -19.812  1.00  0.00     0.169 HD
HETATM   41  O2  UNL     1     -17.736  24.210 -19.872  1.00  0.00    -0.268 OA
ENDBRANCH  28  29
ENDBRANCH   9  28
BRANCH   8  42
HETATM   42  O1  UNL     1     -14.073  21.668 -12.879  1.00  0.00    -0.345 OA
ATOM     43  H1  UNL     1     -13.591  22.354 -12.432  1.00  0.00     0.219 HD
ENDBRANCH   8  42
TORSDOF 12
ENDMDL
MODEL 3
REMARK VINA RESULT: -8.613658690      2.590      4.286
REMARK  12 active torsions:
REMARK  status: ('A' for Active; 'I' for Inactive)
REMARK    1  A    between atoms: C2_2  and  C3_3 
REMARK    2  A    between atoms: C3_3  and  N1_4 
REMARK    3  A    between atoms: N1_4  and  C4_5 
REMARK    4  A    between atoms: N1_4  and  C7_8 
REMARK    5  A    between atoms: C4_5  and  C5_6 
REMARK    6  A    between atoms: C7_8  and  C8_9 
REMARK    7  A    between atoms: C8_9  and  C9_10 
REMARK    8  A    between atoms: C9_10  and  N2_11 
REMARK    9  A    between atoms: C12_14  and  N3_15 
REMARK   10  A    between atoms: C16_22  and  O1_23 
REMARK   11  A    between atoms: N5_25  and  C17_26 
REMARK   12  A    between atoms: C17_26  and  C18_27 
ROOT
HETATM    1  N3  UNL     1     -14.316  21.718 -17.132  1.00  0.00    -0.323 N 
HETATM    2  C13 UNL     1     -14.072  22.270 -15.846  1.00  0.00     0.174 C 
HETATM    3  C14 UNL     1     -15.263  22.054 -14.896  1.00  0.00     0.046 A 
HETATM    4  C15 UNL     1     -16.503  22.240 -15.480  1.00  0.00     0.109 A 
HETATM    5  S1  UNL     1     -17.514  22.160 -14.070  1.00  0.00     0.006 SA
HETATM    6  N4  UNL     1     -16.353  21.906 -12.887  1.00  0.00    -0.305 N 
ATOM      7  H4  UNL     1     -16.490  21.796 -11.882  1.00  0.00     0.176 HD
HETATM    8  C16 UNL     1     -15.207  21.883 -13.573  1.00  0.00     0.157 A 
HETATM    9  N5  UNL     1     -16.717  22.255 -16.880  1.00  0.00    -0.287 N 
HETATM   10  C26 UNL     1     -15.569  22.000 -17.759  1.00  0.00     0.326 C 
HETATM   11  O3  UNL     1     -15.653  22.017 -18.976  1.00  0.00    -0.247 OA
ENDROOT
BRANCH   1  12
HETATM   12  C12 UNL     1     -13.325  20.883 -17.725  1.00  0.00     0.107 C 
HETATM   13  C11 UNL     1     -13.309  19.504 -17.138  1.00  0.00     0.047 C 
HETATM   14  C10 UNL     1     -12.466  18.657 -18.128  1.00  0.00     0.140 C 
HETATM   15  N2  UNL     1     -11.817  19.471 -19.067  1.00  0.00    -0.331 N 
HETATM   16  N8  UNL     1     -11.116  20.509 -18.543  1.00  0.00    -0.142 NA
HETATM   17  C27 UNL     1     -11.914  21.431 -17.708  1.00  0.00     0.160 C 
BRANCH  15  18
HETATM   18  C9  UNL     1     -11.100  18.852 -20.121  1.00  0.00     0.143 C 
BRANCH  18  19
HETATM   19  C8  UNL     1      -9.615  18.933 -20.083  1.00  0.00     0.065 C 
BRANCH  19  20
HETATM   20  C7  UNL     1      -8.931  17.952 -19.181  1.00  0.00     0.064 C 
BRANCH  20  21
HETATM   21  N1  UNL     1      -8.030  17.037 -19.691  1.00  0.00    -0.374 N 
BRANCH  21  22
HETATM   22  C3  UNL     1      -7.623  17.176 -21.074  1.00  0.00     0.126 C 
BRANCH  22  23
HETATM   23  C2  UNL     1      -7.231  15.807 -21.637  1.00  0.00     0.016 C 
HETATM   24  C1  UNL     1      -7.147  15.885 -23.141  1.00  0.00     0.006 C 
ENDBRANCH  22  23
ENDBRANCH  21  22
BRANCH  21  25
HETATM   25  C4  UNL     1      -7.588  15.877 -19.093  1.00  0.00     0.062 C 
BRANCH  25  26
HETATM   26  C5  UNL     1      -8.025  15.555 -17.708  1.00  0.00     0.040 C 
HETATM   27  C6  UNL     1      -6.960  15.539 -16.670  1.00  0.00     0.010 C 
ENDBRANCH  25  26
ENDBRANCH  21  25
ENDBRANCH  20  21
ENDBRANCH  19  20
ENDBRANCH  18  19
ENDBRANCH  15  18
ENDBRANCH   1  12
BRANCH   9  28
HETATM   28  C17 UNL     1     -17.920  22.667 -17.514  1.00  0.00     0.179 C 
BRANCH  28  29
HETATM   29  C18 UNL     1     -18.091  24.118 -17.640  1.00  0.00     0.029 A 
HETATM   30  C19 UNL     1     -18.496  24.845 -16.499  1.00  0.00     0.029 A 
HETATM   31  C20 UNL     1     -18.899  26.153 -16.649  1.00  0.00     0.007 A 
HETATM   32  C21 UNL     1     -19.338  26.857 -15.525  1.00  0.00     0.101 A 
HETATM   33  C24 UNL     1     -18.933  26.805 -17.864  1.00  0.00     0.048 A 
HETATM   34  N6  UNL     1     -19.778  28.117 -15.603  1.00  0.00    -0.374 N 
HETATM   35  C22 UNL     1     -19.805  28.752 -16.800  1.00  0.00     0.090 A 
ATOM     36  H6  UNL     1     -20.095  28.599 -14.762  1.00  0.00     0.164 HD
HETATM   37  C23 UNL     1     -19.387  28.119 -17.937  1.00  0.00     0.047 A 
HETATM   38  N7  UNL     1     -18.550  26.112 -18.930  1.00  0.00    -0.322 N 
HETATM   39  C25 UNL     1     -18.149  24.827 -18.814  1.00  0.00     0.253 A 
ATOM     40  H7  UNL     1     -18.558  26.556 -19.849  1.00  0.00     0.169 HD
HETATM   41  O2  UNL     1     -17.788  24.225 -19.885  1.00  0.00    -0.268 OA
ENDBRANCH  28  29
ENDBRANCH   9  28
BRANCH   8  42
HETATM   42  O1  UNL     1     -14.100  21.690 -12.887  1.00  0.00    -0.345 OA
ATOM     43  H1  UNL     1     -13.652  22.358 -12.381  1.00  0.00     0.219 HD
ENDBRANCH   8  42
TORSDOF 12
ENDMDL
MODEL 4
REMARK VINA RESULT: -8.605714655      2.590      4.455
REMARK  12 active torsions:
REMARK  status: ('A' for Active; 'I' for Inactive)
REMARK    1  A    between atoms: C2_2  and  C3_3 
REMARK    2  A    between atoms: C3_3  and  N1_4 
REMARK    3  A    between atoms: N1_4  and  C4_5 
REMARK    4  A    between atoms: N1_4  and  C7_8 
REMARK    5  A    between atoms: C4_5  and  C5_6 
REMARK    6  A    between atoms: C7_8  and  C8_9 
REMARK    7  A    between atoms: C8_9  and  C9_10 
REMARK    8  A    between atoms: C9_10  and  N2_11 
REMARK    9  A    between atoms: C12_14  and  N3_15 
REMARK   10  A    between atoms: C16_22  and  O1_23 
REMARK   11  A    between atoms: N5_25  and  C17_26 
REMARK   12  A    between atoms: C17_26  and  C18_27 
ROOT
HETATM    1  N3  UNL     1     -14.577  22.171 -17.014  1.00  0.00    -0.323 N 
HETATM    2  C13 UNL     1     -14.390  22.671 -15.698  1.00  0.00     0.174 C 
HETATM    3  C14 UNL     1     -15.578  22.327 -14.782  1.00  0.00     0.046 A 
HETATM    4  C15 UNL     1     -16.818  22.459 -15.378  1.00  0.00     0.109 A 
HETATM    5  S1  UNL     1     -17.843  22.238 -13.993  1.00  0.00     0.006 SA
HETATM    6  N4  UNL     1     -16.684  22.003 -12.803  1.00  0.00    -0.305 N 
ATOM      7  H4  UNL     1     -16.827  21.832 -11.808  1.00  0.00     0.176 HD
HETATM    8  C16 UNL     1     -15.529  22.092 -13.468  1.00  0.00     0.157 A 
HETATM    9  N5  UNL     1     -17.012  22.532 -16.779  1.00  0.00    -0.287 N 
HETATM   10  C26 UNL     1     -15.838  22.399 -17.649  1.00  0.00     0.326 C 
HETATM   11  O3  UNL     1     -15.904  22.473 -18.865  1.00  0.00    -0.247 OA
ENDROOT
BRANCH   1  12
HETATM   12  C12 UNL     1     -13.524  21.435 -17.631  1.00  0.00     0.107 C 
HETATM   13  C11 UNL     1     -13.696  19.954 -17.488  1.00  0.00     0.047 C 
HETATM   14  C10 UNL     1     -12.703  19.335 -18.507  1.00  0.00     0.140 C 
HETATM   15  N2  UNL     1     -11.833  20.306 -19.022  1.00  0.00    -0.331 N 
HETATM   16  N8  UNL     1     -11.211  21.074 -18.090  1.00  0.00    -0.142 NA
HETATM   17  C27 UNL     1     -12.124  21.803 -17.185  1.00  0.00     0.160 C 
BRANCH  15  18
HETATM   18  C9  UNL     1     -10.938  19.936 -20.057  1.00  0.00     0.143 C 
BRANCH  18  19
HETATM   19  C8  UNL     1     -10.308  18.591 -19.974  1.00  0.00     0.065 C 
BRANCH  19  20
HETATM   20  C7  UNL     1      -9.122  18.481 -19.066  1.00  0.00     0.064 C 
BRANCH  20  21
HETATM   21  N1  UNL     1      -9.098  17.548 -18.049  1.00  0.00    -0.374 N 
BRANCH  21  22
HETATM   22  C3  UNL     1      -8.175  16.437 -18.161  1.00  0.00     0.126 C 
BRANCH  22  23
HETATM   23  C2  UNL     1      -7.183  16.701 -19.297  1.00  0.00     0.016 C 
HETATM   24  C1  UNL     1      -7.247  15.573 -20.296  1.00  0.00     0.006 C 
ENDBRANCH  22  23
ENDBRANCH  21  22
BRANCH  21  25
HETATM   25  C4  UNL     1      -9.980  17.436 -16.995  1.00  0.00     0.062 C 
BRANCH  25  26
HETATM   26  C5  UNL     1     -10.028  18.508 -15.965  1.00  0.00     0.040 C 
HETATM   27  C6  UNL     1     -11.256  18.557 -15.126  1.00  0.00     0.010 C 
ENDBRANCH  25  26
ENDBRANCH  21  25
ENDBRANCH  20  21
ENDBRANCH  19  20
ENDBRANCH  18  19
ENDBRANCH  15  18
ENDBRANCH   1  12
BRANCH   9  28
HETATM   28  C17 UNL     1     -18.232  22.893 -17.414  1.00  0.00     0.179 C 
BRANCH  28  29
HETATM   29  C18 UNL     1     -18.465  24.336 -17.534  1.00  0.00     0.029 A 
HETATM   30  C19 UNL     1     -18.829  25.054 -16.374  1.00  0.00     0.029 A 
HETATM   31  C20 UNL     1     -19.288  26.345 -16.503  1.00  0.00     0.007 A 
HETATM   32  C21 UNL     1     -19.686  27.039 -15.358  1.00  0.00     0.101 A 
HETATM   33  C24 UNL     1     -19.420  26.989 -17.717  1.00  0.00     0.048 A 
HETATM   34  N6  UNL     1     -20.178  28.280 -15.414  1.00  0.00    -0.374 N 
HETATM   35  C22 UNL     1     -20.300  28.908 -16.609  1.00  0.00     0.090 A 
ATOM     36  H6  UNL     1     -20.462  28.755 -14.557  1.00  0.00     0.164 HD
HETATM   37  C23 UNL     1     -19.927  28.284 -17.767  1.00  0.00     0.047 A 
HETATM   38  N7  UNL     1     -19.075  26.305 -18.802  1.00  0.00    -0.322 N 
HETATM   39  C25 UNL     1     -18.620  25.036 -18.705  1.00  0.00     0.253 A 
ATOM     40  H7  UNL     1     -19.155  26.742 -19.720  1.00  0.00     0.169 HD
HETATM   41  O2  UNL     1     -18.300  24.442 -19.794  1.00  0.00    -0.268 OA
ENDBRANCH  28  29
ENDBRANCH   9  28
BRANCH   8  42
HETATM   42  O1  UNL     1     -14.422  21.939 -12.773  1.00  0.00    -0.345 OA
ATOM     43  H1  UNL     1     -14.068  22.580 -12.169  1.00  0.00     0.219 HD
ENDBRANCH   8  42
TORSDOF 12
ENDMDL
MODEL 5
REMARK VINA RESULT: -8.603307322      0.792      1.767
REMARK  12 active torsions:
REMARK  status: ('A' for Active; 'I' for Inactive)
REMARK    1  A    between atoms: C2_2  and  C3_3 
REMARK    2  A    between atoms: C3_3  and  N1_4 
REMARK    3  A    between atoms: N1_4  and  C4_5 
REMARK    4  A    between atoms: N1_4  and  C7_8 
REMARK    5  A    between atoms: C4_5  and  C5_6 
REMARK    6  A    between atoms: C7_8  and  C8_9 
REMARK    7  A    between atoms: C8_9  and  C9_10 
REMARK    8  A    between atoms: C9_10  and  N2_11 
REMARK    9  A    between atoms: C12_14  and  N3_15 
REMARK   10  A    between atoms: C16_22  and  O1_23 
REMARK   11  A    between atoms: N5_25  and  C17_26 
REMARK   12  A    between atoms: C17_26  and  C18_27 
ROOT
HETATM    1  N3  UNL     1     -12.144  19.039 -15.599  1.00  0.00    -0.323 N 
HETATM    2  C13 UNL     1     -12.455  19.847 -14.474  1.00  0.00     0.174 C 
HETATM    3  C14 UNL     1     -13.968  19.871 -14.188  1.00  0.00     0.046 A 
HETATM    4  C15 UNL     1     -14.762  19.959 -15.316  1.00  0.00     0.109 A 
HETATM    5  S1  UNL     1     -16.312  20.209 -14.572  1.00  0.00     0.006 SA
HETATM    6  N4  UNL     1     -15.871  20.186 -12.953  1.00  0.00    -0.305 N 
ATOM      7  H4  UNL     1     -16.469  20.297 -12.135  1.00  0.00     0.176 HD
HETATM    8  C16 UNL     1     -14.551  19.986 -12.992  1.00  0.00     0.157 A 
HETATM    9  N5  UNL     1     -14.302  19.679 -16.625  1.00  0.00    -0.287 N 
HETATM   10  C26 UNL     1     -12.920  19.211 -16.788  1.00  0.00     0.326 C 
HETATM   11  O3  UNL     1     -12.429  18.969 -17.877  1.00  0.00    -0.247 OA
ENDROOT
BRANCH   1  12
HETATM   12  C12 UNL     1     -11.105  18.070 -15.489  1.00  0.00     0.107 C 
HETATM   13  C11 UNL     1      -9.879  18.615 -14.823  1.00  0.00     0.047 C 
HETATM   14  C10 UNL     1      -9.031  17.366 -14.460  1.00  0.00     0.140 C 
HETATM   15  N2  UNL     1      -9.544  16.211 -15.067  1.00  0.00    -0.331 N 
HETATM   16  N8  UNL     1      -9.773  16.315 -16.402  1.00  0.00    -0.142 NA
HETATM   17  C27 UNL     1     -10.694  17.403 -16.786  1.00  0.00     0.160 C 
BRANCH  15  18
HETATM   18  C9  UNL     1      -8.962  14.960 -14.745  1.00  0.00     0.143 C 
BRANCH  18  19
HETATM   19  C8  UNL     1      -7.568  14.962 -14.227  1.00  0.00     0.065 C 
BRANCH  19  20
HETATM   20  C7  UNL     1      -6.525  14.420 -15.155  1.00  0.00     0.064 C 
BRANCH  20  21
HETATM   21  N1  UNL     1      -5.522  15.236 -15.640  1.00  0.00    -0.374 N 
BRANCH  21  22
HETATM   22  C3  UNL     1      -5.902  16.424 -16.375  1.00  0.00     0.126 C 
BRANCH  22  23
HETATM   23  C2  UNL     1      -6.472  16.028 -17.740  1.00  0.00     0.016 C 
HETATM   24  C1  UNL     1      -5.545  16.503 -18.832  1.00  0.00     0.006 C 
ENDBRANCH  22  23
ENDBRANCH  21  22
BRANCH  21  25
HETATM   25  C4  UNL     1      -4.169  14.973 -15.666  1.00  0.00     0.062 C 
BRANCH  25  26
HETATM   26  C5  UNL     1      -3.206  16.102 -15.772  1.00  0.00     0.040 C 
HETATM   27  C6  UNL     1      -2.256  16.049 -16.916  1.00  0.00     0.010 C 
ENDBRANCH  25  26
ENDBRANCH  21  25
ENDBRANCH  20  21
ENDBRANCH  19  20
ENDBRANCH  18  19
ENDBRANCH  15  18
ENDBRANCH   1  12
BRANCH   9  28
HETATM   28  C17 UNL     1     -15.014  19.976 -17.819  1.00  0.00     0.179 C 
BRANCH  28  29
HETATM   29  C18 UNL     1     -15.205  21.404 -18.089  1.00  0.00     0.029 A 
HETATM   30  C19 UNL     1     -16.441  21.992 -17.740  1.00  0.00     0.029 A 
HETATM   31  C20 UNL     1     -16.734  23.255 -18.202  1.00  0.00     0.007 A 
HETATM   32  C21 UNL     1     -17.975  23.817 -17.890  1.00  0.00     0.101 A 
HETATM   33  C24 UNL     1     -15.882  23.992 -18.999  1.00  0.00     0.048 A 
HETATM   34  N6  UNL     1     -18.341  25.023 -18.336  1.00  0.00    -0.374 N 
HETATM   35  C22 UNL     1     -17.497  25.743 -19.115  1.00  0.00     0.090 A 
ATOM     36  H6  UNL     1     -19.256  25.400 -18.091  1.00  0.00     0.164 HD
HETATM   37  C23 UNL     1     -16.268  25.249 -19.455  1.00  0.00     0.047 A 
HETATM   38  N7  UNL     1     -14.723  23.430 -19.320  1.00  0.00    -0.322 N 
HETATM   39  C25 UNL     1     -14.407  22.192 -18.881  1.00  0.00     0.253 A 
ATOM     40  H7  UNL     1     -14.061  23.940 -19.906  1.00  0.00     0.169 HD
HETATM   41  O2  UNL     1     -13.268  21.719 -19.227  1.00  0.00    -0.268 OA
ENDBRANCH  28  29
ENDBRANCH   9  28
BRANCH   8  42
HETATM   42  O1  UNL     1     -13.920  19.916 -11.839  1.00  0.00    -0.345 OA
ATOM     43  H1  UNL     1     -14.063  19.243 -11.183  1.00  0.00     0.219 HD
ENDBRANCH   8  42
TORSDOF 12
ENDMDL
