MODEL 1
REMARK VINA RESULT: -5.763121624      0.000      0.000
REMARK  12 active torsions:
REMARK  status: ('A' for Active; 'I' for Inactive)
REMARK    1  A    between atoms: C2_2  and  C3_3 
REMARK    2  A    between atoms: C3_3  and  C4_4 
REMARK    3  A    between atoms: C4_4  and  C5_5 
REMARK    4  A    between atoms: C7_10  and  C8_11 
REMARK    5  A    between atoms: C8_11  and  C9_12 
REMARK    6  A    between atoms: N3_21  and  C15_22 
REMARK    7  A    between atoms: C15_22  and  C16_23 
REMARK    8  A    between atoms: C18_28  and  C19_29 
REMARK    9  A    between atoms: C19_29  and  C20_30 
REMARK   10  A    between atoms: C24_37  and  C25_38 
REMARK   11  A    between atoms: C25_38  and  C26_39 
REMARK   12  A    between atoms: C30_46  and  C31_47 
ROOT
HETATM    1  C5  UNL     1      27.223  28.751  16.295  1.00  0.00     0.176 C 
HETATM    2  N1  UNL     1      26.847  27.433  15.843  1.00  0.00    -0.346 N 
ATOM      3  H1  UNL     1      27.361  27.088  15.032  1.00  0.00     0.163 HD
HETATM    4  C6  UNL     1      25.886  26.563  16.352  1.00  0.00     0.241 C 
HETATM    5  O1  UNL     1      26.180  25.314  16.211  1.00  0.00    -0.271 OA
HETATM    6  C7  UNL     1      24.609  26.890  17.013  1.00  0.00     0.177 C 
HETATM    7  N2  UNL     1      24.771  27.199  18.415  1.00  0.00    -0.346 N 
ATOM      8  H2  UNL     1      24.324  28.054  18.747  1.00  0.00     0.163 HD
HETATM    9  C12 UNL     1      25.478  26.451  19.367  1.00  0.00     0.241 C 
HETATM   10  O2  UNL     1      26.392  27.068  20.043  1.00  0.00    -0.271 OA
HETATM   11  C13 UNL     1      25.329  25.027  19.722  1.00  0.00     0.175 C 
HETATM   12  C14 UNL     1      24.003  24.414  19.433  1.00  0.00     0.042 C 
HETATM   13  N3  UNL     1      25.600  24.856  21.153  1.00  0.00    -0.327 N 
HETATM   14  C17 UNL     1      26.489  23.884  21.632  1.00  0.00     0.243 C 
HETATM   15  O5  UNL     1      26.240  23.406  22.793  1.00  0.00    -0.271 OA
HETATM   16  C18 UNL     1      27.677  23.347  20.957  1.00  0.00     0.177 C 
HETATM   17  N4  UNL     1      28.862  23.774  21.713  1.00  0.00    -0.346 N 
ATOM     18  H4  UNL     1      28.749  23.850  22.724  1.00  0.00     0.163 HD
HETATM   19  C23 UNL     1      30.116  24.086  21.214  1.00  0.00     0.241 C 
HETATM   20  O6  UNL     1      31.049  24.283  22.087  1.00  0.00    -0.271 OA
HETATM   21  C24 UNL     1      30.558  24.234  19.818  1.00  0.00     0.177 C 
HETATM   22  N5  UNL     1      30.813  25.684  19.636  1.00  0.00    -0.346 N 
ATOM     23  H5  UNL     1      31.640  26.047  20.109  1.00  0.00     0.163 HD
HETATM   24  C29 UNL     1      30.090  26.605  18.920  1.00  0.00     0.241 C 
HETATM   25  O7  UNL     1      29.657  27.660  19.531  1.00  0.00    -0.271 OA
HETATM   26  C30 UNL     1      29.696  26.603  17.478  1.00  0.00     0.180 C 
HETATM   27  N6  UNL     1      29.607  27.960  16.963  1.00  0.00    -0.346 N 
ATOM     28  H6  UNL     1      30.450  28.323  16.517  1.00  0.00     0.163 HD
HETATM   29  C34 UNL     1      28.511  28.831  17.002  1.00  0.00     0.241 C 
HETATM   30  O8  UNL     1      28.621  29.872  17.769  1.00  0.00    -0.271 OA
ENDROOT
BRANCH   1  31
HETATM   31  C4  UNL     1      27.259  29.700  15.117  1.00  0.00     0.035 C 
BRANCH  31  32
HETATM   32  C3  UNL     1      26.244  30.795  15.140  1.00  0.00     0.002 C 
BRANCH  32  33
HETATM   33  C2  UNL     1      25.591  30.905  16.520  1.00  0.00    -0.004 C 
HETATM   34  C1  UNL     1      25.819  32.292  17.083  1.00  0.00     0.005 C 
ENDBRANCH  32  33
ENDBRANCH  31  32
ENDBRANCH   1  31
BRANCH   6  35
HETATM   35  C8  UNL     1      23.806  27.917  16.279  1.00  0.00     0.038 C 
BRANCH  35  36
HETATM   36  C9  UNL     1      22.339  27.562  16.144  1.00  0.00    -0.020 C 
HETATM   37  C10 UNL     1      22.100  26.741  14.882  1.00  0.00     0.009 C 
HETATM   38  C11 UNL     1      21.794  26.900  17.376  1.00  0.00     0.009 C 
ENDBRANCH  35  36
ENDBRANCH   6  35
BRANCH  26  39
HETATM   39  C31 UNL     1      30.709  25.848  16.641  1.00  0.00     0.009 C 
HETATM   40  C32 UNL     1      31.910  26.748  16.433  1.00  0.00     0.012 C 
HETATM   41  C33 UNL     1      30.099  25.640  15.273  1.00  0.00     0.012 C 
ENDBRANCH  26  39
BRANCH  21  42
HETATM   42  C25 UNL     1      31.826  23.494  19.551  1.00  0.00     0.038 C 
BRANCH  42  43
HETATM   43  C26 UNL     1      31.854  22.256  18.778  1.00  0.00    -0.020 C 
HETATM   44  C27 UNL     1      30.840  21.219  19.065  1.00  0.00     0.009 C 
HETATM   45  C28 UNL     1      31.817  22.512  17.267  1.00  0.00     0.009 C 
ENDBRANCH  42  43
ENDBRANCH  21  42
BRANCH  13  46
HETATM   46  C15 UNL     1      24.920  25.780  22.055  1.00  0.00     0.239 C 
BRANCH  46  47
HETATM   47  C16 UNL     1      25.725  26.276  23.164  1.00  0.00     0.191 C 
HETATM   48  O3  UNL     1      25.261  26.236  24.331  1.00  0.00    -0.647 OA
HETATM   49  O4  UNL     1      26.988  26.802  23.011  1.00  0.00    -0.647 OA
ENDBRANCH  46  47
ENDBRANCH  13  46
BRANCH  16  50
HETATM   50  C19 UNL     1      27.627  21.831  21.163  1.00  0.00     0.038 C 
BRANCH  50  51
HETATM   51  C20 UNL     1      27.530  21.037  19.904  1.00  0.00    -0.020 C 
HETATM   52  C21 UNL     1      27.571  19.575  20.196  1.00  0.00     0.009 C 
HETATM   53  C22 UNL     1      26.207  21.378  19.246  1.00  0.00     0.009 C 
ENDBRANCH  50  51
ENDBRANCH  16  50
TORSDOF 12
ENDMDL
MODEL 2
REMARK VINA RESULT: -5.560523796      2.257      6.536
REMARK  12 active torsions:
REMARK  status: ('A' for Active; 'I' for Inactive)
REMARK    1  A    between atoms: C2_2  and  C3_3 
REMARK    2  A    between atoms: C3_3  and  C4_4 
REMARK    3  A    between atoms: C4_4  and  C5_5 
REMARK    4  A    between atoms: C7_10  and  C8_11 
REMARK    5  A    between atoms: C8_11  and  C9_12 
REMARK    6  A    between atoms: N3_21  and  C15_22 
REMARK    7  A    between atoms: C15_22  and  C16_23 
REMARK    8  A    between atoms: C18_28  and  C19_29 
REMARK    9  A    between atoms: C19_29  and  C20_30 
REMARK   10  A    between atoms: C24_37  and  C25_38 
REMARK   11  A    between atoms: C25_38  and  C26_39 
REMARK   12  A    between atoms: C30_46  and  C31_47 
ROOT
HETATM    1  C5  UNL     1      23.693  23.765  20.057  1.00  0.00     0.176 C 
HETATM    2  N1  UNL     1      24.104  24.925  20.810  1.00  0.00    -0.346 N 
ATOM      3  H1  UNL     1      24.135  24.798  21.822  1.00  0.00     0.163 HD
HETATM    4  C6  UNL     1      24.464  26.193  20.359  1.00  0.00     0.241 C 
HETATM    5  O1  UNL     1      25.348  26.781  21.092  1.00  0.00    -0.271 OA
HETATM    6  C7  UNL     1      23.970  26.922  19.175  1.00  0.00     0.177 C 
HETATM    7  N2  UNL     1      24.638  26.525  17.958  1.00  0.00    -0.346 N 
ATOM      8  H2  UNL     1      24.040  26.297  17.163  1.00  0.00     0.163 HD
HETATM    9  C12 UNL     1      26.021  26.418  17.751  1.00  0.00     0.241 C 
HETATM   10  O2  UNL     1      26.466  25.288  17.308  1.00  0.00    -0.271 OA
HETATM   11  C13 UNL     1      27.071  27.431  17.971  1.00  0.00     0.175 C 
HETATM   12  C14 UNL     1      26.629  28.853  17.930  1.00  0.00     0.042 C 
HETATM   13  N3  UNL     1      28.123  27.260  16.965  1.00  0.00    -0.327 N 
HETATM   14  C17 UNL     1      29.480  27.184  17.311  1.00  0.00     0.243 C 
HETATM   15  O5  UNL     1      30.315  27.621  16.445  1.00  0.00    -0.271 OA
HETATM   16  C18 UNL     1      30.058  26.660  18.555  1.00  0.00     0.177 C 
HETATM   17  N4  UNL     1      30.811  25.440  18.229  1.00  0.00    -0.346 N 
ATOM     18  H4  UNL     1      31.271  25.425  17.318  1.00  0.00     0.163 HD
HETATM   19  C23 UNL     1      30.968  24.310  19.012  1.00  0.00     0.241 C 
HETATM   20  O6  UNL     1      31.808  23.425  18.582  1.00  0.00    -0.271 OA
HETATM   21  C24 UNL     1      30.315  23.950  20.281  1.00  0.00     0.177 C 
HETATM   22  N5  UNL     1      29.400  22.830  19.950  1.00  0.00    -0.346 N 
ATOM     23  H5  UNL     1      29.853  21.941  19.741  1.00  0.00     0.163 HD
HETATM   24  C29 UNL     1      28.028  22.825  19.886  1.00  0.00     0.241 C 
HETATM   25  O7  UNL     1      27.464  22.443  18.786  1.00  0.00    -0.271 OA
HETATM   26  C30 UNL     1      27.019  23.203  20.921  1.00  0.00     0.180 C 
HETATM   27  N6  UNL     1      25.802  22.422  20.767  1.00  0.00    -0.346 N 
ATOM     28  H6  UNL     1      25.746  21.569  21.323  1.00  0.00     0.163 HD
HETATM   29  C34 UNL     1      24.696  22.695  19.951  1.00  0.00     0.241 C 
HETATM   30  O8  UNL     1      24.506  21.899  18.943  1.00  0.00    -0.271 OA
ENDROOT
BRANCH   1  31
HETATM   31  C4  UNL     1      22.432  23.188  20.663  1.00  0.00     0.035 C 
BRANCH  31  32
HETATM   32  C3  UNL     1      21.468  24.184  21.216  1.00  0.00     0.002 C 
BRANCH  32  33
HETATM   33  C2  UNL     1      20.037  23.645  21.165  1.00  0.00    -0.004 C 
HETATM   34  C1  UNL     1      20.027  22.290  20.490  1.00  0.00     0.005 C 
ENDBRANCH  32  33
ENDBRANCH  31  32
ENDBRANCH   1  31
BRANCH   6  35
HETATM   35  C8  UNL     1      22.478  26.910  19.052  1.00  0.00     0.038 C 
BRANCH  35  36
HETATM   36  C9  UNL     1      21.981  26.392  17.718  1.00  0.00    -0.020 C 
HETATM   37  C10 UNL     1      20.712  25.569  17.903  1.00  0.00     0.009 C 
HETATM   38  C11 UNL     1      21.819  27.484  16.703  1.00  0.00     0.009 C 
ENDBRANCH  35  36
ENDBRANCH   6  35
BRANCH  26  39
HETATM   39  C31 UNL     1      27.559  22.961  22.317  1.00  0.00     0.009 C 
HETATM   40  C32 UNL     1      27.687  21.464  22.518  1.00  0.00     0.012 C 
HETATM   41  C33 UNL     1      26.504  23.426  23.296  1.00  0.00     0.012 C 
ENDBRANCH  26  39
BRANCH  21  42
HETATM   42  C25 UNL     1      31.295  23.475  21.300  1.00  0.00     0.038 C 
BRANCH  42  43
HETATM   43  C26 UNL     1      31.235  23.905  22.693  1.00  0.00    -0.020 C 
HETATM   44  C27 UNL     1      30.239  24.926  23.077  1.00  0.00     0.009 C 
HETATM   45  C28 UNL     1      31.065  22.727  23.660  1.00  0.00     0.009 C 
ENDBRANCH  42  43
ENDBRANCH  21  42
BRANCH  13  46
HETATM   46  C15 UNL     1      27.681  27.136  15.580  1.00  0.00     0.239 C 
BRANCH  46  47
HETATM   47  C16 UNL     1      27.384  28.393  14.905  1.00  0.00     0.191 C 
HETATM   48  O3  UNL     1      26.226  28.601  14.466  1.00  0.00    -0.647 OA
HETATM   49  O4  UNL     1      28.315  29.388  14.708  1.00  0.00    -0.647 OA
ENDBRANCH  46  47
ENDBRANCH  13  46
BRANCH  16  50
HETATM   50  C19 UNL     1      31.134  27.664  18.973  1.00  0.00     0.038 C 
BRANCH  50  51
HETATM   51  C20 UNL     1      31.021  28.144  20.381  1.00  0.00    -0.020 C 
HETATM   52  C21 UNL     1      29.676  27.824  20.942  1.00  0.00     0.009 C 
HETATM   53  C22 UNL     1      32.085  27.434  21.195  1.00  0.00     0.009 C 
ENDBRANCH  50  51
ENDBRANCH  16  50
TORSDOF 12
ENDMDL
MODEL 3
REMARK VINA RESULT: -5.462436091      2.405      6.737
REMARK  12 active torsions:
REMARK  status: ('A' for Active; 'I' for Inactive)
REMARK    1  A    between atoms: C2_2  and  C3_3 
REMARK    2  A    between atoms: C3_3  and  C4_4 
REMARK    3  A    between atoms: C4_4  and  C5_5 
REMARK    4  A    between atoms: C7_10  and  C8_11 
REMARK    5  A    between atoms: C8_11  and  C9_12 
REMARK    6  A    between atoms: N3_21  and  C15_22 
REMARK    7  A    between atoms: C15_22  and  C16_23 
REMARK    8  A    between atoms: C18_28  and  C19_29 
REMARK    9  A    between atoms: C19_29  and  C20_30 
REMARK   10  A    between atoms: C24_37  and  C25_38 
REMARK   11  A    between atoms: C25_38  and  C26_39 
REMARK   12  A    between atoms: C30_46  and  C31_47 
ROOT
HETATM    1  C5  UNL     1      23.389  23.623  19.737  1.00  0.00     0.176 C 
HETATM    2  N1  UNL     1      23.520  24.920  20.358  1.00  0.00    -0.346 N 
ATOM      3  H1  UNL     1      23.447  24.925  21.375  1.00  0.00     0.163 HD
HETATM    4  C6  UNL     1      23.730  26.165  19.771  1.00  0.00     0.241 C 
HETATM    5  O1  UNL     1      24.416  26.981  20.500  1.00  0.00    -0.271 OA
HETATM    6  C7  UNL     1      23.276  26.649  18.453  1.00  0.00     0.177 C 
HETATM    7  N2  UNL     1      24.141  26.227  17.377  1.00  0.00    -0.346 N 
ATOM      8  H2  UNL     1      23.687  25.805  16.567  1.00  0.00     0.163 HD
HETATM    9  C12 UNL     1      25.538  26.333  17.326  1.00  0.00     0.241 C 
HETATM   10  O2  UNL     1      26.205  25.250  17.093  1.00  0.00    -0.271 OA
HETATM   11  C13 UNL     1      26.383  27.529  17.505  1.00  0.00     0.175 C 
HETATM   12  C14 UNL     1      25.733  28.839  17.222  1.00  0.00     0.042 C 
HETATM   13  N3  UNL     1      27.563  27.419  16.644  1.00  0.00    -0.327 N 
HETATM   14  C17 UNL     1      28.863  27.618  17.131  1.00  0.00     0.243 C 
HETATM   15  O5  UNL     1      29.719  28.082  16.300  1.00  0.00    -0.271 OA
HETATM   16  C18 UNL     1      29.360  27.356  18.487  1.00  0.00     0.177 C 
HETATM   17  N4  UNL     1      30.328  26.252  18.412  1.00  0.00    -0.346 N 
ATOM     18  H4  UNL     1      30.892  26.204  17.563  1.00  0.00     0.163 HD
HETATM   19  C23 UNL     1      30.563  25.269  19.358  1.00  0.00     0.241 C 
HETATM   20  O6  UNL     1      31.577  24.495  19.142  1.00  0.00    -0.271 OA
HETATM   21  C24 UNL     1      29.825  24.961  20.593  1.00  0.00     0.177 C 
HETATM   22  N5  UNL     1      29.142  23.669  20.333  1.00  0.00    -0.346 N 
ATOM     23  H5  UNL     1      29.750  22.852  20.297  1.00  0.00     0.163 HD
HETATM   24  C29 UNL     1      27.806  23.423  20.134  1.00  0.00     0.241 C 
HETATM   25  O7  UNL     1      27.446  22.819  19.047  1.00  0.00    -0.271 OA
HETATM   26  C30 UNL     1      26.632  23.746  20.999  1.00  0.00     0.180 C 
HETATM   27  N6  UNL     1      25.579  22.757  20.836  1.00  0.00    -0.346 N 
ATOM     28  H6  UNL     1      25.590  21.981  21.498  1.00  0.00     0.163 HD
HETATM   29  C34 UNL     1      24.552  22.735  19.883  1.00  0.00     0.241 C 
HETATM   30  O8  UNL     1      24.613  21.801  18.983  1.00  0.00    -0.271 OA
ENDROOT
BRANCH   1  31
HETATM   31  C4  UNL     1      22.170  22.918  20.290  1.00  0.00     0.035 C 
BRANCH  31  32
HETATM   32  C3  UNL     1      21.210  23.781  21.041  1.00  0.00     0.002 C 
BRANCH  32  33
HETATM   33  C2  UNL     1      19.896  23.931  20.273  1.00  0.00    -0.004 C 
HETATM   34  C1  UNL     1      19.344  22.563  19.933  1.00  0.00     0.005 C 
ENDBRANCH  32  33
ENDBRANCH  31  32
ENDBRANCH   1  31
BRANCH   6  35
HETATM   35  C8  UNL     1      21.831  26.369  18.185  1.00  0.00     0.038 C 
BRANCH  35  36
HETATM   36  C9  UNL     1      21.453  26.464  16.721  1.00  0.00    -0.020 C 
HETATM   37  C10 UNL     1      20.070  25.870  16.484  1.00  0.00     0.009 C 
HETATM   38  C11 UNL     1      21.582  27.859  16.185  1.00  0.00     0.009 C 
ENDBRANCH  35  36
ENDBRANCH   6  35
BRANCH  26  39
HETATM   39  C31 UNL     1      27.030  23.772  22.462  1.00  0.00     0.009 C 
HETATM   40  C32 UNL     1      26.770  22.397  23.044  1.00  0.00     0.012 C 
HETATM   41  C33 UNL     1      26.080  24.713  23.171  1.00  0.00     0.012 C 
ENDBRANCH  26  39
BRANCH  21  42
HETATM   42  C25 UNL     1      30.735  24.788  21.762  1.00  0.00     0.038 C 
BRANCH  42  43
HETATM   43  C26 UNL     1      30.935  25.840  22.753  1.00  0.00    -0.020 C 
HETATM   44  C27 UNL     1      31.653  27.066  22.349  1.00  0.00     0.009 C 
HETATM   45  C28 UNL     1      29.619  26.285  23.403  1.00  0.00     0.009 C 
ENDBRANCH  42  43
ENDBRANCH  21  42
BRANCH  13  46
HETATM   46  C15 UNL     1      27.317  27.053  15.253  1.00  0.00     0.239 C 
BRANCH  46  47
HETATM   47  C16 UNL     1      27.395  28.150  14.296  1.00  0.00     0.191 C 
HETATM   48  O3  UNL     1      26.400  28.900  14.133  1.00  0.00    -0.647 OA
HETATM   49  O4  UNL     1      28.512  28.420  13.538  1.00  0.00    -0.647 OA
ENDBRANCH  46  47
ENDBRANCH  13  46
BRANCH  16  50
HETATM   50  C19 UNL     1      30.207  28.573  18.866  1.00  0.00     0.038 C 
BRANCH  50  51
HETATM   51  C20 UNL     1      29.591  29.462  19.891  1.00  0.00    -0.020 C 
HETATM   52  C21 UNL     1      28.921  30.629  19.247  1.00  0.00     0.009 C 
HETATM   53  C22 UNL     1      28.559  28.648  20.647  1.00  0.00     0.009 C 
ENDBRANCH  50  51
ENDBRANCH  16  50
TORSDOF 12
ENDMDL
MODEL 4
REMARK VINA RESULT: -5.447543539      2.390      6.659
REMARK  12 active torsions:
REMARK  status: ('A' for Active; 'I' for Inactive)
REMARK    1  A    between atoms: C2_2  and  C3_3 
REMARK    2  A    between atoms: C3_3  and  C4_4 
REMARK    3  A    between atoms: C4_4  and  C5_5 
REMARK    4  A    between atoms: C7_10  and  C8_11 
REMARK    5  A    between atoms: C8_11  and  C9_12 
REMARK    6  A    between atoms: N3_21  and  C15_22 
REMARK    7  A    between atoms: C15_22  and  C16_23 
REMARK    8  A    between atoms: C18_28  and  C19_29 
REMARK    9  A    between atoms: C19_29  and  C20_30 
REMARK   10  A    between atoms: C24_37  and  C25_38 
REMARK   11  A    between atoms: C25_38  and  C26_39 
REMARK   12  A    between atoms: C30_46  and  C31_47 
ROOT
HETATM    1  C5  UNL     1      24.192  23.436  19.631  1.00  0.00     0.176 C 
HETATM    2  N1  UNL     1      24.126  24.737  20.253  1.00  0.00    -0.346 N 
ATOM      3  H1  UNL     1      23.910  24.731  21.250  1.00  0.00     0.163 HD
HETATM    4  C6  UNL     1      24.315  25.998  19.693  1.00  0.00     0.241 C 
HETATM    5  O1  UNL     1      24.821  26.864  20.505  1.00  0.00    -0.271 OA
HETATM    6  C7  UNL     1      24.013  26.448  18.320  1.00  0.00     0.177 C 
HETATM    7  N2  UNL     1      25.054  26.103  17.381  1.00  0.00    -0.346 N 
ATOM      8  H2  UNL     1      24.755  25.649  16.517  1.00  0.00     0.163 HD
HETATM    9  C12 UNL     1      26.430  26.324  17.527  1.00  0.00     0.241 C 
HETATM   10  O2  UNL     1      27.210  25.300  17.399  1.00  0.00    -0.271 OA
HETATM   11  C13 UNL     1      27.140  27.585  17.815  1.00  0.00     0.175 C 
HETATM   12  C14 UNL     1      26.431  28.838  17.432  1.00  0.00     0.042 C 
HETATM   13  N3  UNL     1      28.436  27.576  17.130  1.00  0.00    -0.327 N 
HETATM   14  C17 UNL     1      29.633  27.880  17.795  1.00  0.00     0.243 C 
HETATM   15  O5  UNL     1      30.556  28.416  17.090  1.00  0.00    -0.271 OA
HETATM   16  C18 UNL     1      29.952  27.654  19.210  1.00  0.00     0.177 C 
HETATM   17  N4  UNL     1      31.008  26.634  19.281  1.00  0.00    -0.346 N 
ATOM     18  H4  UNL     1      31.689  26.636  18.521  1.00  0.00     0.163 HD
HETATM   19  C23 UNL     1      31.187  25.670  20.258  1.00  0.00     0.241 C 
HETATM   20  O6  UNL     1      32.281  24.983  20.194  1.00  0.00    -0.271 OA
HETATM   21  C24 UNL     1      30.309  25.297  21.378  1.00  0.00     0.177 C 
HETATM   22  N5  UNL     1      29.779  23.954  21.034  1.00  0.00    -0.346 N 
ATOM     23  H5  UNL     1      30.451  23.190  21.091  1.00  0.00     0.163 HD
HETATM   24  C29 UNL     1      28.510  23.599  20.650  1.00  0.00     0.241 C 
HETATM   25  O7  UNL     1      28.358  22.972  19.528  1.00  0.00    -0.271 OA
HETATM   26  C30 UNL     1      27.202  23.821  21.338  1.00  0.00     0.180 C 
HETATM   27  N6  UNL     1      26.268  22.749  21.034  1.00  0.00    -0.346 N 
ATOM     28  H6  UNL     1      26.248  21.974  21.698  1.00  0.00     0.163 HD
HETATM   29  C34 UNL     1      25.392  22.647  19.946  1.00  0.00     0.241 C 
HETATM   30  O8  UNL     1      25.655  21.725  19.071  1.00  0.00    -0.271 OA
ENDROOT
BRANCH   1  31
HETATM   31  C4  UNL     1      22.969  22.631  20.010  1.00  0.00     0.035 C 
BRANCH  31  32
HETATM   32  C3  UNL     1      22.001  23.316  20.919  1.00  0.00     0.002 C 
BRANCH  32  33
HETATM   33  C2  UNL     1      20.686  23.607  20.194  1.00  0.00    -0.004 C 
HETATM   34  C1  UNL     1      19.731  24.312  21.135  1.00  0.00     0.005 C 
ENDBRANCH  32  33
ENDBRANCH  31  32
ENDBRANCH   1  31
BRANCH   6  35
HETATM   35  C8  UNL     1      22.649  26.050  17.852  1.00  0.00     0.038 C 
BRANCH  35  36
HETATM   36  C9  UNL     1      21.621  27.158  17.960  1.00  0.00    -0.020 C 
HETATM   37  C10 UNL     1      20.526  26.976  16.915  1.00  0.00     0.009 C 
HETATM   38  C11 UNL     1      21.075  27.300  19.350  1.00  0.00     0.009 C 
ENDBRANCH  35  36
ENDBRANCH   6  35
BRANCH  26  39
HETATM   39  C31 UNL     1      27.385  23.874  22.842  1.00  0.00     0.009 C 
HETATM   40  C32 UNL     1      27.254  22.463  23.381  1.00  0.00     0.012 C 
HETATM   41  C33 UNL     1      26.217  24.649  23.412  1.00  0.00     0.012 C 
ENDBRANCH  26  39
BRANCH  21  42
HETATM   42  C25 UNL     1      31.056  25.194  22.666  1.00  0.00     0.038 C 
BRANCH  42  43
HETATM   43  C26 UNL     1      30.540  25.756  23.909  1.00  0.00    -0.020 C 
HETATM   44  C27 UNL     1      29.337  26.612  23.854  1.00  0.00     0.009 C 
HETATM   45  C28 UNL     1      30.275  24.680  24.968  1.00  0.00     0.009 C 
ENDBRANCH  42  43
ENDBRANCH  21  42
BRANCH  13  46
HETATM   46  C15 UNL     1      28.421  27.197  15.721  1.00  0.00     0.239 C 
BRANCH  46  47
HETATM   47  C16 UNL     1      28.028  28.252  14.795  1.00  0.00     0.191 C 
HETATM   48  O3  UNL     1      26.964  28.133  14.138  1.00  0.00    -0.647 OA
HETATM   49  O4  UNL     1      28.768  29.394  14.586  1.00  0.00    -0.647 OA
ENDBRANCH  46  47
ENDBRANCH  13  46
BRANCH  16  50
HETATM   50  C19 UNL     1      30.635  28.935  19.695  1.00  0.00     0.038 C 
BRANCH  50  51
HETATM   51  C20 UNL     1      30.003  29.558  20.893  1.00  0.00    -0.020 C 
HETATM   52  C21 UNL     1      28.665  28.956  21.159  1.00  0.00     0.009 C 
HETATM   53  C22 UNL     1      30.912  29.299  22.079  1.00  0.00     0.009 C 
ENDBRANCH  50  51
ENDBRANCH  16  50
TORSDOF 12
ENDMDL
MODEL 5
REMARK VINA RESULT: -5.273509263      1.999      3.710
REMARK  12 active torsions:
REMARK  status: ('A' for Active; 'I' for Inactive)
REMARK    1  A    between atoms: C2_2  and  C3_3 
REMARK    2  A    between atoms: C3_3  and  C4_4 
REMARK    3  A    between atoms: C4_4  and  C5_5 
REMARK    4  A    between atoms: C7_10  and  C8_11 
REMARK    5  A    between atoms: C8_11  and  C9_12 
REMARK    6  A    between atoms: N3_21  and  C15_22 
REMARK    7  A    between atoms: C15_22  and  C16_23 
REMARK    8  A    between atoms: C18_28  and  C19_29 
REMARK    9  A    between atoms: C19_29  and  C20_30 
REMARK   10  A    between atoms: C24_37  and  C25_38 
REMARK   11  A    between atoms: C25_38  and  C26_39 
REMARK   12  A    between atoms: C30_46  and  C31_47 
ROOT
HETATM    1  C5  UNL     1      24.476  27.092  17.300  1.00  0.00     0.176 C 
HETATM    2  N1  UNL     1      24.822  25.692  17.347  1.00  0.00    -0.346 N 
ATOM      3  H1  UNL     1      25.031  25.265  16.445  1.00  0.00     0.163 HD
HETATM    4  C6  UNL     1      24.912  24.838  18.443  1.00  0.00     0.241 C 
HETATM    5  O1  UNL     1      25.802  23.911  18.317  1.00  0.00    -0.271 OA
HETATM    6  C7  UNL     1      24.134  24.865  19.697  1.00  0.00     0.177 C 
HETATM    7  N2  UNL     1      24.654  25.813  20.654  1.00  0.00    -0.346 N 
ATOM      8  H2  UNL     1      23.979  26.452  21.075  1.00  0.00     0.163 HD
HETATM    9  C12 UNL     1      25.987  25.949  21.067  1.00  0.00     0.241 C 
HETATM   10  O2  UNL     1      26.522  27.122  20.959  1.00  0.00    -0.271 OA
HETATM   11  C13 UNL     1      26.894  24.926  21.621  1.00  0.00     0.175 C 
HETATM   12  C14 UNL     1      26.243  23.761  22.281  1.00  0.00     0.042 C 
HETATM   13  N3  UNL     1      27.789  25.553  22.597  1.00  0.00    -0.327 N 
HETATM   14  C17 UNL     1      29.179  25.373  22.559  1.00  0.00     0.243 C 
HETATM   15  O5  UNL     1      29.792  25.421  23.681  1.00  0.00    -0.271 OA
HETATM   16  C18 UNL     1      30.018  25.137  21.377  1.00  0.00     0.177 C 
HETATM   17  N4  UNL     1      30.884  26.309  21.191  1.00  0.00    -0.346 N 
ATOM     18  H4  UNL     1      31.192  26.781  22.042  1.00  0.00     0.163 HD
HETATM   19  C23 UNL     1      31.331  26.848  19.997  1.00  0.00     0.241 C 
HETATM   20  O6  UNL     1      32.216  27.788  20.086  1.00  0.00    -0.271 OA
HETATM   21  C24 UNL     1      30.948  26.515  18.616  1.00  0.00     0.177 C 
HETATM   22  N5  UNL     1      30.170  27.682  18.130  1.00  0.00    -0.346 N 
ATOM     23  H5  UNL     1      30.713  28.526  17.949  1.00  0.00     0.163 HD
HETATM   24  C29 UNL     1      28.822  27.782  17.889  1.00  0.00     0.241 C 
HETATM   25  O7  UNL     1      28.156  28.712  18.494  1.00  0.00    -0.271 OA
HETATM   26  C30 UNL     1      27.943  26.962  17.001  1.00  0.00     0.180 C 
HETATM   27  N6  UNL     1      26.848  27.761  16.475  1.00  0.00    -0.346 N 
ATOM     28  H6  UNL     1      27.009  28.195  15.566  1.00  0.00     0.163 HD
HETATM   29  C34 UNL     1      25.600  28.011  17.060  1.00  0.00     0.241 C 
HETATM   30  O8  UNL     1      25.375  29.226  17.457  1.00  0.00    -0.271 OA
ENDROOT
BRANCH   1  31
HETATM   31  C4  UNL     1      23.428  27.320  16.233  1.00  0.00     0.035 C 
BRANCH  31  32
HETATM   32  C3  UNL     1      22.028  27.481  16.728  1.00  0.00     0.002 C 
BRANCH  32  33
HETATM   33  C2  UNL     1      21.037  27.497  15.562  1.00  0.00    -0.004 C 
HETATM   34  C1  UNL     1      21.621  26.744  14.386  1.00  0.00     0.005 C 
ENDBRANCH  32  33
ENDBRANCH  31  32
ENDBRANCH   1  31
BRANCH   6  35
HETATM   35  C8  UNL     1      22.660  25.008  19.477  1.00  0.00     0.038 C 
BRANCH  35  36
HETATM   36  C9  UNL     1      21.818  24.421  20.591  1.00  0.00    -0.020 C 
HETATM   37  C10 UNL     1      20.351  24.792  20.405  1.00  0.00     0.009 C 
HETATM   38  C11 UNL     1      22.025  22.944  20.749  1.00  0.00     0.009 C 
ENDBRANCH  35  36
ENDBRANCH   6  35
BRANCH  26  39
HETATM   39  C31 UNL     1      28.726  26.408  15.828  1.00  0.00     0.009 C 
HETATM   40  C32 UNL     1      29.097  27.565  14.922  1.00  0.00     0.012 C 
HETATM   41  C33 UNL     1      27.784  25.535  15.028  1.00  0.00     0.012 C 
ENDBRANCH  26  39
BRANCH  21  42
HETATM   42  C25 UNL     1      32.136  26.337  17.732  1.00  0.00     0.038 C 
BRANCH  42  43
HETATM   43  C26 UNL     1      32.223  25.252  16.759  1.00  0.00    -0.020 C 
HETATM   44  C27 UNL     1      31.201  24.186  16.794  1.00  0.00     0.009 C 
HETATM   45  C28 UNL     1      32.284  25.767  15.317  1.00  0.00     0.009 C 
ENDBRANCH  42  43
ENDBRANCH  21  42
BRANCH  13  46
HETATM   46  C15 UNL     1      27.158  26.409  23.597  1.00  0.00     0.239 C 
BRANCH  46  47
HETATM   47  C16 UNL     1      26.561  25.710  24.729  1.00  0.00     0.191 C 
HETATM   48  O3  UNL     1      27.211  24.806  25.310  1.00  0.00    -0.647 OA
HETATM   49  O4  UNL     1      25.299  25.981  25.209  1.00  0.00    -0.647 OA
ENDBRANCH  46  47
ENDBRANCH  13  46
BRANCH  16  50
HETATM   50  C19 UNL     1      30.983  24.014  21.766  1.00  0.00     0.038 C 
BRANCH  50  51
HETATM   51  C20 UNL     1      31.018  22.869  20.812  1.00  0.00    -0.020 C 
HETATM   52  C21 UNL     1      29.834  22.898  19.905  1.00  0.00     0.009 C 
HETATM   53  C22 UNL     1      32.283  22.997  19.986  1.00  0.00     0.009 C 
ENDBRANCH  50  51
ENDBRANCH  16  50
TORSDOF 12
ENDMDL
