MODEL 1
REMARK VINA RESULT: -6.666410608      0.000      0.000
REMARK  15 active torsions:
REMARK  status: ('A' for Active; 'I' for Inactive)
REMARK    1  A    between atoms: C2_2  and  C4_4 
REMARK    2  A    between atoms: C4_4  and  C5_5 
REMARK    3  A    between atoms: C6_8  and  O1_9 
REMARK    4  A    between atoms: C7_11  and  C8_12 
REMARK    5  A    between atoms: C8_12  and  C9_13 
REMARK    6  A    between atoms: C17_27  and  C18_28 
REMARK    7  A    between atoms: C18_28  and  C19_29 
REMARK    8  A    between atoms: C23_36  and  C24_37 
REMARK    9  A    between atoms: C24_37  and  C25_38 
REMARK   10  A    between atoms: C25_38  and  C26_39 
REMARK   11  A    between atoms: C26_39  and  C27_40 
REMARK   12  A    between atoms: C27_40  and  N5_41 
REMARK   13  A    between atoms: C30_49  and  C31_50 
REMARK   14  A    between atoms: C31_50  and  C32_51 
REMARK   15  A    between atoms: C35_56  and  O6_57 
ROOT
HETATM    1  C5  UNL     1      23.660  27.125  16.552  1.00  0.00     0.158 C 
HETATM    2  N1  UNL     1      23.842  27.680  17.881  1.00  0.00    -0.361 N 
ATOM      3  H1  UNL     1      23.750  28.693  17.956  1.00  0.00     0.162 HD
HETATM    4  C6  UNL     1      24.128  27.002  19.079  1.00  0.00     0.135 C 
HETATM    5  C7  UNL     1      23.337  25.961  19.762  1.00  0.00     0.159 C 
HETATM    6  N2  UNL     1      23.327  24.672  19.118  1.00  0.00    -0.347 N 
ATOM      7  H2  UNL     1      22.632  24.565  18.379  1.00  0.00     0.163 HD
HETATM    8  C12 UNL     1      24.122  23.542  19.346  1.00  0.00     0.246 C 
HETATM    9  O2  UNL     1      23.486  22.456  19.617  1.00  0.00    -0.271 OA
HETATM   10  C13 UNL     1      25.592  23.417  19.319  1.00  0.00     0.106 C 
HETATM   11  C14 UNL     1      25.970  21.936  19.493  1.00  0.00     0.048 C 
HETATM   12  C15 UNL     1      26.093  23.785  17.944  1.00  0.00     0.048 C 
HETATM   13  N3  UNL     1      26.228  24.111  20.382  1.00  0.00    -0.342 N 
ATOM     14  H3  UNL     1      25.589  24.463  21.095  1.00  0.00     0.163 HD
HETATM   15  C16 UNL     1      27.567  24.397  20.624  1.00  0.00     0.241 C 
HETATM   16  O3  UNL     1      27.993  24.228  21.833  1.00  0.00    -0.271 OA
HETATM   17  C17 UNL     1      28.610  24.876  19.705  1.00  0.00     0.177 C 
HETATM   18  N4  UNL     1      28.757  26.320  19.811  1.00  0.00    -0.346 N 
ATOM     19  H4  UNL     1      28.552  26.728  20.723  1.00  0.00     0.163 HD
HETATM   20  C22 UNL     1      29.149  27.219  18.799  1.00  0.00     0.241 C 
HETATM   21  O4  UNL     1      30.230  27.867  19.076  1.00  0.00    -0.271 OA
HETATM   22  C23 UNL     1      28.516  27.510  17.518  1.00  0.00     0.178 C 
HETATM   23  N6  UNL     1      28.709  28.835  16.982  1.00  0.00    -0.341 N 
HETATM   24  C28 UNL     1      29.914  29.569  17.238  1.00  0.00     0.153 C 
HETATM   25  C29 UNL     1      27.693  29.460  16.150  1.00  0.00     0.243 C 
HETATM   26  O5  UNL     1      28.095  30.142  15.151  1.00  0.00    -0.271 OA
HETATM   27  C30 UNL     1      26.249  29.360  16.372  1.00  0.00     0.176 C 
HETATM   28  N7  UNL     1      25.640  28.370  15.460  1.00  0.00    -0.359 N 
ATOM     29  H7  UNL     1      25.794  28.536  14.466  1.00  0.00     0.162 HD
HETATM   30  C35 UNL     1      24.891  27.253  15.767  1.00  0.00     0.135 C 
ENDROOT
BRANCH  22  31
HETATM   31  C24 UNL     1      28.784  26.517  16.415  1.00  0.00     0.035 C 
BRANCH  31  32
HETATM   32  C25 UNL     1      30.209  26.184  16.161  1.00  0.00     0.004 C 
BRANCH  32  33
HETATM   33  C26 UNL     1      30.503  26.112  14.656  1.00  0.00     0.027 C 
BRANCH  33  34
HETATM   34  C27 UNL     1      30.757  27.555  14.222  1.00  0.00     0.229 C 
BRANCH  34  35
HETATM   35  N5  UNL     1      29.668  28.048  13.402  1.00  0.00    -0.079 N 
ATOM     36  H53 UNL     1      28.774  27.647  13.683  1.00  0.00     0.274 HD
ATOM     37  H52 UNL     1      29.466  29.029  13.596  1.00  0.00     0.274 HD
ATOM     38  H51 UNL     1      29.857  27.890  12.412  1.00  0.00     0.274 HD
ENDBRANCH  34  35
ENDBRANCH  33  34
ENDBRANCH  32  33
ENDBRANCH  31  32
ENDBRANCH  22  31
BRANCH  17  39
HETATM   39  C18 UNL     1      29.924  24.205  20.157  1.00  0.00     0.038 C 
BRANCH  39  40
HETATM   40  C19 UNL     1      30.462  23.229  19.184  1.00  0.00    -0.020 C 
HETATM   41  C20 UNL     1      30.108  21.834  19.741  1.00  0.00     0.009 C 
HETATM   42  C21 UNL     1      31.996  23.226  19.148  1.00  0.00     0.009 C 
ENDBRANCH  39  40
ENDBRANCH  17  39
BRANCH  27  43
HETATM   43  C31 UNL     1      25.503  30.631  16.210  1.00  0.00     0.038 C 
BRANCH  43  44
HETATM   44  C32 UNL     1      26.023  31.877  16.762  1.00  0.00    -0.020 C 
HETATM   45  C33 UNL     1      26.377  31.606  18.264  1.00  0.00     0.009 C 
HETATM   46  C34 UNL     1      25.095  33.032  16.741  1.00  0.00     0.009 C 
ENDBRANCH  43  44
ENDBRANCH  27  43
BRANCH  30  47
HETATM   47  O6  UNL     1      25.344  26.129  15.285  1.00  0.00    -0.348 OA
ATOM     48  H6  UNL     1      24.870  25.805  14.528  1.00  0.00     0.219 HD
ENDBRANCH  30  47
BRANCH   1  49
HETATM   49  C4  UNL     1      22.437  27.758  15.990  1.00  0.00     0.037 C 
BRANCH  49  50
HETATM   50  C2  UNL     1      21.324  26.930  15.533  1.00  0.00    -0.020 C 
HETATM   51  C1  UNL     1      20.563  27.404  14.342  1.00  0.00     0.009 C 
HETATM   52  C3  UNL     1      20.363  26.522  16.615  1.00  0.00     0.009 C 
ENDBRANCH  49  50
ENDBRANCH   1  49
BRANCH   4  53
HETATM   53  O1  UNL     1      25.246  27.372  19.629  1.00  0.00    -0.348 OA
ATOM     54  H1  UNL     1      25.947  26.739  19.526  1.00  0.00     0.219 HD
ENDBRANCH   4  53
BRANCH   5  55
HETATM   55  C8  UNL     1      21.872  26.424  19.931  1.00  0.00     0.037 C 
BRANCH  55  56
HETATM   56  C9  UNL     1      21.375  26.193  21.336  1.00  0.00    -0.020 C 
HETATM   57  C10 UNL     1      22.447  26.536  22.356  1.00  0.00     0.009 C 
HETATM   58  C11 UNL     1      20.912  24.755  21.529  1.00  0.00     0.009 C 
ENDBRANCH  55  56
ENDBRANCH   5  55
TORSDOF 15
ENDMDL
MODEL 2
REMARK VINA RESULT: -6.563305755      1.065      1.467
REMARK  15 active torsions:
REMARK  status: ('A' for Active; 'I' for Inactive)
REMARK    1  A    between atoms: C2_2  and  C4_4 
REMARK    2  A    between atoms: C4_4  and  C5_5 
REMARK    3  A    between atoms: C6_8  and  O1_9 
REMARK    4  A    between atoms: C7_11  and  C8_12 
REMARK    5  A    between atoms: C8_12  and  C9_13 
REMARK    6  A    between atoms: C17_27  and  C18_28 
REMARK    7  A    between atoms: C18_28  and  C19_29 
REMARK    8  A    between atoms: C23_36  and  C24_37 
REMARK    9  A    between atoms: C24_37  and  C25_38 
REMARK   10  A    between atoms: C25_38  and  C26_39 
REMARK   11  A    between atoms: C26_39  and  C27_40 
REMARK   12  A    between atoms: C27_40  and  N5_41 
REMARK   13  A    between atoms: C30_49  and  C31_50 
REMARK   14  A    between atoms: C31_50  and  C32_51 
REMARK   15  A    between atoms: C35_56  and  O6_57 
ROOT
HETATM    1  C5  UNL     1      24.439  26.803  16.026  1.00  0.00     0.158 C 
HETATM    2  N1  UNL     1      24.251  27.522  17.273  1.00  0.00    -0.361 N 
ATOM      3  H1  UNL     1      24.066  28.522  17.185  1.00  0.00     0.162 HD
HETATM    4  C6  UNL     1      24.290  27.020  18.585  1.00  0.00     0.135 C 
HETATM    5  C7  UNL     1      23.442  25.985  19.203  1.00  0.00     0.159 C 
HETATM    6  N2  UNL     1      23.687  24.637  18.757  1.00  0.00    -0.347 N 
ATOM      7  H2  UNL     1      23.202  24.373  17.900  1.00  0.00     0.163 HD
HETATM    8  C12 UNL     1      24.488  23.634  19.314  1.00  0.00     0.246 C 
HETATM    9  O2  UNL     1      23.892  22.523  19.577  1.00  0.00    -0.271 OA
HETATM   10  C13 UNL     1      25.926  23.665  19.643  1.00  0.00     0.106 C 
HETATM   11  C14 UNL     1      26.365  22.263  20.099  1.00  0.00     0.048 C 
HETATM   12  C15 UNL     1      26.714  23.925  18.383  1.00  0.00     0.048 C 
HETATM   13  N3  UNL     1      26.231  24.540  20.718  1.00  0.00    -0.342 N 
ATOM     14  H3  UNL     1      25.413  24.901  21.210  1.00  0.00     0.163 HD
HETATM   15  C16 UNL     1      27.445  24.994  21.221  1.00  0.00     0.241 C 
HETATM   16  O3  UNL     1      27.578  25.012  22.506  1.00  0.00    -0.271 OA
HETATM   17  C17 UNL     1      28.639  25.475  20.510  1.00  0.00     0.177 C 
HETATM   18  N4  UNL     1      28.644  26.928  20.448  1.00  0.00    -0.346 N 
ATOM     19  H4  UNL     1      28.194  27.414  21.224  1.00  0.00     0.163 HD
HETATM   20  C22 UNL     1      29.198  27.744  19.440  1.00  0.00     0.241 C 
HETATM   21  O4  UNL     1      30.126  28.531  19.868  1.00  0.00    -0.271 OA
HETATM   22  C23 UNL     1      28.873  27.817  18.021  1.00  0.00     0.178 C 
HETATM   23  N6  UNL     1      29.086  29.085  17.368  1.00  0.00    -0.341 N 
HETATM   24  C28 UNL     1      30.133  29.969  17.791  1.00  0.00     0.153 C 
HETATM   25  C29 UNL     1      28.256  29.498  16.248  1.00  0.00     0.243 C 
HETATM   26  O5  UNL     1      28.834  30.101  15.284  1.00  0.00    -0.271 OA
HETATM   27  C30 UNL     1      26.814  29.269  16.143  1.00  0.00     0.176 C 
HETATM   28  N7  UNL     1      26.522  28.122  15.259  1.00  0.00    -0.359 N 
ATOM     29  H7  UNL     1      26.898  28.188  14.314  1.00  0.00     0.162 HD
HETATM   30  C35 UNL     1      25.809  26.972  15.535  1.00  0.00     0.135 C 
ENDROOT
BRANCH  22  31
HETATM   31  C24 UNL     1      29.475  26.739  17.155  1.00  0.00     0.035 C 
BRANCH  31  32
HETATM   32  C25 UNL     1      30.952  26.769  16.999  1.00  0.00     0.004 C 
BRANCH  32  33
HETATM   33  C26 UNL     1      31.352  27.012  15.537  1.00  0.00     0.027 C 
BRANCH  33  34
HETATM   34  C27 UNL     1      30.118  26.651  14.712  1.00  0.00     0.229 C 
BRANCH  34  35
HETATM   35  N5  UNL     1      29.889  27.628  13.666  1.00  0.00    -0.079 N 
ATOM     36  H53 UNL     1      28.896  27.827  13.548  1.00  0.00     0.274 HD
ATOM     37  H52 UNL     1      30.201  28.558  13.946  1.00  0.00     0.274 HD
ATOM     38  H51 UNL     1      30.321  27.332  12.790  1.00  0.00     0.274 HD
ENDBRANCH  34  35
ENDBRANCH  33  34
ENDBRANCH  32  33
ENDBRANCH  31  32
ENDBRANCH  22  31
BRANCH  17  39
HETATM   39  C18 UNL     1      29.852  25.005  21.338  1.00  0.00     0.038 C 
BRANCH  39  40
HETATM   40  C19 UNL     1      30.845  24.232  20.560  1.00  0.00    -0.020 C 
HETATM   41  C20 UNL     1      31.957  25.231  20.177  1.00  0.00     0.009 C 
HETATM   42  C21 UNL     1      30.293  23.769  19.205  1.00  0.00     0.009 C 
ENDBRANCH  39  40
ENDBRANCH  17  39
BRANCH  27  43
HETATM   43  C31 UNL     1      26.032  30.425  15.642  1.00  0.00     0.038 C 
BRANCH  43  44
HETATM   44  C32 UNL     1      25.688  31.532  16.527  1.00  0.00    -0.020 C 
HETATM   45  C33 UNL     1      26.058  32.857  15.778  1.00  0.00     0.009 C 
HETATM   46  C34 UNL     1      26.395  31.563  17.830  1.00  0.00     0.009 C 
ENDBRANCH  43  44
ENDBRANCH  27  43
BRANCH  30  47
HETATM   47  O6  UNL     1      26.452  25.856  15.328  1.00  0.00    -0.348 OA
ATOM     48  H6  UNL     1      27.314  25.818  15.726  1.00  0.00     0.219 HD
ENDBRANCH  30  47
BRANCH   1  49
HETATM   49  C4  UNL     1      23.344  27.233  15.117  1.00  0.00     0.037 C 
BRANCH  49  50
HETATM   50  C2  UNL     1      21.978  26.766  15.339  1.00  0.00    -0.020 C 
HETATM   51  C1  UNL     1      21.360  25.923  14.276  1.00  0.00     0.009 C 
HETATM   52  C3  UNL     1      21.010  27.839  15.757  1.00  0.00     0.009 C 
ENDBRANCH  49  50
ENDBRANCH   1  49
BRANCH   4  53
HETATM   53  O1  UNL     1      25.210  27.569  19.322  1.00  0.00    -0.348 OA
ATOM     54  H1  UNL     1      25.034  28.479  19.532  1.00  0.00     0.219 HD
ENDBRANCH   4  53
BRANCH   5  55
HETATM   55  C8  UNL     1      21.947  26.304  18.967  1.00  0.00     0.037 C 
BRANCH  55  56
HETATM   56  C9  UNL     1      21.088  25.071  19.095  1.00  0.00    -0.020 C 
HETATM   57  C10 UNL     1      19.982  25.067  18.055  1.00  0.00     0.009 C 
HETATM   58  C11 UNL     1      20.492  24.956  20.491  1.00  0.00     0.009 C 
ENDBRANCH  55  56
ENDBRANCH   5  55
TORSDOF 15
ENDMDL
MODEL 3
REMARK VINA RESULT: -6.205419323      8.647     14.459
REMARK  15 active torsions:
REMARK  status: ('A' for Active; 'I' for Inactive)
REMARK    1  A    between atoms: C2_2  and  C4_4 
REMARK    2  A    between atoms: C4_4  and  C5_5 
REMARK    3  A    between atoms: C6_8  and  O1_9 
REMARK    4  A    between atoms: C7_11  and  C8_12 
REMARK    5  A    between atoms: C8_12  and  C9_13 
REMARK    6  A    between atoms: C17_27  and  C18_28 
REMARK    7  A    between atoms: C18_28  and  C19_29 
REMARK    8  A    between atoms: C23_36  and  C24_37 
REMARK    9  A    between atoms: C24_37  and  C25_38 
REMARK   10  A    between atoms: C25_38  and  C26_39 
REMARK   11  A    between atoms: C26_39  and  C27_40 
REMARK   12  A    between atoms: C27_40  and  N5_41 
REMARK   13  A    between atoms: C30_49  and  C31_50 
REMARK   14  A    between atoms: C31_50  and  C32_51 
REMARK   15  A    between atoms: C35_56  and  O6_57 
ROOT
HETATM    1  C5  UNL     1      17.951  22.534  16.590  1.00  0.00     0.158 C 
HETATM    2  N1  UNL     1      16.876  23.478  16.838  1.00  0.00    -0.361 N 
ATOM      3  H1  UNL     1      16.985  24.069  17.662  1.00  0.00     0.162 HD
HETATM    4  C6  UNL     1      15.704  23.683  16.089  1.00  0.00     0.135 C 
HETATM    5  C7  UNL     1      15.569  24.097  14.681  1.00  0.00     0.159 C 
HETATM    6  N2  UNL     1      15.931  23.099  13.706  1.00  0.00    -0.347 N 
ATOM      7  H2  UNL     1      16.926  23.053  13.487  1.00  0.00     0.163 HD
HETATM    8  C12 UNL     1      15.133  22.182  13.013  1.00  0.00     0.246 C 
HETATM    9  O2  UNL     1      15.211  22.229  11.729  1.00  0.00    -0.271 OA
HETATM   10  C13 UNL     1      14.210  21.161  13.547  1.00  0.00     0.106 C 
HETATM   11  C14 UNL     1      13.680  20.309  12.381  1.00  0.00     0.048 C 
HETATM   12  C15 UNL     1      14.987  20.196  14.408  1.00  0.00     0.048 C 
HETATM   13  N3  UNL     1      13.067  21.721  14.176  1.00  0.00    -0.342 N 
ATOM     14  H3  UNL     1      12.962  22.726  14.037  1.00  0.00     0.163 HD
HETATM   15  C16 UNL     1      12.064  21.143  14.946  1.00  0.00     0.241 C 
HETATM   16  O3  UNL     1      10.850  21.509  14.699  1.00  0.00    -0.271 OA
HETATM   17  C17 UNL     1      12.160  20.155  16.032  1.00  0.00     0.177 C 
HETATM   18  N4  UNL     1      12.141  20.818  17.326  1.00  0.00    -0.346 N 
ATOM     19  H4  UNL     1      11.614  21.690  17.378  1.00  0.00     0.163 HD
HETATM   20  C22 UNL     1      12.765  20.395  18.518  1.00  0.00     0.241 C 
HETATM   21  O4  UNL     1      11.937  20.178  19.484  1.00  0.00    -0.271 OA
HETATM   22  C23 UNL     1      14.179  20.178  18.799  1.00  0.00     0.178 C 
HETATM   23  N6  UNL     1      14.609  20.371  20.161  1.00  0.00    -0.341 N 
HETATM   24  C28 UNL     1      13.729  20.103  21.262  1.00  0.00     0.153 C 
HETATM   25  C29 UNL     1      15.957  20.829  20.462  1.00  0.00     0.243 C 
HETATM   26  O5  UNL     1      16.542  20.302  21.465  1.00  0.00    -0.271 OA
HETATM   27  C30 UNL     1      16.690  21.840  19.698  1.00  0.00     0.176 C 
HETATM   28  N7  UNL     1      17.669  21.211  18.788  1.00  0.00    -0.359 N 
ATOM     29  H7  UNL     1      18.352  20.598  19.233  1.00  0.00     0.162 HD
HETATM   30  C35 UNL     1      17.788  21.337  17.419  1.00  0.00     0.135 C 
ENDROOT
BRANCH  22  31
HETATM   31  C24 UNL     1      14.749  18.870  18.311  1.00  0.00     0.035 C 
BRANCH  31  32
HETATM   32  C25 UNL     1      14.602  17.706  19.222  1.00  0.00     0.004 C 
BRANCH  32  33
HETATM   33  C26 UNL     1      13.304  16.937  18.938  1.00  0.00     0.027 C 
BRANCH  33  34
HETATM   34  C27 UNL     1      12.500  17.003  20.235  1.00  0.00     0.229 C 
BRANCH  34  35
HETATM   35  N5  UNL     1      11.157  17.488  19.988  1.00  0.00    -0.079 N 
ATOM     36  H53 UNL     1      10.629  16.850  19.394  1.00  0.00     0.274 HD
ATOM     37  H52 UNL     1      10.577  17.434  20.826  1.00  0.00     0.274 HD
ATOM     38  H51 UNL     1      11.176  18.433  19.603  1.00  0.00     0.274 HD
ENDBRANCH  34  35
ENDBRANCH  33  34
ENDBRANCH  32  33
ENDBRANCH  31  32
ENDBRANCH  22  31
BRANCH  17  39
HETATM   39  C18 UNL     1      10.911  19.258  15.910  1.00  0.00     0.038 C 
BRANCH  39  40
HETATM   40  C19 UNL     1      11.185  17.928  15.323  1.00  0.00    -0.020 C 
HETATM   41  C20 UNL     1      10.428  17.893  13.978  1.00  0.00     0.009 C 
HETATM   42  C21 UNL     1      10.543  16.791  16.129  1.00  0.00     0.009 C 
ENDBRANCH  39  40
ENDBRANCH  17  39
BRANCH  27  43
HETATM   43  C31 UNL     1      17.422  22.834  20.519  1.00  0.00     0.038 C 
BRANCH  43  44
HETATM   44  C32 UNL     1      18.821  23.139  20.247  1.00  0.00    -0.020 C 
HETATM   45  C33 UNL     1      19.664  21.903  20.712  1.00  0.00     0.009 C 
HETATM   46  C34 UNL     1      19.374  24.324  20.946  1.00  0.00     0.009 C 
ENDBRANCH  43  44
ENDBRANCH  27  43
BRANCH  30  47
HETATM   47  O6  UNL     1      17.751  20.218  16.751  1.00  0.00    -0.348 OA
ATOM     48  H6  UNL     1      18.246  19.508  17.144  1.00  0.00     0.219 HD
ENDBRANCH  30  47
BRANCH   1  49
HETATM   49  C4  UNL     1      19.223  23.289  16.744  1.00  0.00     0.037 C 
BRANCH  49  50
HETATM   50  C2  UNL     1      19.205  24.744  16.866  1.00  0.00    -0.020 C 
HETATM   51  C1  UNL     1      20.480  25.415  17.251  1.00  0.00     0.009 C 
HETATM   52  C3  UNL     1      18.079  25.288  17.700  1.00  0.00     0.009 C 
ENDBRANCH  49  50
ENDBRANCH   1  49
BRANCH   4  53
HETATM   53  O1  UNL     1      14.613  23.471  16.766  1.00  0.00    -0.348 OA
ATOM     54  H1  UNL     1      13.851  23.322  16.218  1.00  0.00     0.219 HD
ENDBRANCH   4  53
BRANCH   5  55
HETATM   55  C8  UNL     1      16.416  25.362  14.409  1.00  0.00     0.037 C 
BRANCH  55  56
HETATM   56  C9  UNL     1      17.545  25.080  13.450  1.00  0.00    -0.020 C 
HETATM   57  C10 UNL     1      18.749  25.953  13.756  1.00  0.00     0.009 C 
HETATM   58  C11 UNL     1      17.108  25.282  12.006  1.00  0.00     0.009 C 
ENDBRANCH  55  56
ENDBRANCH   5  55
TORSDOF 15
ENDMDL
MODEL 4
REMARK VINA RESULT: -5.950334624      1.248      1.612
REMARK  15 active torsions:
REMARK  status: ('A' for Active; 'I' for Inactive)
REMARK    1  A    between atoms: C2_2  and  C4_4 
REMARK    2  A    between atoms: C4_4  and  C5_5 
REMARK    3  A    between atoms: C6_8  and  O1_9 
REMARK    4  A    between atoms: C7_11  and  C8_12 
REMARK    5  A    between atoms: C8_12  and  C9_13 
REMARK    6  A    between atoms: C17_27  and  C18_28 
REMARK    7  A    between atoms: C18_28  and  C19_29 
REMARK    8  A    between atoms: C23_36  and  C24_37 
REMARK    9  A    between atoms: C24_37  and  C25_38 
REMARK   10  A    between atoms: C25_38  and  C26_39 
REMARK   11  A    between atoms: C26_39  and  C27_40 
REMARK   12  A    between atoms: C27_40  and  N5_41 
REMARK   13  A    between atoms: C30_49  and  C31_50 
REMARK   14  A    between atoms: C31_50  and  C32_51 
REMARK   15  A    between atoms: C35_56  and  O6_57 
ROOT
HETATM    1  C5  UNL     1      24.723  27.149  17.044  1.00  0.00     0.158 C 
HETATM    2  N1  UNL     1      24.977  27.499  18.430  1.00  0.00    -0.361 N 
ATOM      3  H1  UNL     1      25.080  28.495  18.625  1.00  0.00     0.162 HD
HETATM    4  C6  UNL     1      25.098  26.643  19.539  1.00  0.00     0.135 C 
HETATM    5  C7  UNL     1      24.107  25.703  20.092  1.00  0.00     0.159 C 
HETATM    6  N2  UNL     1      23.864  24.524  19.299  1.00  0.00    -0.347 N 
ATOM      7  H2  UNL     1      23.179  24.641  18.553  1.00  0.00     0.163 HD
HETATM    8  C12 UNL     1      24.420  23.243  19.392  1.00  0.00     0.246 C 
HETATM    9  O2  UNL     1      23.581  22.277  19.531  1.00  0.00    -0.271 OA
HETATM   10  C13 UNL     1      25.839  22.839  19.351  1.00  0.00     0.106 C 
HETATM   11  C14 UNL     1      25.921  21.303  19.347  1.00  0.00     0.048 C 
HETATM   12  C15 UNL     1      26.434  23.261  18.030  1.00  0.00     0.048 C 
HETATM   13  N3  UNL     1      26.571  23.268  20.489  1.00  0.00    -0.342 N 
ATOM     14  H3  UNL     1      25.995  23.651  21.238  1.00  0.00     0.163 HD
HETATM   15  C16 UNL     1      27.934  23.258  20.765  1.00  0.00     0.241 C 
HETATM   16  O3  UNL     1      28.291  22.870  21.945  1.00  0.00    -0.271 OA
HETATM   17  C17 UNL     1      29.072  23.630  19.910  1.00  0.00     0.177 C 
HETATM   18  N4  UNL     1      29.491  24.995  20.187  1.00  0.00    -0.346 N 
ATOM     19  H4  UNL     1      29.347  25.326  21.141  1.00  0.00     0.163 HD
HETATM   20  C22 UNL     1      30.073  25.914  19.290  1.00  0.00     0.241 C 
HETATM   21  O4  UNL     1      31.252  26.303  19.643  1.00  0.00    -0.271 OA
HETATM   22  C23 UNL     1      29.538  26.470  18.052  1.00  0.00     0.178 C 
HETATM   23  N6  UNL     1      29.995  27.785  17.679  1.00  0.00    -0.341 N 
HETATM   24  C28 UNL     1      31.313  28.237  18.021  1.00  0.00     0.153 C 
HETATM   25  C29 UNL     1      29.138  28.689  16.927  1.00  0.00     0.243 C 
HETATM   26  O5  UNL     1      29.688  29.392  16.016  1.00  0.00    -0.271 OA
HETATM   27  C30 UNL     1      27.698  28.845  17.134  1.00  0.00     0.176 C 
HETATM   28  N7  UNL     1      26.931  28.106  16.111  1.00  0.00    -0.359 N 
ATOM     29  H7  UNL     1      27.138  28.353  15.143  1.00  0.00     0.162 HD
HETATM   30  C35 UNL     1      25.974  27.127  16.281  1.00  0.00     0.135 C 
ENDROOT
BRANCH  22  31
HETATM   31  C24 UNL     1      29.636  25.580  16.840  1.00  0.00     0.035 C 
BRANCH  31  32
HETATM   32  C25 UNL     1      30.895  24.804  16.691  1.00  0.00     0.004 C 
BRANCH  32  33
HETATM   33  C26 UNL     1      31.630  25.180  15.397  1.00  0.00     0.027 C 
BRANCH  33  34
HETATM   34  C27 UNL     1      30.634  26.010  14.589  1.00  0.00     0.229 C 
BRANCH  34  35
HETATM   35  N5  UNL     1      31.205  27.291  14.222  1.00  0.00    -0.079 N 
ATOM     36  H53 UNL     1      32.068  27.479  14.732  1.00  0.00     0.274 HD
ATOM     37  H52 UNL     1      31.585  27.276  13.276  1.00  0.00     0.274 HD
ATOM     38  H51 UNL     1      30.524  28.041  14.343  1.00  0.00     0.274 HD
ENDBRANCH  34  35
ENDBRANCH  33  34
ENDBRANCH  32  33
ENDBRANCH  31  32
ENDBRANCH  22  31
BRANCH  17  39
HETATM   39  C18 UNL     1      30.220  22.669  20.279  1.00  0.00     0.038 C 
BRANCH  39  40
HETATM   40  C19 UNL     1      30.627  21.771  19.176  1.00  0.00    -0.020 C 
HETATM   41  C20 UNL     1      30.047  20.383  19.521  1.00  0.00     0.009 C 
HETATM   42  C21 UNL     1      32.143  21.532  19.146  1.00  0.00     0.009 C 
ENDBRANCH  39  40
ENDBRANCH  17  39
BRANCH  27  43
HETATM   43  C31 UNL     1      27.214  30.247  17.125  1.00  0.00     0.038 C 
BRANCH  43  44
HETATM   44  C32 UNL     1      26.413  30.751  16.015  1.00  0.00    -0.020 C 
HETATM   45  C33 UNL     1      27.355  31.630  15.125  1.00  0.00     0.009 C 
HETATM   46  C34 UNL     1      25.256  31.601  16.386  1.00  0.00     0.009 C 
ENDBRANCH  43  44
ENDBRANCH  27  43
BRANCH  30  47
HETATM   47  O6  UNL     1      26.214  26.000  15.669  1.00  0.00    -0.348 OA
ATOM     48  H6  UNL     1      26.727  25.379  16.173  1.00  0.00     0.219 HD
ENDBRANCH  30  47
BRANCH   1  49
HETATM   49  C4  UNL     1      23.659  28.069  16.561  1.00  0.00     0.037 C 
BRANCH  49  50
HETATM   50  C2  UNL     1      22.352  27.543  16.177  1.00  0.00    -0.020 C 
HETATM   51  C1  UNL     1      21.583  26.797  17.214  1.00  0.00     0.009 C 
HETATM   52  C3  UNL     1      22.343  26.768  14.888  1.00  0.00     0.009 C 
ENDBRANCH  49  50
ENDBRANCH   1  49
BRANCH   4  53
HETATM   53  O1  UNL     1      26.254  26.722  20.130  1.00  0.00    -0.348 OA
ATOM     54  H1  UNL     1      26.927  27.125  19.593  1.00  0.00     0.219 HD
ENDBRANCH   4  53
BRANCH   5  55
HETATM   55  C8  UNL     1      22.754  26.418  20.315  1.00  0.00     0.037 C 
BRANCH  55  56
HETATM   56  C9  UNL     1      22.003  25.836  21.486  1.00  0.00    -0.020 C 
HETATM   57  C10 UNL     1      20.594  25.435  21.085  1.00  0.00     0.009 C 
HETATM   58  C11 UNL     1      21.955  26.812  22.653  1.00  0.00     0.009 C 
ENDBRANCH  55  56
ENDBRANCH   5  55
TORSDOF 15
ENDMDL
MODEL 5
REMARK VINA RESULT: -5.900757355      1.893      7.062
REMARK  15 active torsions:
REMARK  status: ('A' for Active; 'I' for Inactive)
REMARK    1  A    between atoms: C2_2  and  C4_4 
REMARK    2  A    between atoms: C4_4  and  C5_5 
REMARK    3  A    between atoms: C6_8  and  O1_9 
REMARK    4  A    between atoms: C7_11  and  C8_12 
REMARK    5  A    between atoms: C8_12  and  C9_13 
REMARK    6  A    between atoms: C17_27  and  C18_28 
REMARK    7  A    between atoms: C18_28  and  C19_29 
REMARK    8  A    between atoms: C23_36  and  C24_37 
REMARK    9  A    between atoms: C24_37  and  C25_38 
REMARK   10  A    between atoms: C25_38  and  C26_39 
REMARK   11  A    between atoms: C26_39  and  C27_40 
REMARK   12  A    between atoms: C27_40  and  N5_41 
REMARK   13  A    between atoms: C30_49  and  C31_50 
REMARK   14  A    between atoms: C31_50  and  C32_51 
REMARK   15  A    between atoms: C35_56  and  O6_57 
ROOT
HETATM    1  C5  UNL     1      26.465  28.171  16.358  1.00  0.00     0.158 C 
HETATM    2  N1  UNL     1      26.455  26.838  15.783  1.00  0.00    -0.361 N 
ATOM      3  H1  UNL     1      25.763  26.676  15.051  1.00  0.00     0.162 HD
HETATM    4  C6  UNL     1      27.275  25.742  16.103  1.00  0.00     0.135 C 
HETATM    5  C7  UNL     1      28.742  25.630  16.012  1.00  0.00     0.159 C 
HETATM    6  N2  UNL     1      29.480  26.379  16.998  1.00  0.00    -0.347 N 
ATOM      7  H2  UNL     1      29.647  27.356  16.759  1.00  0.00     0.163 HD
HETATM    8  C12 UNL     1      30.005  25.976  18.231  1.00  0.00     0.246 C 
HETATM    9  O2  UNL     1      31.268  26.166  18.391  1.00  0.00    -0.271 OA
HETATM   10  C13 UNL     1      29.313  25.363  19.382  1.00  0.00     0.106 C 
HETATM   11  C14 UNL     1      30.304  25.242  20.553  1.00  0.00     0.048 C 
HETATM   12  C15 UNL     1      28.246  26.308  19.875  1.00  0.00     0.048 C 
HETATM   13  N3  UNL     1      28.856  24.046  19.117  1.00  0.00    -0.342 N 
ATOM     14  H3  UNL     1      29.197  23.651  18.241  1.00  0.00     0.163 HD
HETATM   15  C16 UNL     1      28.024  23.197  19.839  1.00  0.00     0.241 C 
HETATM   16  O3  UNL     1      28.387  21.961  19.934  1.00  0.00    -0.271 OA
HETATM   17  C17 UNL     1      26.759  23.482  20.533  1.00  0.00     0.177 C 
HETATM   18  N4  UNL     1      25.626  23.128  19.692  1.00  0.00    -0.346 N 
ATOM     19  H4  UNL     1      25.772  22.356  19.041  1.00  0.00     0.163 HD
HETATM   20  C22 UNL     1      24.351  23.729  19.671  1.00  0.00     0.241 C 
HETATM   21  O4  UNL     1      23.394  22.914  19.967  1.00  0.00    -0.271 OA
HETATM   22  C23 UNL     1      23.976  25.105  19.369  1.00  0.00     0.178 C 
HETATM   23  N6  UNL     1      22.665  25.314  18.807  1.00  0.00    -0.341 N 
HETATM   24  C28 UNL     1      21.569  24.452  19.143  1.00  0.00     0.153 C 
HETATM   25  C29 UNL     1      22.410  26.418  17.894  1.00  0.00     0.243 C 
HETATM   26  O5  UNL     1      21.299  27.032  18.017  1.00  0.00    -0.271 OA
HETATM   27  C30 UNL     1      23.333  26.877  16.855  1.00  0.00     0.176 C 
HETATM   28  N7  UNL     1      24.058  28.089  17.287  1.00  0.00    -0.359 N 
ATOM     29  H7  UNL     1      23.472  28.878  17.558  1.00  0.00     0.162 HD
HETATM   30  C35 UNL     1      25.419  28.301  17.376  1.00  0.00     0.135 C 
ENDROOT
BRANCH  22  31
HETATM   31  C24 UNL     1      24.168  26.096  20.488  1.00  0.00     0.035 C 
BRANCH  31  32
HETATM   32  C25 UNL     1      23.558  25.740  21.795  1.00  0.00     0.004 C 
BRANCH  32  33
HETATM   33  C26 UNL     1      22.653  26.868  22.312  1.00  0.00     0.027 C 
BRANCH  33  34
HETATM   34  C27 UNL     1      21.321  26.686  21.587  1.00  0.00     0.229 C 
BRANCH  34  35
HETATM   35  N5  UNL     1      20.921  27.909  20.921  1.00  0.00    -0.079 N 
ATOM     36  H53 UNL     1      20.084  28.311  21.343  1.00  0.00     0.274 HD
ATOM     37  H52 UNL     1      21.571  28.672  21.113  1.00  0.00     0.274 HD
ATOM     38  H51 UNL     1      20.802  27.758  19.919  1.00  0.00     0.274 HD
ENDBRANCH  34  35
ENDBRANCH  33  34
ENDBRANCH  32  33
ENDBRANCH  31  32
ENDBRANCH  22  31
BRANCH  17  39
HETATM   39  C18 UNL     1      26.747  22.589  21.791  1.00  0.00     0.038 C 
BRANCH  39  40
HETATM   40  C19 UNL     1      26.403  23.313  23.035  1.00  0.00    -0.020 C 
HETATM   41  C20 UNL     1      26.843  24.775  22.812  1.00  0.00     0.009 C 
HETATM   42  C21 UNL     1      27.254  22.858  24.229  1.00  0.00     0.009 C 
ENDBRANCH  39  40
ENDBRANCH  17  39
BRANCH  27  43
HETATM   43  C31 UNL     1      22.701  27.180  15.548  1.00  0.00     0.038 C 
BRANCH  43  44
HETATM   44  C32 UNL     1      21.331  26.766  15.269  1.00  0.00    -0.020 C 
HETATM   45  C33 UNL     1      21.388  25.742  14.085  1.00  0.00     0.009 C 
HETATM   46  C34 UNL     1      20.399  27.845  14.861  1.00  0.00     0.009 C 
ENDBRANCH  43  44
ENDBRANCH  27  43
BRANCH  30  47
HETATM   47  O6  UNL     1      25.849  28.679  18.548  1.00  0.00    -0.348 OA
ATOM     48  H6  UNL     1      26.394  29.457  18.536  1.00  0.00     0.219 HD
ENDBRANCH  30  47
BRANCH   1  49
HETATM   49  C4  UNL     1      26.416  29.127  15.220  1.00  0.00     0.037 C 
BRANCH  49  50
HETATM   50  C2  UNL     1      27.443  30.155  15.078  1.00  0.00    -0.020 C 
HETATM   51  C1  UNL     1      28.864  29.727  15.225  1.00  0.00     0.009 C 
HETATM   52  C3  UNL     1      27.204  31.396  15.893  1.00  0.00     0.009 C 
ENDBRANCH  49  50
ENDBRANCH   1  49
BRANCH   4  53
HETATM   53  O1  UNL     1      26.613  24.708  16.530  1.00  0.00    -0.348 OA
ATOM     54  H1  UNL     1      26.885  23.891  16.127  1.00  0.00     0.219 HD
ENDBRANCH   4  53
BRANCH   5  55
HETATM   55  C8  UNL     1      29.229  26.069  14.612  1.00  0.00     0.037 C 
BRANCH  55  56
HETATM   56  C9  UNL     1      30.726  25.939  14.478  1.00  0.00    -0.020 C 
HETATM   57  C10 UNL     1      31.295  27.060  13.627  1.00  0.00     0.009 C 
HETATM   58  C11 UNL     1      31.114  24.589  13.891  1.00  0.00     0.009 C 
ENDBRANCH  55  56
ENDBRANCH   5  55
TORSDOF 15
ENDMDL
