MODEL 1
REMARK VINA RESULT: -6.908840121      0.000      0.000
REMARK  14 active torsions:
REMARK  status: ('A' for Active; 'I' for Inactive)
REMARK    1  A    between atoms: C2_2  and  C4_4 
REMARK    2  A    between atoms: C4_4  and  C5_5 
REMARK    3  A    between atoms: C6_8  and  O1_9 
REMARK    4  A    between atoms: C7_11  and  C8_12 
REMARK    5  A    between atoms: C8_12  and  C9_13 
REMARK    6  A    between atoms: C13_20  and  C14_21 
REMARK    7  A    between atoms: C14_21  and  C15_22 
REMARK    8  A    between atoms: C18_27  and  O3_28 
REMARK    9  A    between atoms: C19_30  and  C20_31 
REMARK   10  A    between atoms: C20_31  and  C21_32 
REMARK       I    between atoms: N4_35  and  C24_36 
REMARK   11  A    between atoms: C24_36  and  C25_38 
REMARK   12  A    between atoms: C28_43  and  O5_44 
REMARK   13  A    between atoms: C29_46  and  C30_47 
REMARK   14  A    between atoms: C30_47  and  C31_48 
ROOT
HETATM    1  C5  UNL     1      23.003  24.490  19.530  1.00  0.00     0.175 C 
HETATM    2  N1  UNL     1      24.091  23.598  19.184  1.00  0.00    -0.359 N 
ATOM      3  H1  UNL     1      23.765  22.669  18.918  1.00  0.00     0.162 HD
HETATM    4  C6  UNL     1      25.454  23.709  19.130  1.00  0.00     0.135 C 
HETATM    5  C7  UNL     1      26.495  23.811  20.154  1.00  0.00     0.159 C 
HETATM    6  N2  UNL     1      26.422  25.067  20.930  1.00  0.00    -0.347 N 
ATOM      7  H2  UNL     1      25.709  25.122  21.657  1.00  0.00     0.163 HD
HETATM    8  C12 UNL     1      27.244  26.186  20.757  1.00  0.00     0.241 C 
HETATM    9  O2  UNL     1      26.710  27.340  20.932  1.00  0.00    -0.271 OA
HETATM   10  C13 UNL     1      28.655  26.242  20.400  1.00  0.00     0.176 C 
HETATM   11  N3  UNL     1      29.012  26.379  19.036  1.00  0.00    -0.356 N 
ATOM     12  H3  UNL     1      30.011  26.565  18.947  1.00  0.00     0.162 HD
HETATM   13  C18 UNL     1      28.423  26.338  17.799  1.00  0.00     0.162 C 
HETATM   14  C19 UNL     1      27.520  27.039  16.943  1.00  0.00     0.088 C 
HETATM   15  N4  UNL     1      26.848  28.266  17.300  1.00  0.00    -0.222 N 
HETATM   16  C24 UNL     1      27.573  29.309  18.007  1.00  0.00     0.246 C 
HETATM   17  O4  UNL     1      28.761  29.204  18.316  1.00  0.00    -0.271 OA
HETATM   18  N5  UNL     1      25.520  28.535  16.950  1.00  0.00    -0.272 N 
ATOM     19  H5  UNL     1      25.295  29.530  16.971  1.00  0.00     0.189 HD
HETATM   20  C28 UNL     1      24.434  27.736  16.578  1.00  0.00     0.154 C 
HETATM   21  C29 UNL     1      23.523  26.870  17.360  1.00  0.00     0.166 C 
HETATM   22  N8  UNL     1      23.895  26.778  18.765  1.00  0.00    -0.347 N 
ATOM     23  H8  UNL     1      24.608  27.432  19.088  1.00  0.00     0.163 HD
HETATM   24  C34 UNL     1      23.386  25.900  19.714  1.00  0.00     0.241 C 
HETATM   25  O6  UNL     1      23.236  26.385  20.895  1.00  0.00    -0.271 OA
ENDROOT
BRANCH  21  26
HETATM   26  C30 UNL     1      22.092  27.399  17.394  1.00  0.00     0.092 C 
BRANCH  26  27
HETATM   27  C31 UNL     1      21.076  26.633  16.732  1.00  0.00     0.028 A 
HETATM   28  C32 UNL     1      19.925  26.093  17.271  1.00  0.00     0.114 A 
HETATM   29  N6  UNL     1      19.230  25.467  16.281  1.00  0.00    -0.360 N 
HETATM   30  C33 UNL     1      19.935  25.614  15.144  1.00  0.00     0.180 A 
ATOM     31  H6  UNL     1      18.342  24.978  16.383  1.00  0.00     0.166 HD
HETATM   32  N7  UNL     1      21.034  26.311  15.427  1.00  0.00    -0.354 N 
ATOM     33  H7  UNL     1      21.748  26.567  14.745  1.00  0.00     0.166 HD
ENDBRANCH  26  27
ENDBRANCH  21  26
BRANCH  20  34
HETATM   34  O5  UNL     1      24.069  27.674  15.325  1.00  0.00    -0.347 OA
ATOM     35  H5  UNL     1      23.147  27.637  15.101  1.00  0.00     0.219 HD
ENDBRANCH  20  34
BRANCH   1  36
HETATM   36  C4  UNL     1      22.210  23.881  20.648  1.00  0.00     0.038 C 
BRANCH  36  37
HETATM   37  C2  UNL     1      20.856  23.375  20.335  1.00  0.00    -0.020 C 
HETATM   38  C1  UNL     1      19.864  24.256  21.118  1.00  0.00     0.009 C 
HETATM   39  C3  UNL     1      20.732  21.999  21.018  1.00  0.00     0.009 C 
ENDBRANCH  36  37
ENDBRANCH   1  36
BRANCH  14  40
HETATM   40  C20 UNL     1      28.006  27.118  15.500  1.00  0.00     0.067 C 
BRANCH  40  41
HETATM   41  C21 UNL     1      29.242  27.784  15.173  1.00  0.00    -0.017 C 
HETATM   42  C22 UNL     1      30.293  27.124  14.365  1.00  0.00     0.010 C 
HETATM   43  C23 UNL     1      28.840  29.027  14.339  1.00  0.00     0.010 C 
ENDBRANCH  40  41
ENDBRANCH  14  40
BRANCH  16  44
HETATM   44  C25 UNL     1      26.922  30.589  18.405  1.00  0.00     0.072 C 
HETATM   45  C26 UNL     1      27.630  31.190  19.604  1.00  0.00     0.019 C 
HETATM   46  C27 UNL     1      27.097  31.655  17.319  1.00  0.00     0.019 C 
ENDBRANCH  16  44
BRANCH  13  47
HETATM   47  O3  UNL     1      28.825  25.248  17.118  1.00  0.00    -0.345 OA
ATOM     48  H3  UNL     1      29.022  25.471  16.216  1.00  0.00     0.219 HD
ENDBRANCH  13  47
BRANCH   4  49
HETATM   49  O1  UNL     1      25.928  23.730  17.904  1.00  0.00    -0.348 OA
ATOM     50  H1  UNL     1      26.580  24.407  17.763  1.00  0.00     0.219 HD
ENDBRANCH   4  49
BRANCH   5  51
HETATM   51  C8  UNL     1      26.708  22.685  21.091  1.00  0.00     0.037 C 
BRANCH  51  52
HETATM   52  C9  UNL     1      27.754  21.672  20.832  1.00  0.00    -0.020 C 
HETATM   53  C10 UNL     1      28.967  22.254  20.169  1.00  0.00     0.009 C 
HETATM   54  C11 UNL     1      27.166  20.587  19.932  1.00  0.00     0.009 C 
ENDBRANCH  51  52
ENDBRANCH   5  51
BRANCH  10  55
HETATM   55  C14 UNL     1      29.387  27.261  21.293  1.00  0.00     0.038 C 
BRANCH  55  56
HETATM   56  C15 UNL     1      30.226  26.646  22.351  1.00  0.00    -0.020 C 
HETATM   57  C16 UNL     1      30.404  25.156  22.175  1.00  0.00     0.009 C 
HETATM   58  C17 UNL     1      29.434  26.846  23.666  1.00  0.00     0.009 C 
ENDBRANCH  55  56
ENDBRANCH  10  55
TORSDOF 14
ENDMDL
MODEL 2
REMARK VINA RESULT: -6.553309030      0.900      1.151
REMARK  14 active torsions:
REMARK  status: ('A' for Active; 'I' for Inactive)
REMARK    1  A    between atoms: C2_2  and  C4_4 
REMARK    2  A    between atoms: C4_4  and  C5_5 
REMARK    3  A    between atoms: C6_8  and  O1_9 
REMARK    4  A    between atoms: C7_11  and  C8_12 
REMARK    5  A    between atoms: C8_12  and  C9_13 
REMARK    6  A    between atoms: C13_20  and  C14_21 
REMARK    7  A    between atoms: C14_21  and  C15_22 
REMARK    8  A    between atoms: C18_27  and  O3_28 
REMARK    9  A    between atoms: C19_30  and  C20_31 
REMARK   10  A    between atoms: C20_31  and  C21_32 
REMARK       I    between atoms: N4_35  and  C24_36 
REMARK   11  A    between atoms: C24_36  and  C25_38 
REMARK   12  A    between atoms: C28_43  and  O5_44 
REMARK   13  A    between atoms: C29_46  and  C30_47 
REMARK   14  A    between atoms: C30_47  and  C31_48 
ROOT
HETATM    1  C5  UNL     1      22.889  24.900  19.458  1.00  0.00     0.175 C 
HETATM    2  N1  UNL     1      23.902  23.888  19.238  1.00  0.00    -0.359 N 
ATOM      3  H1  UNL     1      23.501  22.972  19.035  1.00  0.00     0.162 HD
HETATM    4  C6  UNL     1      25.271  23.871  19.240  1.00  0.00     0.135 C 
HETATM    5  C7  UNL     1      26.276  23.967  20.300  1.00  0.00     0.159 C 
HETATM    6  N2  UNL     1      26.290  25.286  20.965  1.00  0.00    -0.347 N 
ATOM      7  H2  UNL     1      25.557  25.469  21.650  1.00  0.00     0.163 HD
HETATM    8  C12 UNL     1      27.218  26.309  20.739  1.00  0.00     0.241 C 
HETATM    9  O2  UNL     1      26.788  27.516  20.793  1.00  0.00    -0.271 OA
HETATM   10  C13 UNL     1      28.642  26.206  20.445  1.00  0.00     0.176 C 
HETATM   11  N3  UNL     1      29.063  26.192  19.093  1.00  0.00    -0.356 N 
ATOM     12  H3  UNL     1      30.078  26.279  19.036  1.00  0.00     0.162 HD
HETATM   13  C18 UNL     1      28.522  26.098  17.837  1.00  0.00     0.162 C 
HETATM   14  C19 UNL     1      27.723  26.800  16.885  1.00  0.00     0.088 C 
HETATM   15  N4  UNL     1      27.155  28.109  17.108  1.00  0.00    -0.222 N 
HETATM   16  C24 UNL     1      27.946  29.140  17.760  1.00  0.00     0.246 C 
HETATM   17  O4  UNL     1      29.105  28.956  18.131  1.00  0.00    -0.271 OA
HETATM   18  N5  UNL     1      25.872  28.465  16.675  1.00  0.00    -0.272 N 
ATOM     19  H5  UNL     1      25.741  29.474  16.603  1.00  0.00     0.189 HD
HETATM   20  C28 UNL     1      24.732  27.737  16.319  1.00  0.00     0.154 C 
HETATM   21  C29 UNL     1      23.714  27.027  17.126  1.00  0.00     0.166 C 
HETATM   22  N8  UNL     1      24.020  27.024  18.549  1.00  0.00    -0.347 N 
ATOM     23  H8  UNL     1      24.778  27.636  18.851  1.00  0.00     0.163 HD
HETATM   24  C34 UNL     1      23.395  26.281  19.543  1.00  0.00     0.241 C 
HETATM   25  O6  UNL     1      23.244  26.877  20.671  1.00  0.00    -0.271 OA
ENDROOT
BRANCH  21  26
HETATM   26  C30 UNL     1      22.339  27.683  17.048  1.00  0.00     0.092 C 
BRANCH  26  27
HETATM   27  C31 UNL     1      21.416  27.197  16.064  1.00  0.00     0.028 A 
HETATM   28  C32 UNL     1      20.272  26.448  16.260  1.00  0.00     0.114 A 
HETATM   29  N6  UNL     1      19.680  26.231  15.054  1.00  0.00    -0.360 N 
HETATM   30  C33 UNL     1      20.441  26.833  14.120  1.00  0.00     0.180 A 
ATOM     31  H6  UNL     1      18.820  25.708  14.887  1.00  0.00     0.166 HD
HETATM   32  N7  UNL     1      21.473  27.405  14.736  1.00  0.00    -0.354 N 
ATOM     33  H7  UNL     1      22.208  27.932  14.265  1.00  0.00     0.166 HD
ENDBRANCH  26  27
ENDBRANCH  21  26
BRANCH  20  34
HETATM   34  O5  UNL     1      24.413  27.600  15.060  1.00  0.00    -0.347 OA
ATOM     35  H5  UNL     1      24.657  26.811  14.591  1.00  0.00     0.219 HD
ENDBRANCH  20  34
BRANCH   1  36
HETATM   36  C4  UNL     1      21.999  24.463  20.584  1.00  0.00     0.038 C 
BRANCH  36  37
HETATM   37  C2  UNL     1      20.896  23.533  20.267  1.00  0.00    -0.020 C 
HETATM   38  C1  UNL     1      19.649  24.059  21.003  1.00  0.00     0.009 C 
HETATM   39  C3  UNL     1      21.212  22.212  20.996  1.00  0.00     0.009 C 
ENDBRANCH  36  37
ENDBRANCH   1  36
BRANCH  14  40
HETATM   40  C20 UNL     1      28.270  26.710  15.465  1.00  0.00     0.067 C 
BRANCH  40  41
HETATM   41  C21 UNL     1      29.518  27.342  15.113  1.00  0.00    -0.017 C 
HETATM   42  C22 UNL     1      30.595  26.605  14.415  1.00  0.00     0.010 C 
HETATM   43  C23 UNL     1      29.146  28.490  14.142  1.00  0.00     0.010 C 
ENDBRANCH  40  41
ENDBRANCH  14  40
BRANCH  16  44
HETATM   44  C25 UNL     1      27.402  30.502  18.019  1.00  0.00     0.072 C 
HETATM   45  C26 UNL     1      27.875  31.010  19.367  1.00  0.00     0.019 C 
HETATM   46  C27 UNL     1      27.980  31.522  17.033  1.00  0.00     0.019 C 
ENDBRANCH  16  44
BRANCH  13  47
HETATM   47  O3  UNL     1      28.847  24.921  17.268  1.00  0.00    -0.345 OA
ATOM     48  H3  UNL     1      28.614  24.198  17.838  1.00  0.00     0.219 HD
ENDBRANCH  13  47
BRANCH   4  49
HETATM   49  O1  UNL     1      25.792  23.742  18.039  1.00  0.00    -0.348 OA
ATOM     50  H1  UNL     1      25.973  24.574  17.616  1.00  0.00     0.219 HD
ENDBRANCH   4  49
BRANCH   5  51
HETATM   51  C8  UNL     1      26.345  22.912  21.335  1.00  0.00     0.037 C 
BRANCH  51  52
HETATM   52  C9  UNL     1      27.598  22.662  22.079  1.00  0.00    -0.020 C 
HETATM   53  C10 UNL     1      28.134  21.279  21.858  1.00  0.00     0.009 C 
HETATM   54  C11 UNL     1      27.323  22.857  23.570  1.00  0.00     0.009 C 
ENDBRANCH  51  52
ENDBRANCH   5  51
BRANCH  10  55
HETATM   55  C14 UNL     1      29.430  27.229  21.285  1.00  0.00     0.038 C 
BRANCH  55  56
HETATM   56  C15 UNL     1      30.821  27.450  20.818  1.00  0.00    -0.020 C 
HETATM   57  C16 UNL     1      31.846  26.696  21.631  1.00  0.00     0.009 C 
HETATM   58  C17 UNL     1      31.093  28.957  21.048  1.00  0.00     0.009 C 
ENDBRANCH  55  56
ENDBRANCH  10  55
TORSDOF 14
ENDMDL
MODEL 3
REMARK VINA RESULT: -5.802341694      2.172      6.591
REMARK  14 active torsions:
REMARK  status: ('A' for Active; 'I' for Inactive)
REMARK    1  A    between atoms: C2_2  and  C4_4 
REMARK    2  A    between atoms: C4_4  and  C5_5 
REMARK    3  A    between atoms: C6_8  and  O1_9 
REMARK    4  A    between atoms: C7_11  and  C8_12 
REMARK    5  A    between atoms: C8_12  and  C9_13 
REMARK    6  A    between atoms: C13_20  and  C14_21 
REMARK    7  A    between atoms: C14_21  and  C15_22 
REMARK    8  A    between atoms: C18_27  and  O3_28 
REMARK    9  A    between atoms: C19_30  and  C20_31 
REMARK   10  A    between atoms: C20_31  and  C21_32 
REMARK       I    between atoms: N4_35  and  C24_36 
REMARK   11  A    between atoms: C24_36  and  C25_38 
REMARK   12  A    between atoms: C28_43  and  O5_44 
REMARK   13  A    between atoms: C29_46  and  C30_47 
REMARK   14  A    between atoms: C30_47  and  C31_48 
ROOT
HETATM    1  C5  UNL     1      23.254  24.128  20.704  1.00  0.00     0.175 C 
HETATM    2  N1  UNL     1      22.926  25.440  20.185  1.00  0.00    -0.359 N 
ATOM      3  H1  UNL     1      22.019  25.774  20.510  1.00  0.00     0.162 HD
HETATM    4  C6  UNL     1      23.548  26.337  19.359  1.00  0.00     0.135 C 
HETATM    5  C7  UNL     1      23.819  26.359  17.920  1.00  0.00     0.159 C 
HETATM    6  N2  UNL     1      24.766  25.308  17.495  1.00  0.00    -0.347 N 
ATOM      7  H2  UNL     1      24.400  24.360  17.407  1.00  0.00     0.163 HD
HETATM    8  C12 UNL     1      26.122  25.496  17.202  1.00  0.00     0.241 C 
HETATM    9  O2  UNL     1      26.929  24.550  17.519  1.00  0.00    -0.271 OA
HETATM   10  C13 UNL     1      26.774  26.636  16.570  1.00  0.00     0.176 C 
HETATM   11  N3  UNL     1      27.313  27.658  17.390  1.00  0.00    -0.356 N 
ATOM     12  H3  UNL     1      27.873  28.302  16.832  1.00  0.00     0.162 HD
HETATM   13  C18 UNL     1      27.311  28.044  18.705  1.00  0.00     0.162 C 
HETATM   14  C19 UNL     1      27.783  27.676  20.002  1.00  0.00     0.088 C 
HETATM   15  N4  UNL     1      28.567  26.495  20.276  1.00  0.00    -0.222 N 
HETATM   16  C24 UNL     1      29.636  26.108  19.370  1.00  0.00     0.246 C 
HETATM   17  O4  UNL     1      29.921  26.755  18.361  1.00  0.00    -0.271 OA
HETATM   18  N5  UNL     1      28.385  25.712  21.422  1.00  0.00    -0.272 N 
ATOM     19  H5  UNL     1      29.196  25.133  21.643  1.00  0.00     0.189 HD
HETATM   20  C28 UNL     1      27.333  25.550  22.329  1.00  0.00     0.154 C 
HETATM   21  C29 UNL     1      26.048  24.820  22.240  1.00  0.00     0.166 C 
HETATM   22  N8  UNL     1      25.814  24.241  20.925  1.00  0.00    -0.347 N 
ATOM     23  H8  UNL     1      26.605  24.246  20.281  1.00  0.00     0.163 HD
HETATM   24  C34 UNL     1      24.634  23.682  20.450  1.00  0.00     0.241 C 
HETATM   25  O6  UNL     1      24.772  22.652  19.694  1.00  0.00    -0.271 OA
ENDROOT
BRANCH  21  26
HETATM   26  C30 UNL     1      25.983  23.624  23.184  1.00  0.00     0.092 C 
BRANCH  26  27
HETATM   27  C31 UNL     1      27.109  22.737  23.225  1.00  0.00     0.028 A 
HETATM   28  C32 UNL     1      28.005  22.537  24.257  1.00  0.00     0.114 A 
HETATM   29  N6  UNL     1      28.901  21.584  23.881  1.00  0.00    -0.360 N 
HETATM   30  C33 UNL     1      28.571  21.194  22.635  1.00  0.00     0.180 A 
ATOM     31  H6  UNL     1      29.678  21.231  24.439  1.00  0.00     0.166 HD
HETATM   32  N7  UNL     1      27.501  21.889  22.256  1.00  0.00    -0.354 N 
ATOM     33  H7  UNL     1      27.039  21.792  21.352  1.00  0.00     0.166 HD
ENDBRANCH  26  27
ENDBRANCH  21  26
BRANCH  20  34
HETATM   34  O5  UNL     1      27.399  26.104  23.510  1.00  0.00    -0.347 OA
ATOM     35  H5  UNL     1      28.246  26.292  23.898  1.00  0.00     0.219 HD
ENDBRANCH  20  34
BRANCH   1  36
HETATM   36  C4  UNL     1      22.175  23.163  20.309  1.00  0.00     0.038 C 
BRANCH  36  37
HETATM   37  C2  UNL     1      21.248  22.698  21.362  1.00  0.00    -0.020 C 
HETATM   38  C1  UNL     1      20.437  21.539  20.754  1.00  0.00     0.009 C 
HETATM   39  C3  UNL     1      20.200  23.811  21.549  1.00  0.00     0.009 C 
ENDBRANCH  36  37
ENDBRANCH   1  36
BRANCH  14  40
HETATM   40  C20 UNL     1      28.333  28.857  20.793  1.00  0.00     0.067 C 
BRANCH  40  41
HETATM   41  C21 UNL     1      29.528  29.541  20.363  1.00  0.00    -0.017 C 
HETATM   42  C22 UNL     1      29.593  31.017  20.277  1.00  0.00     0.010 C 
HETATM   43  C23 UNL     1      30.620  29.167  21.397  1.00  0.00     0.010 C 
ENDBRANCH  40  41
ENDBRANCH  14  40
BRANCH  16  44
HETATM   44  C25 UNL     1      30.467  24.895  19.605  1.00  0.00     0.072 C 
HETATM   45  C26 UNL     1      30.553  24.061  18.341  1.00  0.00     0.019 C 
HETATM   46  C27 UNL     1      31.925  25.272  19.881  1.00  0.00     0.019 C 
ENDBRANCH  16  44
BRANCH  13  47
HETATM   47  O3  UNL     1      26.616  29.187  18.862  1.00  0.00    -0.345 OA
ATOM     48  H3  UNL     1      26.073  29.144  19.640  1.00  0.00     0.219 HD
ENDBRANCH  13  47
BRANCH   4  49
HETATM   49  O1  UNL     1      23.997  27.401  19.988  1.00  0.00    -0.348 OA
ATOM     50  H1  UNL     1      23.767  27.419  20.910  1.00  0.00     0.219 HD
ENDBRANCH   4  49
BRANCH   5  51
HETATM   51  C8  UNL     1      22.687  26.393  16.967  1.00  0.00     0.037 C 
BRANCH  51  52
HETATM   52  C9  UNL     1      21.512  27.256  17.218  1.00  0.00    -0.020 C 
HETATM   53  C10 UNL     1      20.373  26.509  17.845  1.00  0.00     0.009 C 
HETATM   54  C11 UNL     1      21.049  27.843  15.885  1.00  0.00     0.009 C 
ENDBRANCH  51  52
ENDBRANCH   5  51
BRANCH  10  55
HETATM   55  C14 UNL     1      27.785  26.149  15.515  1.00  0.00     0.038 C 
BRANCH  55  56
HETATM   56  C15 UNL     1      28.955  27.045  15.340  1.00  0.00    -0.020 C 
HETATM   57  C16 UNL     1      28.754  28.077  14.256  1.00  0.00     0.009 C 
HETATM   58  C17 UNL     1      30.107  26.124  14.869  1.00  0.00     0.009 C 
ENDBRANCH  55  56
ENDBRANCH  10  55
TORSDOF 14
ENDMDL
MODEL 4
REMARK VINA RESULT: -5.684910512      2.004      8.144
REMARK  14 active torsions:
REMARK  status: ('A' for Active; 'I' for Inactive)
REMARK    1  A    between atoms: C2_2  and  C4_4 
REMARK    2  A    between atoms: C4_4  and  C5_5 
REMARK    3  A    between atoms: C6_8  and  O1_9 
REMARK    4  A    between atoms: C7_11  and  C8_12 
REMARK    5  A    between atoms: C8_12  and  C9_13 
REMARK    6  A    between atoms: C13_20  and  C14_21 
REMARK    7  A    between atoms: C14_21  and  C15_22 
REMARK    8  A    between atoms: C18_27  and  O3_28 
REMARK    9  A    between atoms: C19_30  and  C20_31 
REMARK   10  A    between atoms: C20_31  and  C21_32 
REMARK       I    between atoms: N4_35  and  C24_36 
REMARK   11  A    between atoms: C24_36  and  C25_38 
REMARK   12  A    between atoms: C28_43  and  O5_44 
REMARK   13  A    between atoms: C29_46  and  C30_47 
REMARK   14  A    between atoms: C30_47  and  C31_48 
ROOT
HETATM    1  C5  UNL     1      27.334  28.742  16.724  1.00  0.00     0.175 C 
HETATM    2  N1  UNL     1      26.626  27.737  15.958  1.00  0.00    -0.359 N 
ATOM      3  H1  UNL     1      26.813  27.805  14.957  1.00  0.00     0.162 HD
HETATM    4  C6  UNL     1      25.765  26.717  16.260  1.00  0.00     0.135 C 
HETATM    5  C7  UNL     1      24.371  26.677  16.704  1.00  0.00     0.159 C 
HETATM    6  N2  UNL     1      24.177  27.244  18.055  1.00  0.00    -0.347 N 
ATOM      7  H2  UNL     1      24.169  28.260  18.135  1.00  0.00     0.163 HD
HETATM    8  C12 UNL     1      24.005  26.510  19.234  1.00  0.00     0.241 C 
HETATM    9  O2  UNL     1      24.517  26.993  20.307  1.00  0.00    -0.271 OA
HETATM   10  C13 UNL     1      23.309  25.246  19.434  1.00  0.00     0.176 C 
HETATM   11  N3  UNL     1      24.048  24.039  19.371  1.00  0.00    -0.356 N 
ATOM     12  H3  UNL     1      23.476  23.256  19.685  1.00  0.00     0.162 HD
HETATM   13  C18 UNL     1      25.298  23.605  19.016  1.00  0.00     0.162 C 
HETATM   14  C19 UNL     1      26.672  23.645  19.404  1.00  0.00     0.088 C 
HETATM   15  N4  UNL     1      27.169  24.352  20.561  1.00  0.00    -0.222 N 
HETATM   16  C24 UNL     1      26.432  24.301  21.813  1.00  0.00     0.246 C 
HETATM   17  O4  UNL     1      25.387  23.663  21.946  1.00  0.00    -0.271 OA
HETATM   18  N5  UNL     1      28.377  25.059  20.559  1.00  0.00    -0.272 N 
ATOM     19  H5  UNL     1      28.750  25.216  21.495  1.00  0.00     0.189 HD
HETATM   20  C28 UNL     1      29.184  25.597  19.550  1.00  0.00     0.154 C 
HETATM   21  C29 UNL     1      29.053  26.813  18.716  1.00  0.00     0.166 C 
HETATM   22  N8  UNL     1      27.802  27.523  18.941  1.00  0.00    -0.347 N 
ATOM     23  H8  UNL     1      27.248  27.221  19.742  1.00  0.00     0.163 HD
HETATM   24  C34 UNL     1      27.280  28.566  18.185  1.00  0.00     0.241 C 
HETATM   25  O6  UNL     1      26.675  29.484  18.850  1.00  0.00    -0.271 OA
ENDROOT
BRANCH  21  26
HETATM   26  C30 UNL     1      30.126  27.855  19.021  1.00  0.00     0.092 C 
BRANCH  26  27
HETATM   27  C31 UNL     1      30.391  28.165  20.395  1.00  0.00     0.028 A 
HETATM   28  C32 UNL     1      31.524  27.883  21.133  1.00  0.00     0.114 A 
HETATM   29  N6  UNL     1      31.363  28.384  22.389  1.00  0.00    -0.360 N 
HETATM   30  C33 UNL     1      30.151  28.968  22.435  1.00  0.00     0.180 A 
ATOM     31  H6  UNL     1      32.035  28.326  23.154  1.00  0.00     0.166 HD
HETATM   32  N7  UNL     1      29.582  28.831  21.240  1.00  0.00    -0.354 N 
ATOM     33  H7  UNL     1      28.657  29.184  20.996  1.00  0.00     0.166 HD
ENDBRANCH  26  27
ENDBRANCH  21  26
BRANCH  20  34
HETATM   34  O5  UNL     1      30.288  24.991  19.206  1.00  0.00    -0.347 OA
ATOM     35  H5  UNL     1      30.261  24.090  18.907  1.00  0.00     0.219 HD
ENDBRANCH  20  34
BRANCH   1  36
HETATM   36  C4  UNL     1      26.951  30.101  16.218  1.00  0.00     0.038 C 
BRANCH  36  37
HETATM   37  C2  UNL     1      28.019  30.949  15.648  1.00  0.00    -0.020 C 
HETATM   38  C1  UNL     1      29.119  29.996  15.147  1.00  0.00     0.009 C 
HETATM   39  C3  UNL     1      28.684  31.674  16.833  1.00  0.00     0.009 C 
ENDBRANCH  36  37
ENDBRANCH   1  36
BRANCH  14  40
HETATM   40  C20 UNL     1      27.365  22.292  19.289  1.00  0.00     0.067 C 
BRANCH  40  41
HETATM   41  C21 UNL     1      26.857  21.141  19.993  1.00  0.00    -0.017 C 
HETATM   42  C22 UNL     1      26.708  19.825  19.331  1.00  0.00     0.010 C 
HETATM   43  C23 UNL     1      27.859  20.880  21.146  1.00  0.00     0.010 C 
ENDBRANCH  40  41
ENDBRANCH  14  40
BRANCH  16  44
HETATM   44  C25 UNL     1      26.899  25.020  23.031  1.00  0.00     0.072 C 
HETATM   45  C26 UNL     1      25.783  25.876  23.599  1.00  0.00     0.019 C 
HETATM   46  C27 UNL     1      27.205  24.038  24.166  1.00  0.00     0.019 C 
ENDBRANCH  16  44
BRANCH  13  47
HETATM   47  O3  UNL     1      25.241  22.864  17.892  1.00  0.00    -0.345 OA
ATOM     48  H3  UNL     1      25.243  21.938  18.102  1.00  0.00     0.219 HD
ENDBRANCH  13  47
BRANCH   4  49
HETATM   49  O1  UNL     1      26.302  25.524  16.126  1.00  0.00    -0.348 OA
ATOM     50  H1  UNL     1      27.170  25.542  15.742  1.00  0.00     0.219 HD
ENDBRANCH   4  49
BRANCH   5  51
HETATM   51  C8  UNL     1      23.309  27.197  15.813  1.00  0.00     0.037 C 
BRANCH  51  52
HETATM   52  C9  UNL     1      21.984  26.544  15.753  1.00  0.00    -0.020 C 
HETATM   53  C10 UNL     1      21.434  26.485  14.359  1.00  0.00     0.009 C 
HETATM   54  C11 UNL     1      21.016  27.329  16.637  1.00  0.00     0.009 C 
ENDBRANCH  51  52
ENDBRANCH   5  51
BRANCH  10  55
HETATM   55  C14 UNL     1      22.432  25.320  20.699  1.00  0.00     0.038 C 
BRANCH  55  56
HETATM   56  C15 UNL     1      20.974  25.262  20.428  1.00  0.00    -0.020 C 
HETATM   57  C16 UNL     1      20.219  24.412  21.422  1.00  0.00     0.009 C 
HETATM   58  C17 UNL     1      20.843  24.560  19.054  1.00  0.00     0.009 C 
ENDBRANCH  55  56
ENDBRANCH  10  55
TORSDOF 14
ENDMDL
MODEL 5
REMARK VINA RESULT: -5.618541855      2.076      7.989
REMARK  14 active torsions:
REMARK  status: ('A' for Active; 'I' for Inactive)
REMARK    1  A    between atoms: C2_2  and  C4_4 
REMARK    2  A    between atoms: C4_4  and  C5_5 
REMARK    3  A    between atoms: C6_8  and  O1_9 
REMARK    4  A    between atoms: C7_11  and  C8_12 
REMARK    5  A    between atoms: C8_12  and  C9_13 
REMARK    6  A    between atoms: C13_20  and  C14_21 
REMARK    7  A    between atoms: C14_21  and  C15_22 
REMARK    8  A    between atoms: C18_27  and  O3_28 
REMARK    9  A    between atoms: C19_30  and  C20_31 
REMARK   10  A    between atoms: C20_31  and  C21_32 
REMARK       I    between atoms: N4_35  and  C24_36 
REMARK   11  A    between atoms: C24_36  and  C25_38 
REMARK   12  A    between atoms: C28_43  and  O5_44 
REMARK   13  A    between atoms: C29_46  and  C30_47 
REMARK   14  A    between atoms: C30_47  and  C31_48 
ROOT
HETATM    1  C5  UNL     1      27.096  28.699  16.639  1.00  0.00     0.175 C 
HETATM    2  N1  UNL     1      26.400  27.639  15.941  1.00  0.00    -0.359 N 
ATOM      3  H1  UNL     1      26.541  27.677  14.931  1.00  0.00     0.162 HD
HETATM    4  C6  UNL     1      25.596  26.596  16.317  1.00  0.00     0.135 C 
HETATM    5  C7  UNL     1      24.225  26.516  16.823  1.00  0.00     0.159 C 
HETATM    6  N2  UNL     1      24.065  27.124  18.160  1.00  0.00    -0.347 N 
ATOM      7  H2  UNL     1      24.017  28.142  18.205  1.00  0.00     0.163 HD
HETATM    8  C12 UNL     1      23.975  26.429  19.372  1.00  0.00     0.241 C 
HETATM    9  O2  UNL     1      24.512  26.972  20.403  1.00  0.00    -0.271 OA
HETATM   10  C13 UNL     1      23.342  25.146  19.647  1.00  0.00     0.176 C 
HETATM   11  N3  UNL     1      24.129  23.969  19.594  1.00  0.00    -0.356 N 
ATOM     12  H3  UNL     1      23.604  23.175  19.961  1.00  0.00     0.162 HD
HETATM   13  C18 UNL     1      25.380  23.573  19.200  1.00  0.00     0.162 C 
HETATM   14  C19 UNL     1      26.766  23.684  19.525  1.00  0.00     0.088 C 
HETATM   15  N4  UNL     1      27.281  24.453  20.633  1.00  0.00    -0.222 N 
HETATM   16  C24 UNL     1      26.602  24.419  21.918  1.00  0.00     0.246 C 
HETATM   17  O4  UNL     1      25.591  23.745  22.119  1.00  0.00    -0.271 OA
HETATM   18  N5  UNL     1      28.458  25.208  20.552  1.00  0.00    -0.272 N 
ATOM     19  H5  UNL     1      28.863  25.415  21.465  1.00  0.00     0.189 HD
HETATM   20  C28 UNL     1      29.197  25.741  19.491  1.00  0.00     0.154 C 
HETATM   21  C29 UNL     1      28.979  26.918  18.620  1.00  0.00     0.166 C 
HETATM   22  N8  UNL     1      27.710  27.584  18.875  1.00  0.00    -0.347 N 
ATOM     23  H8  UNL     1      27.204  27.291  19.710  1.00  0.00     0.163 HD
HETATM   24  C34 UNL     1      27.112  28.576  18.106  1.00  0.00     0.241 C 
HETATM   25  O6  UNL     1      26.498  29.493  18.764  1.00  0.00    -0.271 OA
ENDROOT
BRANCH  21  26
HETATM   26  C30 UNL     1      30.019  28.014  18.840  1.00  0.00     0.092 C 
BRANCH  26  27
HETATM   27  C31 UNL     1      30.788  28.448  17.711  1.00  0.00     0.028 A 
HETATM   28  C32 UNL     1      31.816  29.370  17.679  1.00  0.00     0.114 A 
HETATM   29  N6  UNL     1      32.284  29.458  16.404  1.00  0.00    -0.360 N 
HETATM   30  C33 UNL     1      31.563  28.605  15.652  1.00  0.00     0.180 A 
ATOM     31  H6  UNL     1      33.042  30.058  16.078  1.00  0.00     0.166 HD
HETATM   32  N7  UNL     1      30.674  28.009  16.444  1.00  0.00    -0.354 N 
ATOM     33  H7  UNL     1      29.997  27.313  16.132  1.00  0.00     0.166 HD
ENDBRANCH  26  27
ENDBRANCH  21  26
BRANCH  20  34
HETATM   34  O5  UNL     1      30.310  25.168  19.120  1.00  0.00    -0.347 OA
ATOM     35  H5  UNL     1      30.642  24.420  19.603  1.00  0.00     0.219 HD
ENDBRANCH  20  34
BRANCH   1  36
HETATM   36  C4  UNL     1      26.634  30.022  16.102  1.00  0.00     0.038 C 
BRANCH  36  37
HETATM   37  C2  UNL     1      27.612  31.130  16.069  1.00  0.00    -0.020 C 
HETATM   38  C1  UNL     1      26.891  32.337  15.439  1.00  0.00     0.009 C 
HETATM   39  C3  UNL     1      28.669  30.752  15.012  1.00  0.00     0.009 C 
ENDBRANCH  36  37
ENDBRANCH   1  36
BRANCH  14  40
HETATM   40  C20 UNL     1      27.510  22.357  19.428  1.00  0.00     0.067 C 
BRANCH  40  41
HETATM   41  C21 UNL     1      27.055  21.200  20.158  1.00  0.00    -0.017 C 
HETATM   42  C22 UNL     1      26.975  19.863  19.529  1.00  0.00     0.010 C 
HETATM   43  C23 UNL     1      28.061  21.018  21.323  1.00  0.00     0.010 C 
ENDBRANCH  40  41
ENDBRANCH  14  40
BRANCH  16  44
HETATM   44  C25 UNL     1      27.090  25.202  23.087  1.00  0.00     0.072 C 
HETATM   45  C26 UNL     1      25.937  25.930  23.752  1.00  0.00     0.019 C 
HETATM   46  C27 UNL     1      27.607  24.274  24.192  1.00  0.00     0.019 C 
ENDBRANCH  16  44
BRANCH  13  47
HETATM   47  O3  UNL     1      25.307  22.789  18.107  1.00  0.00    -0.345 OA
ATOM     48  H3  UNL     1      26.063  22.923  17.548  1.00  0.00     0.219 HD
ENDBRANCH  13  47
BRANCH   4  49
HETATM   49  O1  UNL     1      26.177  25.422  16.202  1.00  0.00    -0.348 OA
ATOM     50  H1  UNL     1      26.080  25.036  15.339  1.00  0.00     0.219 HD
ENDBRANCH   4  49
BRANCH   5  51
HETATM   51  C8  UNL     1      23.105  26.959  15.963  1.00  0.00     0.037 C 
BRANCH  51  52
HETATM   52  C9  UNL     1      21.781  27.272  16.543  1.00  0.00    -0.020 C 
HETATM   53  C10 UNL     1      21.110  26.065  17.128  1.00  0.00     0.009 C 
HETATM   54  C11 UNL     1      20.894  27.851  15.442  1.00  0.00     0.009 C 
ENDBRANCH  51  52
ENDBRANCH   5  51
BRANCH  10  55
HETATM   55  C14 UNL     1      22.518  25.231  20.946  1.00  0.00     0.038 C 
BRANCH  55  56
HETATM   56  C15 UNL     1      21.172  25.830  20.769  1.00  0.00    -0.020 C 
HETATM   57  C16 UNL     1      21.037  27.188  21.417  1.00  0.00     0.009 C 
HETATM   58  C17 UNL     1      20.203  24.883  21.519  1.00  0.00     0.009 C 
ENDBRANCH  55  56
ENDBRANCH  10  55
TORSDOF 14
ENDMDL
