MODEL 1
REMARK VINA RESULT: -6.726761029      0.000      0.000
REMARK  18 active torsions:
REMARK  status: ('A' for Active; 'I' for Inactive)
REMARK    1  A    between atoms: C2_2  and  C3_3 
REMARK    2  A    between atoms: C3_3  and  C4_4 
REMARK    3  A    between atoms: C4_4  and  C5_5 
REMARK    4  A    between atoms: C5_5  and  C6_6 
REMARK    5  A    between atoms: C6_6  and  C7_7 
REMARK    6  A    between atoms: C8_10  and  O1_11 
REMARK    7  A    between atoms: C9_13  and  C10_14 
REMARK    8  A    between atoms: C10_14  and  C11_15 
REMARK    9  A    between atoms: C15_22  and  C16_23 
REMARK   10  A    between atoms: C19_28  and  O3_29 
REMARK   11  A    between atoms: C20_31  and  C21_32 
REMARK   12  A    between atoms: C21_32  and  C22_33 
REMARK   13  A    between atoms: C25_38  and  O4_39 
REMARK   14  A    between atoms: C30_46  and  O5_47 
REMARK   15  A    between atoms: N6_49  and  C31_50 
REMARK   16  A    between atoms: C31_50  and  C32_51 
REMARK   17  A    between atoms: C32_51  and  C34_53 
REMARK   18  A    between atoms: C34_53  and  N7_54 
ROOT
HETATM    1  C7  UNL     1      14.456  20.902  18.242  1.00  0.00     0.176 C 
HETATM    2  N1  UNL     1      13.159  20.272  18.214  1.00  0.00    -0.359 N 
ATOM      3  H1  UNL     1      12.523  20.719  17.554  1.00  0.00     0.162 HD
HETATM    4  C8  UNL     1      12.572  19.203  18.869  1.00  0.00     0.135 C 
HETATM    5  C9  UNL     1      12.693  17.734  18.794  1.00  0.00     0.159 C 
HETATM    6  N2  UNL     1      11.386  17.079  18.929  1.00  0.00    -0.347 N 
ATOM      7  H2  UNL     1      10.707  17.563  19.517  1.00  0.00     0.163 HD
HETATM    8  C14 UNL     1      10.953  15.892  18.364  1.00  0.00     0.241 C 
HETATM    9  O2  UNL     1      10.503  14.991  19.120  1.00  0.00    -0.271 OA
HETATM   10  C15 UNL     1      10.966  15.554  16.887  1.00  0.00     0.179 C 
HETATM   11  N3  UNL     1      10.249  16.545  16.134  1.00  0.00    -0.359 N 
ATOM     12  H3  UNL     1       9.260  16.332  16.003  1.00  0.00     0.162 HD
HETATM   13  C19 UNL     1      10.655  17.746  15.547  1.00  0.00     0.135 C 
HETATM   14  C20 UNL     1      11.511  17.985  14.353  1.00  0.00     0.158 C 
HETATM   15  N4  UNL     1      12.612  18.861  14.681  1.00  0.00    -0.361 N 
ATOM     16  H4  UNL     1      13.103  18.613  15.540  1.00  0.00     0.162 HD
HETATM   17  C25 UNL     1      13.120  19.979  14.036  1.00  0.00     0.135 C 
HETATM   18  C26 UNL     1      12.582  21.311  13.801  1.00  0.00     0.162 C 
HETATM   19  C27 UNL     1      11.346  21.370  12.933  1.00  0.00     0.035 C 
HETATM   20  C28 UNL     1      10.248  21.663  13.882  1.00  0.00     0.022 C 
HETATM   21  C29 UNL     1      10.885  22.200  15.105  1.00  0.00     0.127 C 
HETATM   22  N5  UNL     1      12.322  22.156  14.928  1.00  0.00    -0.335 N 
HETATM   23  C30 UNL     1      13.274  22.866  15.715  1.00  0.00     0.225 C 
HETATM   24  N6  UNL     1      14.578  22.502  16.139  1.00  0.00    -0.281 N 
HETATM   25  C35 UNL     1      14.929  21.364  16.928  1.00  0.00     0.249 C 
HETATM   26  O6  UNL     1      15.827  20.612  16.377  1.00  0.00    -0.271 OA
ENDROOT
BRANCH  24  27
HETATM   27  C31 UNL     1      15.695  23.370  15.676  1.00  0.00     0.141 C 
BRANCH  27  28
HETATM   28  C32 UNL     1      16.722  23.618  16.736  1.00  0.00     0.025 C 
HETATM   29  C33 UNL     1      18.116  23.698  16.197  1.00  0.00     0.013 C 
BRANCH  28  30
HETATM   30  C34 UNL     1      16.462  24.962  17.429  1.00  0.00     0.235 C 
BRANCH  30  31
HETATM   31  N7  UNL     1      15.349  24.825  18.344  1.00  0.00    -0.079 N 
ATOM     32  H73 UNL     1      15.020  23.863  18.409  1.00  0.00     0.274 HD
ATOM     33  H72 UNL     1      15.632  24.949  19.316  1.00  0.00     0.274 HD
ATOM     34  H71 UNL     1      14.606  25.469  18.074  1.00  0.00     0.274 HD
ENDBRANCH  30  31
ENDBRANCH  28  30
ENDBRANCH  27  28
ENDBRANCH  24  27
BRANCH  23  35
HETATM   35  O5  UNL     1      12.930  24.058  16.142  1.00  0.00    -0.332 OA
ATOM     36  H5  UNL     1      13.632  24.658  16.366  1.00  0.00     0.221 HD
ENDBRANCH  23  35
BRANCH   1  37
HETATM   37  C6  UNL     1      15.487  19.984  18.888  1.00  0.00     0.035 C 
BRANCH  37  38
HETATM   38  C5  UNL     1      16.050  20.479  20.157  1.00  0.00     0.002 C 
BRANCH  38  39
HETATM   39  C4  UNL     1      16.783  21.797  19.895  1.00  0.00     0.000 C 
BRANCH  39  40
HETATM   40  C3  UNL     1      18.138  21.595  19.269  1.00  0.00    -0.000 C 
BRANCH  40  41
HETATM   41  C2  UNL     1      19.093  22.607  19.905  1.00  0.00    -0.005 C 
HETATM   42  C1  UNL     1      18.294  23.808  20.360  1.00  0.00     0.005 C 
ENDBRANCH  40  41
ENDBRANCH  39  40
ENDBRANCH  38  39
ENDBRANCH  37  38
ENDBRANCH   1  37
BRANCH  17  43
HETATM   43  O4  UNL     1      14.326  19.794  13.543  1.00  0.00    -0.348 OA
ATOM     44  H4  UNL     1      14.908  20.532  13.683  1.00  0.00     0.219 HD
ENDBRANCH  17  43
BRANCH   4  45
HETATM   45  O1  UNL     1      11.676  19.517  19.791  1.00  0.00    -0.348 OA
ATOM     46  H1  UNL     1      11.218  18.785  20.185  1.00  0.00     0.219 HD
ENDBRANCH   4  45
BRANCH   5  47
HETATM   47  C10 UNL     1      13.626  17.088  19.748  1.00  0.00     0.037 C 
BRANCH  47  48
HETATM   48  C11 UNL     1      13.974  17.762  21.010  1.00  0.00    -0.020 C 
HETATM   49  C12 UNL     1      13.204  17.377  22.241  1.00  0.00     0.009 C 
HETATM   50  C13 UNL     1      15.437  17.366  21.316  1.00  0.00     0.009 C 
ENDBRANCH  47  48
ENDBRANCH   5  47
BRANCH  14  51
HETATM   51  C21 UNL     1      11.899  16.706  13.716  1.00  0.00     0.037 C 
BRANCH  51  52
HETATM   52  C22 UNL     1      12.379  16.750  12.304  1.00  0.00    -0.020 C 
HETATM   53  C23 UNL     1      13.871  16.400  12.305  1.00  0.00     0.009 C 
HETATM   54  C24 UNL     1      11.630  15.873  11.349  1.00  0.00     0.009 C 
ENDBRANCH  51  52
ENDBRANCH  14  51
BRANCH  13  55
HETATM   55  O3  UNL     1      10.215  18.836  16.134  1.00  0.00    -0.348 OA
ATOM     56  H3  UNL     1      10.289  19.632  15.620  1.00  0.00     0.219 HD
ENDBRANCH  13  55
BRANCH  10  57
HETATM   57  C16 UNL     1      10.234  14.202  16.754  1.00  0.00     0.009 C 
HETATM   58  C17 UNL     1      10.979  13.221  15.908  1.00  0.00     0.012 C 
HETATM   59  C18 UNL     1       8.843  14.389  16.171  1.00  0.00     0.012 C 
ENDBRANCH  10  57
TORSDOF 18
ENDMDL
MODEL 2
REMARK VINA RESULT: -6.467017913      0.932      1.482
REMARK  18 active torsions:
REMARK  status: ('A' for Active; 'I' for Inactive)
REMARK    1  A    between atoms: C2_2  and  C3_3 
REMARK    2  A    between atoms: C3_3  and  C4_4 
REMARK    3  A    between atoms: C4_4  and  C5_5 
REMARK    4  A    between atoms: C5_5  and  C6_6 
REMARK    5  A    between atoms: C6_6  and  C7_7 
REMARK    6  A    between atoms: C8_10  and  O1_11 
REMARK    7  A    between atoms: C9_13  and  C10_14 
REMARK    8  A    between atoms: C10_14  and  C11_15 
REMARK    9  A    between atoms: C15_22  and  C16_23 
REMARK   10  A    between atoms: C19_28  and  O3_29 
REMARK   11  A    between atoms: C20_31  and  C21_32 
REMARK   12  A    between atoms: C21_32  and  C22_33 
REMARK   13  A    between atoms: C25_38  and  O4_39 
REMARK   14  A    between atoms: C30_46  and  O5_47 
REMARK   15  A    between atoms: N6_49  and  C31_50 
REMARK   16  A    between atoms: C31_50  and  C32_51 
REMARK   17  A    between atoms: C32_51  and  C34_53 
REMARK   18  A    between atoms: C34_53  and  N7_54 
ROOT
HETATM    1  C7  UNL     1      14.353  20.822  18.226  1.00  0.00     0.176 C 
HETATM    2  N1  UNL     1      13.062  20.182  18.207  1.00  0.00    -0.359 N 
ATOM      3  H1  UNL     1      12.422  20.617  17.543  1.00  0.00     0.162 HD
HETATM    4  C8  UNL     1      12.484  19.116  18.875  1.00  0.00     0.135 C 
HETATM    5  C9  UNL     1      12.615  17.647  18.817  1.00  0.00     0.159 C 
HETATM    6  N2  UNL     1      11.314  16.984  18.961  1.00  0.00    -0.347 N 
ATOM      7  H2  UNL     1      10.632  17.469  19.544  1.00  0.00     0.163 HD
HETATM    8  C14 UNL     1      10.889  15.787  18.410  1.00  0.00     0.241 C 
HETATM    9  O2  UNL     1      10.447  14.891  19.177  1.00  0.00    -0.271 OA
HETATM   10  C15 UNL     1      10.903  15.432  16.937  1.00  0.00     0.179 C 
HETATM   11  N3  UNL     1      10.177  16.409  16.174  1.00  0.00    -0.359 N 
ATOM     12  H3  UNL     1       9.190  16.187  16.047  1.00  0.00     0.162 HD
HETATM   13  C19 UNL     1      10.573  17.606  15.573  1.00  0.00     0.135 C 
HETATM   14  C20 UNL     1      11.425  17.838  14.375  1.00  0.00     0.158 C 
HETATM   15  N4  UNL     1      12.520  18.726  14.692  1.00  0.00    -0.361 N 
ATOM     16  H4  UNL     1      13.014  18.492  15.553  1.00  0.00     0.162 HD
HETATM   17  C25 UNL     1      13.020  19.840  14.033  1.00  0.00     0.135 C 
HETATM   18  C26 UNL     1      12.470  21.166  13.783  1.00  0.00     0.162 C 
HETATM   19  C27 UNL     1      11.234  21.206  12.917  1.00  0.00     0.035 C 
HETATM   20  C28 UNL     1      10.134  21.501  13.864  1.00  0.00     0.022 C 
HETATM   21  C29 UNL     1      10.769  22.057  15.080  1.00  0.00     0.127 C 
HETATM   22  N5  UNL     1      12.206  22.022  14.901  1.00  0.00    -0.335 N 
HETATM   23  C30 UNL     1      13.153  22.747  15.679  1.00  0.00     0.225 C 
HETATM   24  N6  UNL     1      14.461  22.398  16.105  1.00  0.00    -0.281 N 
HETATM   25  C35 UNL     1      14.822  21.272  16.906  1.00  0.00     0.249 C 
HETATM   26  O6  UNL     1      15.725  20.521  16.363  1.00  0.00    -0.271 OA
ENDROOT
BRANCH  24  27
HETATM   27  C31 UNL     1      15.570  23.270  15.631  1.00  0.00     0.141 C 
BRANCH  27  28
HETATM   28  C32 UNL     1      15.528  23.524  14.157  1.00  0.00     0.025 C 
HETATM   29  C33 UNL     1      16.561  24.506  13.699  1.00  0.00     0.013 C 
BRANCH  28  30
HETATM   30  C34 UNL     1      15.808  22.229  13.382  1.00  0.00     0.235 C 
BRANCH  30  31
HETATM   31  N7  UNL     1      15.245  22.331  12.053  1.00  0.00    -0.079 N 
ATOM     32  H73 UNL     1      14.226  22.383  12.069  1.00  0.00     0.274 HD
ATOM     33  H72 UNL     1      15.430  23.237  11.624  1.00  0.00     0.274 HD
ATOM     34  H71 UNL     1      15.582  21.557  11.481  1.00  0.00     0.274 HD
ENDBRANCH  30  31
ENDBRANCH  28  30
ENDBRANCH  27  28
ENDBRANCH  24  27
BRANCH  23  35
HETATM   35  O5  UNL     1      12.801  23.942  16.093  1.00  0.00    -0.332 OA
ATOM     36  H5  UNL     1      13.361  24.669  15.847  1.00  0.00     0.221 HD
ENDBRANCH  23  35
BRANCH   1  37
HETATM   37  C6  UNL     1      15.392  19.919  18.881  1.00  0.00     0.035 C 
BRANCH  37  38
HETATM   38  C5  UNL     1      16.094  20.514  20.032  1.00  0.00     0.002 C 
BRANCH  38  39
HETATM   39  C4  UNL     1      17.288  21.325  19.522  1.00  0.00     0.000 C 
BRANCH  39  40
HETATM   40  C3  UNL     1      17.140  22.802  19.779  1.00  0.00    -0.000 C 
BRANCH  40  41
HETATM   41  C2  UNL     1      17.684  23.538  18.552  1.00  0.00    -0.005 C 
HETATM   42  C1  UNL     1      18.387  22.539  17.660  1.00  0.00     0.005 C 
ENDBRANCH  40  41
ENDBRANCH  39  40
ENDBRANCH  38  39
ENDBRANCH  37  38
ENDBRANCH   1  37
BRANCH  17  43
HETATM   43  O4  UNL     1      14.226  19.659  13.541  1.00  0.00    -0.348 OA
ATOM     44  H4  UNL     1      14.250  19.041  12.820  1.00  0.00     0.219 HD
ENDBRANCH  17  43
BRANCH   4  45
HETATM   45  O1  UNL     1      11.587  19.433  19.795  1.00  0.00    -0.348 OA
ATOM     46  H1  UNL     1      10.696  19.158  19.613  1.00  0.00     0.219 HD
ENDBRANCH   4  45
BRANCH   5  47
HETATM   47  C10 UNL     1      13.555  17.019  19.777  1.00  0.00     0.037 C 
BRANCH  47  48
HETATM   48  C11 UNL     1      13.936  17.731  21.009  1.00  0.00    -0.020 C 
HETATM   49  C12 UNL     1      13.205  17.377  22.271  1.00  0.00     0.009 C 
HETATM   50  C13 UNL     1      15.409  17.351  21.282  1.00  0.00     0.009 C 
ENDBRANCH  47  48
ENDBRANCH   5  47
BRANCH  14  51
HETATM   51  C21 UNL     1      11.823  16.556  13.752  1.00  0.00     0.037 C 
BRANCH  51  52
HETATM   52  C22 UNL     1      12.259  16.580  12.325  1.00  0.00    -0.020 C 
HETATM   53  C23 UNL     1      13.755  16.253  12.287  1.00  0.00     0.009 C 
HETATM   54  C24 UNL     1      11.496  15.675  11.409  1.00  0.00     0.009 C 
ENDBRANCH  51  52
ENDBRANCH  14  51
BRANCH  13  55
HETATM   55  O3  UNL     1      10.126  18.699  16.147  1.00  0.00    -0.348 OA
ATOM     56  H3  UNL     1      10.790  19.337  16.383  1.00  0.00     0.219 HD
ENDBRANCH  13  55
BRANCH  10  57
HETATM   57  C16 UNL     1      10.181  14.073  16.820  1.00  0.00     0.009 C 
HETATM   58  C17 UNL     1      10.926  13.093  15.974  1.00  0.00     0.012 C 
HETATM   59  C18 UNL     1       8.782  14.245  16.250  1.00  0.00     0.012 C 
ENDBRANCH  10  57
TORSDOF 18
ENDMDL
MODEL 3
REMARK VINA RESULT: -6.018532289      2.245      7.739
REMARK  18 active torsions:
REMARK  status: ('A' for Active; 'I' for Inactive)
REMARK    1  A    between atoms: C2_2  and  C3_3 
REMARK    2  A    between atoms: C3_3  and  C4_4 
REMARK    3  A    between atoms: C4_4  and  C5_5 
REMARK    4  A    between atoms: C5_5  and  C6_6 
REMARK    5  A    between atoms: C6_6  and  C7_7 
REMARK    6  A    between atoms: C8_10  and  O1_11 
REMARK    7  A    between atoms: C9_13  and  C10_14 
REMARK    8  A    between atoms: C10_14  and  C11_15 
REMARK    9  A    between atoms: C15_22  and  C16_23 
REMARK   10  A    between atoms: C19_28  and  O3_29 
REMARK   11  A    between atoms: C20_31  and  C21_32 
REMARK   12  A    between atoms: C21_32  and  C22_33 
REMARK   13  A    between atoms: C25_38  and  O4_39 
REMARK   14  A    between atoms: C30_46  and  O5_47 
REMARK   15  A    between atoms: N6_49  and  C31_50 
REMARK   16  A    between atoms: C31_50  and  C32_51 
REMARK   17  A    between atoms: C32_51  and  C34_53 
REMARK   18  A    between atoms: C34_53  and  N7_54 
ROOT
HETATM    1  C7  UNL     1      12.410  19.261  17.481  1.00  0.00     0.176 C 
HETATM    2  N1  UNL     1      13.840  19.358  17.331  1.00  0.00    -0.359 N 
ATOM      3  H1  UNL     1      14.127  19.394  16.353  1.00  0.00     0.162 HD
HETATM    4  C8  UNL     1      14.917  19.414  18.199  1.00  0.00     0.135 C 
HETATM    5  C9  UNL     1      15.482  20.435  19.103  1.00  0.00     0.159 C 
HETATM    6  N2  UNL     1      16.950  20.427  19.074  1.00  0.00    -0.347 N 
ATOM      7  H2  UNL     1      17.384  19.519  18.902  1.00  0.00     0.163 HD
HETATM    8  C14 UNL     1      17.822  21.486  19.250  1.00  0.00     0.241 C 
HETATM    9  O2  UNL     1      18.712  21.397  20.138  1.00  0.00    -0.271 OA
HETATM   10  C15 UNL     1      17.819  22.781  18.463  1.00  0.00     0.179 C 
HETATM   11  N3  UNL     1      17.917  22.518  17.055  1.00  0.00    -0.359 N 
ATOM     12  H3  UNL     1      18.874  22.501  16.701  1.00  0.00     0.162 HD
HETATM   13  C19 UNL     1      16.945  22.282  16.079  1.00  0.00     0.135 C 
HETATM   14  C20 UNL     1      15.961  23.214  15.466  1.00  0.00     0.158 C 
HETATM   15  N4  UNL     1      14.619  22.693  15.588  1.00  0.00    -0.361 N 
ATOM     16  H4  UNL     1      14.387  22.349  16.520  1.00  0.00     0.162 HD
HETATM   17  C25 UNL     1      13.590  22.579  14.666  1.00  0.00     0.135 C 
HETATM   18  C26 UNL     1      13.425  21.766  13.469  1.00  0.00     0.162 C 
HETATM   19  C27 UNL     1      14.399  22.050  12.349  1.00  0.00     0.035 C 
HETATM   20  C28 UNL     1      15.327  20.896  12.371  1.00  0.00     0.022 C 
HETATM   21  C29 UNL     1      14.640  19.823  13.124  1.00  0.00     0.127 C 
HETATM   22  N5  UNL     1      13.377  20.341  13.607  1.00  0.00    -0.335 N 
HETATM   23  C30 UNL     1      12.290  19.554  14.085  1.00  0.00     0.225 C 
HETATM   24  N6  UNL     1      11.351  19.804  15.118  1.00  0.00    -0.281 N 
HETATM   25  C35 UNL     1      11.647  20.043  16.495  1.00  0.00     0.249 C 
HETATM   26  O6  UNL     1      11.147  21.148  16.946  1.00  0.00    -0.271 OA
ENDROOT
BRANCH  24  27
HETATM   27  C31 UNL     1       9.920  19.868  14.717  1.00  0.00     0.141 C 
BRANCH  27  28
HETATM   28  C32 UNL     1       9.404  18.571  14.175  1.00  0.00     0.025 C 
HETATM   29  C33 UNL     1       9.354  17.483  15.201  1.00  0.00     0.013 C 
BRANCH  28  30
HETATM   30  C34 UNL     1       7.965  18.738  13.669  1.00  0.00     0.235 C 
BRANCH  30  31
HETATM   31  N7  UNL     1       7.040  18.472  14.750  1.00  0.00    -0.079 N 
ATOM     32  H73 UNL     1       6.661  17.527  14.709  1.00  0.00     0.274 HD
ATOM     33  H72 UNL     1       7.511  18.402  15.652  1.00  0.00     0.274 HD
ATOM     34  H71 UNL     1       6.307  19.181  14.752  1.00  0.00     0.274 HD
ENDBRANCH  30  31
ENDBRANCH  28  30
ENDBRANCH  27  28
ENDBRANCH  24  27
BRANCH  23  35
HETATM   35  O5  UNL     1      12.084  18.396  13.500  1.00  0.00    -0.332 OA
ATOM     36  H5  UNL     1      11.237  18.260  13.094  1.00  0.00     0.221 HD
ENDBRANCH  23  35
BRANCH   1  37
HETATM   37  C6  UNL     1      11.990  19.634  18.898  1.00  0.00     0.035 C 
BRANCH  37  38
HETATM   38  C5  UNL     1      11.471  18.516  19.706  1.00  0.00     0.002 C 
BRANCH  38  39
HETATM   39  C4  UNL     1      11.767  17.200  18.982  1.00  0.00     0.000 C 
BRANCH  39  40
HETATM   40  C3  UNL     1      10.515  16.487  18.538  1.00  0.00    -0.000 C 
BRANCH  40  41
HETATM   41  C2  UNL     1      10.947  15.286  17.693  1.00  0.00    -0.005 C 
HETATM   42  C1  UNL     1       9.997  14.140  17.958  1.00  0.00     0.005 C 
ENDBRANCH  40  41
ENDBRANCH  39  40
ENDBRANCH  38  39
ENDBRANCH  37  38
ENDBRANCH   1  37
BRANCH  17  43
HETATM   43  O4  UNL     1      12.563  23.358  14.929  1.00  0.00    -0.348 OA
ATOM     44  H4  UNL     1      12.072  23.088  15.696  1.00  0.00     0.219 HD
ENDBRANCH  17  43
BRANCH   4  45
HETATM   45  O1  UNL     1      15.655  18.318  18.271  1.00  0.00    -0.348 OA
ATOM     46  H1  UNL     1      15.176  17.508  18.399  1.00  0.00     0.219 HD
ENDBRANCH   4  45
BRANCH   5  47
HETATM   47  C10 UNL     1      15.054  20.386  20.521  1.00  0.00     0.037 C 
BRANCH  47  48
HETATM   48  C11 UNL     1      14.632  19.109  21.120  1.00  0.00    -0.020 C 
HETATM   49  C12 UNL     1      15.705  18.143  21.530  1.00  0.00     0.009 C 
HETATM   50  C13 UNL     1      13.903  19.474  22.434  1.00  0.00     0.009 C 
ENDBRANCH  47  48
ENDBRANCH   5  47
BRANCH  14  51
HETATM   51  C21 UNL     1      16.145  24.591  15.978  1.00  0.00     0.037 C 
BRANCH  51  52
HETATM   52  C22 UNL     1      16.862  25.568  15.107  1.00  0.00    -0.020 C 
HETATM   53  C23 UNL     1      18.237  25.830  15.730  1.00  0.00     0.009 C 
HETATM   54  C24 UNL     1      16.999  25.164  13.673  1.00  0.00     0.009 C 
ENDBRANCH  51  52
ENDBRANCH  14  51
BRANCH  13  55
HETATM   55  O3  UNL     1      16.889  21.050  15.628  1.00  0.00    -0.348 OA
ATOM     56  H3  UNL     1      16.051  20.788  15.264  1.00  0.00     0.219 HD
ENDBRANCH  13  55
BRANCH  10  57
HETATM   57  C16 UNL     1      19.075  23.556  18.913  1.00  0.00     0.009 C 
HETATM   58  C17 UNL     1      18.781  24.574  19.966  1.00  0.00     0.012 C 
HETATM   59  C18 UNL     1      19.739  24.251  17.736  1.00  0.00     0.012 C 
ENDBRANCH  10  57
TORSDOF 18
ENDMDL
MODEL 4
REMARK VINA RESULT: -5.943495129      2.376      6.775
REMARK  18 active torsions:
REMARK  status: ('A' for Active; 'I' for Inactive)
REMARK    1  A    between atoms: C2_2  and  C3_3 
REMARK    2  A    between atoms: C3_3  and  C4_4 
REMARK    3  A    between atoms: C4_4  and  C5_5 
REMARK    4  A    between atoms: C5_5  and  C6_6 
REMARK    5  A    between atoms: C6_6  and  C7_7 
REMARK    6  A    between atoms: C8_10  and  O1_11 
REMARK    7  A    between atoms: C9_13  and  C10_14 
REMARK    8  A    between atoms: C10_14  and  C11_15 
REMARK    9  A    between atoms: C15_22  and  C16_23 
REMARK   10  A    between atoms: C19_28  and  O3_29 
REMARK   11  A    between atoms: C20_31  and  C21_32 
REMARK   12  A    between atoms: C21_32  and  C22_33 
REMARK   13  A    between atoms: C25_38  and  O4_39 
REMARK   14  A    between atoms: C30_46  and  O5_47 
REMARK   15  A    between atoms: N6_49  and  C31_50 
REMARK   16  A    between atoms: C31_50  and  C32_51 
REMARK   17  A    between atoms: C32_51  and  C34_53 
REMARK   18  A    between atoms: C34_53  and  N7_54 
ROOT
HETATM    1  C7  UNL     1      12.595  19.835  12.779  1.00  0.00     0.176 C 
HETATM    2  N1  UNL     1      12.065  20.128  14.087  1.00  0.00    -0.359 N 
ATOM      3  H1  UNL     1      11.083  19.867  14.177  1.00  0.00     0.162 HD
HETATM    4  C8  UNL     1      12.572  20.679  15.251  1.00  0.00     0.135 C 
HETATM    5  C9  UNL     1      13.488  20.223  16.315  1.00  0.00     0.159 C 
HETATM    6  N2  UNL     1      13.035  20.661  17.640  1.00  0.00    -0.347 N 
ATOM      7  H2  UNL     1      12.535  21.551  17.666  1.00  0.00     0.163 HD
HETATM    8  C14 UNL     1      13.196  20.028  18.860  1.00  0.00     0.241 C 
HETATM    9  O2  UNL     1      13.741  20.660  19.803  1.00  0.00    -0.271 OA
HETATM   10  C15 UNL     1      12.773  18.611  19.189  1.00  0.00     0.179 C 
HETATM   11  N3  UNL     1      11.375  18.423  18.914  1.00  0.00    -0.359 N 
ATOM     12  H3  UNL     1      10.766  18.611  19.711  1.00  0.00     0.162 HD
HETATM   13  C19 UNL     1      10.696  18.030  17.759  1.00  0.00     0.135 C 
HETATM   14  C20 UNL     1      10.631  16.700  17.094  1.00  0.00     0.158 C 
HETATM   15  N4  UNL     1      11.010  16.805  15.704  1.00  0.00    -0.361 N 
ATOM     16  H4  UNL     1      11.860  17.345  15.541  1.00  0.00     0.162 HD
HETATM   17  C25 UNL     1      10.425  16.302  14.551  1.00  0.00     0.135 C 
HETATM   18  C26 UNL     1       9.170  16.598  13.873  1.00  0.00     0.162 C 
HETATM   19  C27 UNL     1       7.918  16.273  14.653  1.00  0.00     0.035 C 
HETATM   20  C28 UNL     1       7.397  17.595  15.072  1.00  0.00     0.022 C 
HETATM   21  C29 UNL     1       8.041  18.596  14.192  1.00  0.00     0.127 C 
HETATM   22  N5  UNL     1       8.976  17.908  13.327  1.00  0.00    -0.335 N 
HETATM   23  C30 UNL     1       9.548  18.442  12.136  1.00  0.00     0.225 C 
HETATM   24  N6  UNL     1      10.837  18.269  11.572  1.00  0.00    -0.281 N 
HETATM   25  C35 UNL     1      12.086  18.586  12.189  1.00  0.00     0.249 C 
HETATM   26  O6  UNL     1      12.909  17.589  12.231  1.00  0.00    -0.271 OA
ENDROOT
BRANCH  24  27
HETATM   27  C31 UNL     1      10.894  17.653  10.218  1.00  0.00     0.141 C 
BRANCH  27  28
HETATM   28  C32 UNL     1      10.335  16.265  10.181  1.00  0.00     0.025 C 
HETATM   29  C33 UNL     1       9.346  16.059   9.077  1.00  0.00     0.013 C 
BRANCH  28  30
HETATM   30  C34 UNL     1      11.455  15.244   9.936  1.00  0.00     0.235 C 
BRANCH  30  31
HETATM   31  N7  UNL     1      12.094  14.920  11.194  1.00  0.00    -0.079 N 
ATOM     32  H73 UNL     1      11.692  15.438  11.975  1.00  0.00     0.274 HD
ATOM     33  H72 UNL     1      11.866  13.978  11.511  1.00  0.00     0.274 HD
ATOM     34  H71 UNL     1      13.100  15.067  11.111  1.00  0.00     0.274 HD
ENDBRANCH  30  31
ENDBRANCH  28  30
ENDBRANCH  27  28
ENDBRANCH  24  27
BRANCH  23  35
HETATM   35  O5  UNL     1       8.792  19.232  11.410  1.00  0.00    -0.332 OA
ATOM     36  H5  UNL     1       7.852  19.109  11.471  1.00  0.00     0.221 HD
ENDBRANCH  23  35
BRANCH   1  37
HETATM   37  C6  UNL     1      14.119  19.830  12.803  1.00  0.00     0.035 C 
BRANCH  37  38
HETATM   38  C5  UNL     1      14.754  20.975  12.128  1.00  0.00     0.002 C 
BRANCH  38  39
HETATM   39  C4  UNL     1      15.365  21.899  13.185  1.00  0.00     0.000 C 
BRANCH  39  40
HETATM   40  C3  UNL     1      15.779  23.234  12.621  1.00  0.00    -0.000 C 
BRANCH  40  41
HETATM   41  C2  UNL     1      16.505  23.997  13.732  1.00  0.00    -0.005 C 
HETATM   42  C1  UNL     1      17.277  25.139  13.112  1.00  0.00     0.005 C 
ENDBRANCH  40  41
ENDBRANCH  39  40
ENDBRANCH  38  39
ENDBRANCH  37  38
ENDBRANCH   1  37
BRANCH  17  43
HETATM   43  O4  UNL     1      11.151  15.380  13.956  1.00  0.00    -0.348 OA
ATOM     44  H4  UNL     1      10.703  14.547  13.868  1.00  0.00     0.219 HD
ENDBRANCH  17  43
BRANCH   4  45
HETATM   45  O1  UNL     1      12.167  21.909  15.528  1.00  0.00    -0.348 OA
ATOM     46  H1  UNL     1      11.269  21.988  15.828  1.00  0.00     0.219 HD
ENDBRANCH   4  45
BRANCH   5  47
HETATM   47  C10 UNL     1      14.916  20.595  16.175  1.00  0.00     0.037 C 
BRANCH  47  48
HETATM   48  C11 UNL     1      15.592  21.341  17.251  1.00  0.00    -0.020 C 
HETATM   49  C12 UNL     1      17.060  21.098  17.451  1.00  0.00     0.009 C 
HETATM   50  C13 UNL     1      15.485  22.835  16.865  1.00  0.00     0.009 C 
ENDBRANCH  47  48
ENDBRANCH   5  47
BRANCH  14  51
HETATM   51  C21 UNL     1      11.378  15.683  17.869  1.00  0.00     0.037 C 
BRANCH  51  52
HETATM   52  C22 UNL     1      10.737  14.351  18.070  1.00  0.00    -0.020 C 
HETATM   53  C23 UNL     1       9.308  14.588  18.566  1.00  0.00     0.009 C 
HETATM   54  C24 UNL     1      10.740  13.455  16.871  1.00  0.00     0.009 C 
ENDBRANCH  51  52
ENDBRANCH  14  51
BRANCH  13  55
HETATM   55  O3  UNL     1      10.002  18.974  17.165  1.00  0.00    -0.348 OA
ATOM     56  H3  UNL     1      10.474  19.782  16.999  1.00  0.00     0.219 HD
ENDBRANCH  13  55
BRANCH  10  57
HETATM   57  C16 UNL     1      13.010  18.436  20.704  1.00  0.00     0.009 C 
HETATM   58  C17 UNL     1      14.457  18.298  21.051  1.00  0.00     0.012 C 
HETATM   59  C18 UNL     1      12.263  17.224  21.237  1.00  0.00     0.012 C 
ENDBRANCH  10  57
TORSDOF 18
ENDMDL
MODEL 5
REMARK VINA RESULT: -5.806613452     11.143     16.078
REMARK  18 active torsions:
REMARK  status: ('A' for Active; 'I' for Inactive)
REMARK    1  A    between atoms: C2_2  and  C3_3 
REMARK    2  A    between atoms: C3_3  and  C4_4 
REMARK    3  A    between atoms: C4_4  and  C5_5 
REMARK    4  A    between atoms: C5_5  and  C6_6 
REMARK    5  A    between atoms: C6_6  and  C7_7 
REMARK    6  A    between atoms: C8_10  and  O1_11 
REMARK    7  A    between atoms: C9_13  and  C10_14 
REMARK    8  A    between atoms: C10_14  and  C11_15 
REMARK    9  A    between atoms: C15_22  and  C16_23 
REMARK   10  A    between atoms: C19_28  and  O3_29 
REMARK   11  A    between atoms: C20_31  and  C21_32 
REMARK   12  A    between atoms: C21_32  and  C22_33 
REMARK   13  A    between atoms: C25_38  and  O4_39 
REMARK   14  A    between atoms: C30_46  and  O5_47 
REMARK   15  A    between atoms: N6_49  and  C31_50 
REMARK   16  A    between atoms: C31_50  and  C32_51 
REMARK   17  A    between atoms: C32_51  and  C34_53 
REMARK   18  A    between atoms: C34_53  and  N7_54 
ROOT
HETATM    1  C7  UNL     1      25.021  28.027  16.765  1.00  0.00     0.176 C 
HETATM    2  N1  UNL     1      25.568  28.202  18.087  1.00  0.00    -0.359 N 
ATOM      3  H1  UNL     1      24.880  28.022  18.819  1.00  0.00     0.162 HD
HETATM    4  C8  UNL     1      26.804  28.555  18.601  1.00  0.00     0.135 C 
HETATM    5  C9  UNL     1      28.114  27.888  18.731  1.00  0.00     0.159 C 
HETATM    6  N2  UNL     1      28.750  28.197  20.018  1.00  0.00    -0.347 N 
ATOM      7  H2  UNL     1      28.541  29.119  20.404  1.00  0.00     0.163 HD
HETATM    8  C14 UNL     1      29.594  27.405  20.776  1.00  0.00     0.241 C 
HETATM    9  O2  UNL     1      30.720  27.863  21.105  1.00  0.00    -0.271 OA
HETATM   10  C15 UNL     1      29.296  26.003  21.265  1.00  0.00     0.179 C 
HETATM   11  N3  UNL     1      28.074  25.978  22.020  1.00  0.00    -0.359 N 
ATOM     12  H3  UNL     1      28.201  26.121  23.022  1.00  0.00     0.162 HD
HETATM   13  C19 UNL     1      26.743  25.795  21.635  1.00  0.00     0.135 C 
HETATM   14  C20 UNL     1      26.046  24.570  21.159  1.00  0.00     0.158 C 
HETATM   15  N4  UNL     1      25.396  24.813  19.892  1.00  0.00    -0.361 N 
ATOM     16  H4  UNL     1      25.981  25.289  19.205  1.00  0.00     0.162 HD
HETATM   17  C25 UNL     1      24.118  24.513  19.441  1.00  0.00     0.135 C 
HETATM   18  C26 UNL     1      22.800  25.004  19.819  1.00  0.00     0.162 C 
HETATM   19  C27 UNL     1      22.374  24.700  21.237  1.00  0.00     0.035 C 
HETATM   20  C28 UNL     1      22.482  26.001  21.936  1.00  0.00     0.022 C 
HETATM   21  C29 UNL     1      22.504  27.041  20.883  1.00  0.00     0.127 C 
HETATM   22  N5  UNL     1      22.489  26.384  19.593  1.00  0.00    -0.335 N 
HETATM   23  C30 UNL     1      22.178  27.008  18.350  1.00  0.00     0.225 C 
HETATM   24  N6  UNL     1      22.701  26.790  17.050  1.00  0.00    -0.281 N 
HETATM   25  C35 UNL     1      24.067  26.913  16.650  1.00  0.00     0.249 C 
HETATM   26  O6  UNL     1      24.538  25.847  16.087  1.00  0.00    -0.271 OA
ENDROOT
BRANCH  24  27
HETATM   27  C31 UNL     1      21.734  26.345  16.010  1.00  0.00     0.141 C 
BRANCH  27  28
HETATM   28  C32 UNL     1      21.356  27.435  15.056  1.00  0.00     0.025 C 
HETATM   29  C33 UNL     1      21.688  27.113  13.633  1.00  0.00     0.013 C 
BRANCH  28  30
HETATM   30  C34 UNL     1      19.840  27.673  15.089  1.00  0.00     0.235 C 
BRANCH  30  31
HETATM   31  N7  UNL     1      19.178  26.680  14.270  1.00  0.00    -0.079 N 
ATOM     32  H73 UNL     1      19.825  25.972  13.925  1.00  0.00     0.274 HD
ATOM     33  H72 UNL     1      18.572  26.070  14.819  1.00  0.00     0.274 HD
ATOM     34  H71 UNL     1      18.676  27.144  13.514  1.00  0.00     0.274 HD
ENDBRANCH  30  31
ENDBRANCH  28  30
ENDBRANCH  27  28
ENDBRANCH  24  27
BRANCH  23  35
HETATM   35  O5  UNL     1      21.262  27.948  18.364  1.00  0.00    -0.332 OA
ATOM     36  H5  UNL     1      21.535  28.816  18.636  1.00  0.00     0.221 HD
ENDBRANCH  23  35
BRANCH   1  37
HETATM   37  C6  UNL     1      26.137  27.880  15.736  1.00  0.00     0.035 C 
BRANCH  37  38
HETATM   38  C5  UNL     1      26.251  28.996  14.781  1.00  0.00     0.002 C 
BRANCH  38  39
HETATM   39  C4  UNL     1      27.602  29.687  14.983  1.00  0.00     0.000 C 
BRANCH  39  40
HETATM   40  C3  UNL     1      27.491  30.960  15.783  1.00  0.00    -0.000 C 
BRANCH  40  41
HETATM   41  C2  UNL     1      26.134  31.589  15.458  1.00  0.00    -0.005 C 
HETATM   42  C1  UNL     1      25.507  32.081  16.743  1.00  0.00     0.005 C 
ENDBRANCH  40  41
ENDBRANCH  39  40
ENDBRANCH  38  39
ENDBRANCH  37  38
ENDBRANCH   1  37
BRANCH  17  43
HETATM   43  O4  UNL     1      24.100  23.610  18.486  1.00  0.00    -0.348 OA
ATOM     44  H4  UNL     1      23.411  23.751  17.847  1.00  0.00     0.219 HD
ENDBRANCH  17  43
BRANCH   4  45
HETATM   45  O1  UNL     1      26.885  29.772  19.115  1.00  0.00    -0.348 OA
ATOM     46  H1  UNL     1      27.595  29.912  19.730  1.00  0.00     0.219 HD
ENDBRANCH   4  45
BRANCH   5  47
HETATM   47  C10 UNL     1      29.107  28.143  17.660  1.00  0.00     0.037 C 
BRANCH  47  48
HETATM   48  C11 UNL     1      29.775  27.014  16.990  1.00  0.00    -0.020 C 
HETATM   49  C12 UNL     1      31.150  26.640  17.461  1.00  0.00     0.009 C 
HETATM   50  C13 UNL     1      28.903  25.771  17.279  1.00  0.00     0.009 C 
ENDBRANCH  47  48
ENDBRANCH   5  47
BRANCH  14  51
HETATM   51  C21 UNL     1      26.954  23.401  21.180  1.00  0.00     0.037 C 
BRANCH  51  52
HETATM   52  C22 UNL     1      27.299  22.763  19.877  1.00  0.00    -0.020 C 
HETATM   53  C23 UNL     1      28.825  22.685  19.782  1.00  0.00     0.009 C 
HETATM   54  C24 UNL     1      26.684  21.417  19.644  1.00  0.00     0.009 C 
ENDBRANCH  51  52
ENDBRANCH  14  51
BRANCH  13  55
HETATM   55  O3  UNL     1      25.985  26.865  21.706  1.00  0.00    -0.348 OA
ATOM     56  H3  UNL     1      25.051  26.709  21.621  1.00  0.00     0.219 HD
ENDBRANCH  13  55
BRANCH  10  57
HETATM   57  C16 UNL     1      30.464  25.619  22.198  1.00  0.00     0.009 C 
HETATM   58  C17 UNL     1      31.370  24.593  21.599  1.00  0.00     0.012 C 
HETATM   59  C18 UNL     1      29.951  25.099  23.530  1.00  0.00     0.012 C 
ENDBRANCH  10  57
TORSDOF 18
ENDMDL
