MODEL 1
REMARK VINA RESULT: -5.771063264      0.000      0.000
REMARK  6 active torsions:
REMARK  status: ('A' for Active; 'I' for Inactive)
REMARK    1  A    between atoms: C2_2  and  C3_3 
REMARK    2  A    between atoms: C3_3  and  N1_4 
REMARK    3  A    between atoms: N1_4  and  C5_6 
REMARK    4  A    between atoms: C5_6  and  C6_7 
REMARK    5  A    between atoms: C6_7  and  N2_8 
REMARK    6  A    between atoms: N2_8  and  C7_10 
ROOT
HETATM    1  C6  UNL     1      15.312  -9.260  -1.333  1.00  0.00     0.159 C 
ENDROOT
BRANCH   1   2
HETATM    2  C5  UNL     1      15.062  -7.817  -1.046  1.00  0.00     0.081 C 
BRANCH   2   3
HETATM    3  N1  UNL     1      14.771  -6.982  -2.139  1.00  0.00    -0.377 N 
HETATM    4  C4  UNL     1      15.312  -5.684  -2.194  1.00  0.00     0.154 C 
BRANCH   3   5
HETATM    5  C3  UNL     1      13.571  -7.221  -2.820  1.00  0.00     0.062 C 
BRANCH   5   6
HETATM    6  C2  UNL     1      12.464  -6.246  -2.721  1.00  0.00     0.040 C 
HETATM    7  C1  UNL     1      11.761  -5.907  -4.012  1.00  0.00     0.010 C 
ENDBRANCH   5   6
ENDBRANCH   3   5
ENDBRANCH   2   3
ENDBRANCH   1   2
BRANCH   1   8
HETATM    8  N2  UNL     1      14.680 -10.195  -0.482  1.00  0.00    -0.413 N 
ATOM      9  H2  UNL     1      13.773 -10.589  -0.733  1.00  0.00     0.153 HD
BRANCH   8  10
HETATM   10  C7  UNL     1      15.312 -10.576   0.712  1.00  0.00     0.076 C 
HETATM   11  C8  UNL     1      15.672 -12.003   0.893  1.00  0.00     0.024 C 
HETATM   12  C9  UNL     1      15.665 -12.118   2.428  1.00  0.00     0.002 C 
HETATM   13  C10 UNL     1      14.282 -11.508   2.700  1.00  0.00     0.002 C 
HETATM   14  C11 UNL     1      14.382 -10.238   1.883  1.00  0.00     0.024 C 
ENDBRANCH   8  10
ENDBRANCH   1   8
TORSDOF 6
ENDMDL
MODEL 2
REMARK VINA RESULT: -5.762282258      0.377      1.178
REMARK  6 active torsions:
REMARK  status: ('A' for Active; 'I' for Inactive)
REMARK    1  A    between atoms: C2_2  and  C3_3 
REMARK    2  A    between atoms: C3_3  and  N1_4 
REMARK    3  A    between atoms: N1_4  and  C5_6 
REMARK    4  A    between atoms: C5_6  and  C6_7 
REMARK    5  A    between atoms: C6_7  and  N2_8 
REMARK    6  A    between atoms: N2_8  and  C7_10 
ROOT
HETATM    1  C6  UNL     1      15.371  -9.192  -1.338  1.00  0.00     0.159 C 
ENDROOT
BRANCH   1   2
HETATM    2  C5  UNL     1      15.047  -7.759  -1.074  1.00  0.00     0.081 C 
BRANCH   2   3
HETATM    3  N1  UNL     1      14.768  -6.945  -2.186  1.00  0.00    -0.377 N 
HETATM    4  C4  UNL     1      15.327  -5.655  -2.268  1.00  0.00     0.154 C 
BRANCH   3   5
HETATM    5  C3  UNL     1      13.567  -7.183  -2.863  1.00  0.00     0.062 C 
BRANCH   5   6
HETATM    6  C2  UNL     1      12.452  -6.220  -2.741  1.00  0.00     0.040 C 
HETATM    7  C1  UNL     1      11.720  -5.885  -4.018  1.00  0.00     0.010 C 
ENDBRANCH   5   6
ENDBRANCH   3   5
ENDBRANCH   2   3
ENDBRANCH   1   2
BRANCH   1   8
HETATM    8  N2  UNL     1      15.903  -9.931  -0.257  1.00  0.00    -0.413 N 
ATOM      9  H2  UNL     1      16.905  -9.910  -0.062  1.00  0.00     0.153 HD
BRANCH   8  10
HETATM   10  C7  UNL     1      15.041 -10.695   0.545  1.00  0.00     0.076 C 
HETATM   11  C8  UNL     1      14.604 -10.131   1.845  1.00  0.00     0.024 C 
HETATM   12  C9  UNL     1      14.312 -11.415   2.642  1.00  0.00     0.002 C 
HETATM   13  C10 UNL     1      15.638 -12.150   2.393  1.00  0.00     0.002 C 
HETATM   14  C11 UNL     1      15.741 -12.017   0.888  1.00  0.00     0.024 C 
ENDBRANCH   8  10
ENDBRANCH   1   8
TORSDOF 6
ENDMDL
MODEL 3
REMARK VINA RESULT: -5.753474943      5.697      8.945
REMARK  6 active torsions:
REMARK  status: ('A' for Active; 'I' for Inactive)
REMARK    1  A    between atoms: C2_2  and  C3_3 
REMARK    2  A    between atoms: C3_3  and  N1_4 
REMARK    3  A    between atoms: N1_4  and  C5_6 
REMARK    4  A    between atoms: C5_6  and  C6_7 
REMARK    5  A    between atoms: C6_7  and  N2_8 
REMARK    6  A    between atoms: N2_8  and  C7_10 
ROOT
HETATM    1  C6  UNL     1      17.386  -0.989  -3.164  1.00  0.00     0.159 C 
ENDROOT
BRANCH   1   2
HETATM    2  C5  UNL     1      16.006  -1.533  -3.327  1.00  0.00     0.081 C 
BRANCH   2   3
HETATM    3  N1  UNL     1      15.840  -2.923  -3.193  1.00  0.00    -0.377 N 
HETATM    4  C4  UNL     1      15.576  -3.710  -4.330  1.00  0.00     0.154 C 
BRANCH   3   5
HETATM    5  C3  UNL     1      15.394  -3.393  -1.952  1.00  0.00     0.062 C 
BRANCH   5   6
HETATM    6  C2  UNL     1      16.374  -3.695  -0.887  1.00  0.00     0.040 C 
HETATM    7  C1  UNL     1      16.926  -5.099  -0.870  1.00  0.00     0.010 C 
ENDBRANCH   5   6
ENDBRANCH   3   5
ENDBRANCH   2   3
ENDBRANCH   1   2
BRANCH   1   8
HETATM    8  N2  UNL     1      18.248  -1.101  -4.280  1.00  0.00    -0.413 N 
ATOM      9  H2  UNL     1      18.200  -0.419  -5.038  1.00  0.00     0.153 HD
BRANCH   8  10
HETATM   10  C7  UNL     1      19.169  -2.158  -4.335  1.00  0.00     0.076 C 
HETATM   11  C8  UNL     1      19.454  -2.910  -3.089  1.00  0.00     0.024 C 
HETATM   12  C9  UNL     1      20.876  -3.426  -3.374  1.00  0.00     0.002 C 
HETATM   13  C10 UNL     1      21.530  -2.097  -3.780  1.00  0.00     0.002 C 
HETATM   14  C11 UNL     1      20.522  -1.600  -4.794  1.00  0.00     0.024 C 
ENDBRANCH   8  10
ENDBRANCH   1   8
TORSDOF 6
ENDMDL
MODEL 4
REMARK VINA RESULT: -5.677225578      1.019      1.758
REMARK  6 active torsions:
REMARK  status: ('A' for Active; 'I' for Inactive)
REMARK    1  A    between atoms: C2_2  and  C3_3 
REMARK    2  A    between atoms: C3_3  and  N1_4 
REMARK    3  A    between atoms: N1_4  and  C5_6 
REMARK    4  A    between atoms: C5_6  and  C6_7 
REMARK    5  A    between atoms: C6_7  and  N2_8 
REMARK    6  A    between atoms: N2_8  and  C7_10 
ROOT
HETATM    1  C6  UNL     1      16.033  -8.923  -0.622  1.00  0.00     0.159 C 
ENDROOT
BRANCH   1   2
HETATM    2  C5  UNL     1      15.100  -7.811  -0.970  1.00  0.00     0.081 C 
BRANCH   2   3
HETATM    3  N1  UNL     1      14.085  -8.089  -1.902  1.00  0.00    -0.377 N 
HETATM    4  C4  UNL     1      13.786  -9.424  -2.235  1.00  0.00     0.154 C 
BRANCH   3   5
HETATM    5  C3  UNL     1      13.803  -7.098  -2.850  1.00  0.00     0.062 C 
BRANCH   5   6
HETATM    6  C2  UNL     1      12.617  -6.232  -2.675  1.00  0.00     0.040 C 
HETATM    7  C1  UNL     1      11.825  -5.931  -3.924  1.00  0.00     0.010 C 
ENDBRANCH   5   6
ENDBRANCH   3   5
ENDBRANCH   2   3
ENDBRANCH   1   2
BRANCH   1   8
HETATM    8  N2  UNL     1      16.070  -9.319   0.735  1.00  0.00    -0.413 N 
ATOM      9  H2  UNL     1      16.803  -8.971   1.354  1.00  0.00     0.153 HD
BRANCH   8  10
HETATM   10  C7  UNL     1      15.089 -10.197   1.222  1.00  0.00     0.076 C 
HETATM   11  C8  UNL     1      14.786 -10.177   2.674  1.00  0.00     0.024 C 
HETATM   12  C9  UNL     1      14.265 -11.610   2.886  1.00  0.00     0.002 C 
HETATM   13  C10 UNL     1      15.422 -12.378   2.230  1.00  0.00     0.002 C 
HETATM   14  C11 UNL     1      15.528 -11.634   0.916  1.00  0.00     0.024 C 
ENDBRANCH   8  10
ENDBRANCH   1   8
TORSDOF 6
ENDMDL
MODEL 5
REMARK VINA RESULT: -5.672069870      0.984      2.229
REMARK  6 active torsions:
REMARK  status: ('A' for Active; 'I' for Inactive)
REMARK    1  A    between atoms: C2_2  and  C3_3 
REMARK    2  A    between atoms: C3_3  and  N1_4 
REMARK    3  A    between atoms: N1_4  and  C5_6 
REMARK    4  A    between atoms: C5_6  and  C6_7 
REMARK    5  A    between atoms: C6_7  and  N2_8 
REMARK    6  A    between atoms: N2_8  and  C7_10 
ROOT
HETATM    1  C6  UNL     1      15.077  -8.363  -0.940  1.00  0.00     0.159 C 
ENDROOT
BRANCH   1   2
HETATM    2  C5  UNL     1      14.245  -7.998  -2.124  1.00  0.00     0.081 C 
BRANCH   2   3
HETATM    3  N1  UNL     1      14.011  -6.630  -2.350  1.00  0.00    -0.377 N 
HETATM    4  C4  UNL     1      12.713  -6.184  -2.667  1.00  0.00     0.154 C 
BRANCH   3   5
HETATM    5  C3  UNL     1      15.095  -5.865  -2.797  1.00  0.00     0.062 C 
BRANCH   5   6
HETATM    6  C2  UNL     1      15.426  -4.595  -2.117  1.00  0.00     0.040 C 
HETATM    7  C1  UNL     1      16.601  -4.634  -1.170  1.00  0.00     0.010 C 
ENDBRANCH   5   6
ENDBRANCH   3   5
ENDBRANCH   2   3
ENDBRANCH   1   2
BRANCH   1   8
HETATM    8  N2  UNL     1      15.650  -9.655  -0.942  1.00  0.00    -0.413 N 
ATOM      9  H2  UNL     1      15.819 -10.143  -1.822  1.00  0.00     0.153 HD
BRANCH   8  10
HETATM   10  C7  UNL     1      15.985 -10.262   0.280  1.00  0.00     0.076 C 
HETATM   11  C8  UNL     1      15.931 -11.741   0.369  1.00  0.00     0.024 C 
HETATM   12  C9  UNL     1      15.677 -11.937   1.875  1.00  0.00     0.002 C 
HETATM   13  C10 UNL     1      14.477 -10.993   2.033  1.00  0.00     0.002 C 
HETATM   14  C11 UNL     1      15.019  -9.752   1.356  1.00  0.00     0.024 C 
ENDBRANCH   8  10
ENDBRANCH   1   8
TORSDOF 6
ENDMDL
