MODEL 1
REMARK VINA RESULT: -6.206105713      0.000      0.000
REMARK  4 active torsions:
REMARK  status: ('A' for Active; 'I' for Inactive)
REMARK    1  A    between atoms: O1_1  and  C1_3 
REMARK    2  A    between atoms: C1_3  and  C2_4 
REMARK    3  A    between atoms: C4_6  and  O2_7 
REMARK    4  A    between atoms: C6_11  and  N1_12 
ROOT
HETATM    1  C2  UNL     1      33.275  59.089  17.605  1.00  0.00     0.148 C 
HETATM    2  C3  UNL     1      33.430  59.920  18.860  1.00  0.00     0.077 C 
HETATM    3  C4  UNL     1      34.933  60.017  18.978  1.00  0.00     0.112 C 
HETATM    4  C5  UNL     1      35.319  61.434  19.249  1.00  0.00     0.211 C 
HETATM    5  O3  UNL     1      36.449  61.604  18.452  1.00  0.00    -0.360 OA
HETATM    6  C6  UNL     1      35.955  61.163  17.204  1.00  0.00     0.260 C 
HETATM    7  C10 UNL     1      35.397  59.799  17.552  1.00  0.00     0.207 C 
HETATM    8  O4  UNL     1      34.297  59.502  16.792  1.00  0.00    -0.371 OA
ENDROOT
BRANCH   6   9
HETATM    9  N1  UNL     1      37.020  61.113  16.250  1.00  0.00    -0.322 N 
HETATM   10  C7  UNL     1      36.836  61.199  14.912  1.00  0.00     0.111 A 
HETATM   11  C8  UNL     1      38.057  61.118  14.274  1.00  0.00     0.106 A 
HETATM   12  N2  UNL     1      38.964  60.982  15.263  1.00  0.00    -0.361 N 
HETATM   13  C9  UNL     1      38.334  60.980  16.455  1.00  0.00     0.184 A 
ATOM     14  H2  UNL     1      39.972  60.895  15.130  1.00  0.00     0.166 HD
ENDBRANCH   6   9
BRANCH   3  15
HETATM   15  O2  UNL     1      35.463  59.108  19.863  1.00  0.00    -0.385 OA
ATOM     16  H2  UNL     1      34.979  58.291  19.890  1.00  0.00     0.210 HD
ENDBRANCH   3  15
BRANCH   1  17
HETATM   17  C1  UNL     1      31.936  59.457  16.985  1.00  0.00     0.196 C 
BRANCH  17  18
HETATM   18  O1  UNL     1      31.749  58.830  15.762  1.00  0.00    -0.398 OA
ATOM     19  H1  UNL     1      30.837  58.602  15.621  1.00  0.00     0.209 HD
ENDBRANCH  17  18
ENDBRANCH   1  17
TORSDOF 4
ENDMDL
MODEL 2
REMARK VINA RESULT: -6.180813891      0.749      1.069
REMARK  4 active torsions:
REMARK  status: ('A' for Active; 'I' for Inactive)
REMARK    1  A    between atoms: O1_1  and  C1_3 
REMARK    2  A    between atoms: C1_3  and  C2_4 
REMARK    3  A    between atoms: C4_6  and  O2_7 
REMARK    4  A    between atoms: C6_11  and  N1_12 
ROOT
HETATM    1  C2  UNL     1      33.104  59.509  18.230  1.00  0.00     0.148 C 
HETATM    2  C3  UNL     1      33.477  60.351  19.431  1.00  0.00     0.077 C 
HETATM    3  C4  UNL     1      34.985  60.269  19.406  1.00  0.00     0.112 C 
HETATM    4  C5  UNL     1      35.558  61.637  19.584  1.00  0.00     0.211 C 
HETATM    5  O3  UNL     1      36.619  61.646  18.680  1.00  0.00    -0.360 OA
HETATM    6  C6  UNL     1      35.958  61.234  17.501  1.00  0.00     0.260 C 
HETATM    7  C10 UNL     1      35.280  59.957  17.953  1.00  0.00     0.207 C 
HETATM    8  O4  UNL     1      34.084  59.773  17.310  1.00  0.00    -0.371 OA
ENDROOT
BRANCH   6   9
HETATM    9  N1  UNL     1      36.913  61.028  16.455  1.00  0.00    -0.322 N 
HETATM   10  C7  UNL     1      38.245  60.920  16.665  1.00  0.00     0.111 A 
HETATM   11  C8  UNL     1      38.886  60.728  15.457  1.00  0.00     0.106 A 
HETATM   12  N2  UNL     1      37.904  60.728  14.532  1.00  0.00    -0.361 N 
HETATM   13  C9  UNL     1      36.713  60.909  15.140  1.00  0.00     0.184 A 
ATOM     14  H2  UNL     1      38.040  60.608  13.528  1.00  0.00     0.166 HD
ENDBRANCH   6   9
BRANCH   3  15
HETATM   15  O2  UNL     1      35.487  59.328  20.274  1.00  0.00    -0.385 OA
ATOM     16  H2  UNL     1      35.986  59.709  20.987  1.00  0.00     0.210 HD
ENDBRANCH   3  15
BRANCH   1  17
HETATM   17  C1  UNL     1      31.765  60.019  17.722  1.00  0.00     0.196 C 
BRANCH  17  18
HETATM   18  O1  UNL     1      31.616  59.796  16.361  1.00  0.00    -0.398 OA
ATOM     19  H1  UNL     1      30.706  59.654  16.127  1.00  0.00     0.209 HD
ENDBRANCH  17  18
ENDBRANCH   1  17
TORSDOF 4
ENDMDL
MODEL 3
REMARK VINA RESULT: -6.179619103      2.386      4.881
REMARK  4 active torsions:
REMARK  status: ('A' for Active; 'I' for Inactive)
REMARK    1  A    between atoms: O1_1  and  C1_3 
REMARK    2  A    between atoms: C1_3  and  C2_4 
REMARK    3  A    between atoms: C4_6  and  O2_7 
REMARK    4  A    between atoms: C6_11  and  N1_12 
ROOT
HETATM    1  C2  UNL     1      37.427  61.363  14.820  1.00  0.00     0.148 C 
HETATM    2  C3  UNL     1      38.497  61.355  15.890  1.00  0.00     0.077 C 
HETATM    3  C4  UNL     1      37.712  61.778  17.110  1.00  0.00     0.112 C 
HETATM    4  C5  UNL     1      38.041  60.870  18.250  1.00  0.00     0.211 C 
HETATM    5  O3  UNL     1      36.799  60.669  18.850  1.00  0.00    -0.360 OA
HETATM    6  C6  UNL     1      36.034  60.262  17.735  1.00  0.00     0.260 C 
HETATM    7  C10 UNL     1      36.294  61.384  16.751  1.00  0.00     0.207 C 
HETATM    8  O4  UNL     1      36.299  60.923  15.460  1.00  0.00    -0.371 OA
ENDROOT
BRANCH   6   9
HETATM    9  N1  UNL     1      34.658  60.142  18.106  1.00  0.00    -0.322 N 
HETATM   10  C7  UNL     1      33.773  59.342  17.468  1.00  0.00     0.111 A 
HETATM   11  C8  UNL     1      32.535  59.454  18.069  1.00  0.00     0.106 A 
HETATM   12  N2  UNL     1      32.709  60.338  19.073  1.00  0.00    -0.361 N 
HETATM   13  C9  UNL     1      33.992  60.751  19.093  1.00  0.00     0.184 A 
ATOM     14  H2  UNL     1      31.981  60.645  19.718  1.00  0.00     0.166 HD
ENDBRANCH   6   9
BRANCH   3  15
HETATM   15  O2  UNL     1      37.844  63.116  17.397  1.00  0.00    -0.385 OA
ATOM     16  H2  UNL     1      37.147  63.448  17.951  1.00  0.00     0.210 HD
ENDBRANCH   3  15
BRANCH   1  17
HETATM   17  C1  UNL     1      37.847  60.360  13.758  1.00  0.00     0.196 C 
BRANCH  17  18
HETATM   18  O1  UNL     1      37.422  60.744  12.495  1.00  0.00    -0.398 OA
ATOM     19  H1  UNL     1      37.234  61.675  12.457  1.00  0.00     0.209 HD
ENDBRANCH  17  18
ENDBRANCH   1  17
TORSDOF 4
ENDMDL
MODEL 4
REMARK VINA RESULT: -6.010084562      2.917      5.172
REMARK  4 active torsions:
REMARK  status: ('A' for Active; 'I' for Inactive)
REMARK    1  A    between atoms: O1_1  and  C1_3 
REMARK    2  A    between atoms: C1_3  and  C2_4 
REMARK    3  A    between atoms: C4_6  and  O2_7 
REMARK    4  A    between atoms: C6_11  and  N1_12 
ROOT
HETATM    1  C2  UNL     1      37.500  61.742  14.680  1.00  0.00     0.148 C 
HETATM    2  C3  UNL     1      38.800  61.106  15.121  1.00  0.00     0.077 C 
HETATM    3  C4  UNL     1      38.954  61.660  16.518  1.00  0.00     0.112 C 
HETATM    4  C5  UNL     1      39.309  60.552  17.454  1.00  0.00     0.211 C 
HETATM    5  O3  UNL     1      38.544  60.846  18.582  1.00  0.00    -0.360 OA
HETATM    6  C6  UNL     1      37.265  60.986  18.000  1.00  0.00     0.260 C 
HETATM    7  C10 UNL     1      37.529  61.997  16.904  1.00  0.00     0.207 C 
HETATM    8  O4  UNL     1      36.731  61.769  15.813  1.00  0.00    -0.371 OA
ENDROOT
BRANCH   6   9
HETATM    9  N1  UNL     1      36.331  61.445  18.982  1.00  0.00    -0.322 N 
HETATM   10  C7  UNL     1      36.684  62.144  20.086  1.00  0.00     0.111 A 
HETATM   11  C8  UNL     1      35.555  62.434  20.826  1.00  0.00     0.106 A 
HETATM   12  N2  UNL     1      34.531  61.891  20.136  1.00  0.00    -0.361 N 
HETATM   13  C9  UNL     1      35.004  61.295  19.022  1.00  0.00     0.184 A 
ATOM     14  H2  UNL     1      33.550  61.927  20.413  1.00  0.00     0.166 HD
ENDBRANCH   6   9
BRANCH   3  15
HETATM   15  O2  UNL     1      39.800  62.742  16.577  1.00  0.00    -0.385 OA
ATOM     16  H2  UNL     1      40.049  63.066  15.719  1.00  0.00     0.210 HD
ENDBRANCH   3  15
BRANCH   1  17
HETATM   17  C1  UNL     1      36.874  60.816  13.649  1.00  0.00     0.196 C 
BRANCH  17  18
HETATM   18  O1  UNL     1      37.834  60.232  12.836  1.00  0.00    -0.398 OA
ATOM     19  H1  UNL     1      37.463  59.936  12.013  1.00  0.00     0.209 HD
ENDBRANCH  17  18
ENDBRANCH   1  17
TORSDOF 4
ENDMDL
MODEL 5
REMARK VINA RESULT: -5.868575723      2.529      4.950
REMARK  4 active torsions:
REMARK  status: ('A' for Active; 'I' for Inactive)
REMARK    1  A    between atoms: O1_1  and  C1_3 
REMARK    2  A    between atoms: C1_3  and  C2_4 
REMARK    3  A    between atoms: C4_6  and  O2_7 
REMARK    4  A    between atoms: C6_11  and  N1_12 
ROOT
HETATM    1  C2  UNL     1      37.665  62.241  16.988  1.00  0.00     0.148 C 
HETATM    2  C3  UNL     1      38.156  61.750  18.332  1.00  0.00     0.077 C 
HETATM    3  C4  UNL     1      36.857  61.546  19.076  1.00  0.00     0.112 C 
HETATM    4  C5  UNL     1      36.879  60.216  19.756  1.00  0.00     0.211 C 
HETATM    5  O3  UNL     1      35.585  59.742  19.546  1.00  0.00    -0.360 OA
HETATM    6  C6  UNL     1      35.478  59.891  18.146  1.00  0.00     0.260 C 
HETATM    7  C10 UNL     1      35.857  61.345  17.956  1.00  0.00     0.207 C 
HETATM    8  O4  UNL     1      36.511  61.538  16.767  1.00  0.00    -0.371 OA
ENDROOT
BRANCH   6   9
HETATM    9  N1  UNL     1      34.143  59.594  17.726  1.00  0.00    -0.322 N 
HETATM   10  C7  UNL     1      33.038  59.986  18.401  1.00  0.00     0.111 A 
HETATM   11  C8  UNL     1      31.912  59.542  17.737  1.00  0.00     0.106 A 
HETATM   12  N2  UNL     1      32.377  58.878  16.658  1.00  0.00    -0.361 N 
HETATM   13  C9  UNL     1      33.725  58.912  16.655  1.00  0.00     0.184 A 
ATOM     14  H2  UNL     1      31.798  58.422  15.953  1.00  0.00     0.166 HD
ENDBRANCH   6   9
BRANCH   3  15
HETATM   15  O2  UNL     1      36.539  62.598  19.902  1.00  0.00    -0.385 OA
ATOM     16  H2  UNL     1      35.868  62.381  20.538  1.00  0.00     0.210 HD
ENDBRANCH   3  15
BRANCH   1  17
HETATM   17  C1  UNL     1      38.714  61.853  15.958  1.00  0.00     0.196 C 
BRANCH  17  18
HETATM   18  O1  UNL     1      39.141  62.950  15.224  1.00  0.00    -0.398 OA
ATOM     19  H1  UNL     1      39.162  62.762  14.293  1.00  0.00     0.209 HD
ENDBRANCH  17  18
ENDBRANCH   1  17
TORSDOF 4
ENDMDL
