MODEL 1
REMARK VINA RESULT: -5.437786867      0.000      0.000
REMARK  3 active torsions:
REMARK  status: ('A' for Active; 'I' for Inactive)
REMARK    1  A    between atoms: C7_11  and  C8_12 
REMARK    2  A    between atoms: C8_12  and  C9_13 
REMARK    3  A    between atoms: C9_13  and  O5_14 
ROOT
HETATM    1  O1  UNL     1      33.350  60.808  20.643  1.00  0.00    -0.260 OA
HETATM    2  C1  UNL     1      33.526  60.497  19.443  1.00  0.00     0.315 C 
HETATM    3  O2  UNL     1      32.449  60.370  18.588  1.00  0.00    -0.316 OA
HETATM    4  C2  UNL     1      32.637  59.565  17.439  1.00  0.00     0.205 C 
HETATM    5  C3  UNL     1      33.788  58.620  17.766  1.00  0.00     0.198 C 
HETATM    6  O3  UNL     1      34.977  59.319  17.942  1.00  0.00    -0.350 OA
HETATM    7  C4  UNL     1      34.903  60.265  18.947  1.00  0.00     0.224 C 
HETATM    8  C5  UNL     1      35.682  59.696  20.130  1.00  0.00     0.098 C 
HETATM    9  C6  UNL     1      37.165  59.841  19.944  1.00  0.00     0.175 C 
HETATM   10  O4  UNL     1      37.455  61.149  19.677  1.00  0.00    -0.367 OA
HETATM   11  C7  UNL     1      36.835  61.659  18.551  1.00  0.00     0.220 C 
HETATM   12  N1  UNL     1      35.427  61.539  18.527  1.00  0.00    -0.357 N 
ATOM     13  H1  UNL     1      34.822  62.305  18.231  1.00  0.00     0.159 HD
ENDROOT
BRANCH  11  14
HETATM   14  C8  UNL     1      37.519  61.096  17.323  1.00  0.00     0.079 C 
BRANCH  14  15
HETATM   15  C9  UNL     1      36.817  61.568  16.052  1.00  0.00     0.168 C 
BRANCH  15  16
HETATM   16  O5  UNL     1      35.947  60.627  15.551  1.00  0.00    -0.401 OA
ATOM     17  H5  UNL     1      36.300  60.171  14.795  1.00  0.00     0.209 HD
ENDBRANCH  15  16
ENDBRANCH  14  15
ENDBRANCH  11  14
TORSDOF 3
ENDMDL
MODEL 2
REMARK VINA RESULT: -5.419087797      3.035      4.420
REMARK  3 active torsions:
REMARK  status: ('A' for Active; 'I' for Inactive)
REMARK    1  A    between atoms: C7_11  and  C8_12 
REMARK    2  A    between atoms: C8_12  and  C9_13 
REMARK    3  A    between atoms: C9_13  and  O5_14 
ROOT
HETATM    1  O1  UNL     1      39.667  63.534  19.667  1.00  0.00    -0.260 OA
HETATM    2  C1  UNL     1      38.668  62.844  19.366  1.00  0.00     0.315 C 
HETATM    3  O2  UNL     1      37.470  63.018  20.030  1.00  0.00    -0.316 OA
HETATM    4  C2  UNL     1      36.565  61.930  20.012  1.00  0.00     0.205 C 
HETATM    5  C3  UNL     1      37.403  60.685  19.745  1.00  0.00     0.198 C 
HETATM    6  O3  UNL     1      37.976  60.727  18.479  1.00  0.00    -0.350 OA
HETATM    7  C4  UNL     1      38.782  61.833  18.288  1.00  0.00     0.224 C 
HETATM    8  C5  UNL     1      40.222  61.327  18.341  1.00  0.00     0.098 C 
HETATM    9  C6  UNL     1      40.629  60.665  17.056  1.00  0.00     0.175 C 
HETATM   10  O4  UNL     1      40.387  61.519  16.018  1.00  0.00    -0.367 OA
HETATM   11  C7  UNL     1      39.067  61.915  15.892  1.00  0.00     0.220 C 
HETATM   12  N1  UNL     1      38.496  62.500  17.044  1.00  0.00    -0.357 N 
ATOM     13  H1  UNL     1      37.919  63.339  16.998  1.00  0.00     0.159 HD
ENDROOT
BRANCH  11  14
HETATM   14  C8  UNL     1      38.267  60.759  15.330  1.00  0.00     0.079 C 
BRANCH  14  15
HETATM   15  C9  UNL     1      36.808  61.162  15.128  1.00  0.00     0.168 C 
BRANCH  15  16
HETATM   16  O5  UNL     1      36.012  60.809  16.193  1.00  0.00    -0.401 OA
ATOM     17  H5  UNL     1      35.179  60.443  15.919  1.00  0.00     0.209 HD
ENDBRANCH  15  16
ENDBRANCH  14  15
ENDBRANCH  11  14
TORSDOF 3
ENDMDL
MODEL 3
REMARK VINA RESULT: -5.386871572      3.184      4.438
REMARK  3 active torsions:
REMARK  status: ('A' for Active; 'I' for Inactive)
REMARK    1  A    between atoms: C7_11  and  C8_12 
REMARK    2  A    between atoms: C8_12  and  C9_13 
REMARK    3  A    between atoms: C9_13  and  O5_14 
ROOT
HETATM    1  O1  UNL     1      39.709  63.319  19.314  1.00  0.00    -0.260 OA
HETATM    2  C1  UNL     1      38.590  62.776  19.182  1.00  0.00     0.315 C 
HETATM    3  O2  UNL     1      37.586  63.008  20.101  1.00  0.00    -0.316 OA
HETATM    4  C2  UNL     1      36.565  62.031  20.193  1.00  0.00     0.205 C 
HETATM    5  C3  UNL     1      37.165  60.738  19.652  1.00  0.00     0.198 C 
HETATM    6  O3  UNL     1      37.466  60.851  18.300  1.00  0.00    -0.350 OA
HETATM    7  C4  UNL     1      38.350  61.877  18.028  1.00  0.00     0.224 C 
HETATM    8  C5  UNL     1      39.694  61.217  17.727  1.00  0.00     0.098 C 
HETATM    9  C6  UNL     1      39.740  60.653  16.336  1.00  0.00     0.175 C 
HETATM   10  O4  UNL     1      39.401  61.632  15.446  1.00  0.00    -0.367 OA
HETATM   11  C7  UNL     1      38.145  62.179  15.641  1.00  0.00     0.220 C 
HETATM   12  N1  UNL     1      37.902  62.698  16.932  1.00  0.00    -0.357 N 
ATOM     13  H1  UNL     1      37.440  63.595  17.079  1.00  0.00     0.159 HD
ENDROOT
BRANCH  11  14
HETATM   14  C8  UNL     1      37.105  61.182  15.175  1.00  0.00     0.079 C 
BRANCH  14  15
HETATM   15  C9  UNL     1      37.016  61.169  13.651  1.00  0.00     0.168 C 
BRANCH  15  16
HETATM   16  O5  UNL     1      37.944  60.332  13.075  1.00  0.00    -0.401 OA
ATOM     17  H5  UNL     1      38.122  60.554  12.169  1.00  0.00     0.209 HD
ENDBRANCH  15  16
ENDBRANCH  14  15
ENDBRANCH  11  14
TORSDOF 3
ENDMDL
MODEL 4
REMARK VINA RESULT: -5.188639316      1.772      3.608
REMARK  3 active torsions:
REMARK  status: ('A' for Active; 'I' for Inactive)
REMARK    1  A    between atoms: C7_11  and  C8_12 
REMARK    2  A    between atoms: C8_12  and  C9_13 
REMARK    3  A    between atoms: C9_13  and  O5_14 
ROOT
HETATM    1  O1  UNL     1      34.304  58.357  16.173  1.00  0.00    -0.260 OA
HETATM    2  C1  UNL     1      33.627  58.633  17.188  1.00  0.00     0.315 C 
HETATM    3  O2  UNL     1      32.352  58.124  17.340  1.00  0.00    -0.316 OA
HETATM    4  C2  UNL     1      31.480  58.832  18.202  1.00  0.00     0.205 C 
HETATM    5  C3  UNL     1      32.016  60.256  18.273  1.00  0.00     0.198 C 
HETATM    6  O3  UNL     1      33.266  60.293  18.881  1.00  0.00    -0.350 OA
HETATM    7  C4  UNL     1      34.205  59.516  18.229  1.00  0.00     0.224 C 
HETATM    8  C5  UNL     1      35.126  60.485  17.490  1.00  0.00     0.098 C 
HETATM    9  C6  UNL     1      36.124  61.122  18.414  1.00  0.00     0.175 C 
HETATM   10  O4  UNL     1      36.792  60.142  19.092  1.00  0.00    -0.367 OA
HETATM   11  C7  UNL     1      35.986  59.310  19.847  1.00  0.00     0.220 C 
HETATM   12  N1  UNL     1      34.938  58.677  19.143  1.00  0.00    -0.357 N 
ATOM     13  H1  UNL     1      34.714  57.690  19.272  1.00  0.00     0.159 HD
ENDROOT
BRANCH  11  14
HETATM   14  C8  UNL     1      35.530  60.064  21.078  1.00  0.00     0.079 C 
BRANCH  14  15
HETATM   15  C9  UNL     1      36.429  59.744  22.270  1.00  0.00     0.168 C 
BRANCH  15  16
HETATM   16  O5  UNL     1      37.548  59.029  21.909  1.00  0.00    -0.401 OA
ATOM     17  H5  UNL     1      37.717  58.299  22.493  1.00  0.00     0.209 HD
ENDBRANCH  15  16
ENDBRANCH  14  15
ENDBRANCH  11  14
TORSDOF 3
ENDMDL
MODEL 5
REMARK VINA RESULT: -5.162851395      1.594      2.238
REMARK  3 active torsions:
REMARK  status: ('A' for Active; 'I' for Inactive)
REMARK    1  A    between atoms: C7_11  and  C8_12 
REMARK    2  A    between atoms: C8_12  and  C9_13 
REMARK    3  A    between atoms: C9_13  and  O5_14 
ROOT
HETATM    1  O1  UNL     1      36.437  62.574  20.882  1.00  0.00    -0.260 OA
HETATM    2  C1  UNL     1      35.890  61.926  19.962  1.00  0.00     0.315 C 
HETATM    3  O2  UNL     1      34.514  61.862  19.873  1.00  0.00    -0.316 OA
HETATM    4  C2  UNL     1      33.970  60.763  19.165  1.00  0.00     0.205 C 
HETATM    5  C3  UNL     1      35.035  59.673  19.188  1.00  0.00     0.198 C 
HETATM    6  O3  UNL     1      36.166  60.062  18.480  1.00  0.00    -0.350 OA
HETATM    7  C4  UNL     1      36.734  61.224  18.966  1.00  0.00     0.224 C 
HETATM    8  C5  UNL     1      37.998  60.802  19.714  1.00  0.00     0.098 C 
HETATM    9  C6  UNL     1      39.130  60.505  18.773  1.00  0.00     0.175 C 
HETATM   10  O4  UNL     1      39.316  61.576  17.947  1.00  0.00    -0.367 OA
HETATM   11  C7  UNL     1      38.211  61.917  17.186  1.00  0.00     0.220 C 
HETATM   12  N1  UNL     1      37.026  62.163  17.914  1.00  0.00    -0.357 N 
ATOM     13  H1  UNL     1      36.416  62.954  17.708  1.00  0.00     0.159 HD
ENDROOT
BRANCH  11  14
HETATM   14  C8  UNL     1      38.051  60.895  16.080  1.00  0.00     0.079 C 
BRANCH  14  15
HETATM   15  C9  UNL     1      36.821  61.208  15.232  1.00  0.00     0.168 C 
BRANCH  15  16
HETATM   16  O5  UNL     1      35.728  60.453  15.589  1.00  0.00    -0.401 OA
ATOM     17  H5  UNL     1      35.202  60.197  14.840  1.00  0.00     0.209 HD
ENDBRANCH  15  16
ENDBRANCH  14  15
ENDBRANCH  11  14
TORSDOF 3
ENDMDL
