MODEL 1
REMARK VINA RESULT: -9.190417965      0.000      0.000
REMARK  12 active torsions:
REMARK  status: ('A' for Active; 'I' for Inactive)
REMARK    1  A    between atoms: C2_2  and  C3_3 
REMARK    2  A    between atoms: C6_6  and  C7_7 
REMARK       I    between atoms: C7_7  and  N1_9 
REMARK    3  A    between atoms: C9_16  and  C10_17 
REMARK    4  A    between atoms: C10_17  and  C11_18 
REMARK    5  A    between atoms: C11_18  and  S1_19 
REMARK    6  A    between atoms: S1_19  and  C12_20 
REMARK    7  A    between atoms: C12_20  and  C13_21 
REMARK    8  A    between atoms: C13_21  and  C14_22 
REMARK    9  A    between atoms: C15_27  and  N6_28 
REMARK       I    between atoms: N6_28  and  C16_30 
REMARK   10  A    between atoms: C16_30  and  C17_32 
REMARK   11  A    between atoms: C17_32  and  C18_33 
REMARK   12  A    between atoms: N9_40  and  C21_41 
ROOT
HETATM    1  C12 UNL     1      16.393  21.138  17.472  1.00  0.00     0.081 C 
ENDROOT
BRANCH   1   2
HETATM    2  S1  UNL     1      15.127  21.771  16.400  1.00  0.00    -0.168 SA
BRANCH   2   3
HETATM    3  C11 UNL     1      15.543  23.352  15.671  1.00  0.00     0.080 C 
BRANCH   3   4
HETATM    4  C10 UNL     1      16.795  23.188  14.830  1.00  0.00     0.076 C 
BRANCH   4   5
HETATM    5  C9  UNL     1      17.895  24.099  15.328  1.00  0.00     0.070 A 
HETATM    6  N3  UNL     1      18.621  23.887  16.435  1.00  0.00    -0.296 N 
HETATM    7  N2  UNL     1      19.522  24.662  16.796  1.00  0.00    -0.279 N 
ATOM      8  H3  UNL     1      18.427  23.060  17.000  1.00  0.00     0.187 HD
HETATM    9  C8  UNL     1      19.774  25.777  16.021  1.00  0.00     0.168 A 
ATOM     10  H2  UNL     1      20.062  24.480  17.642  1.00  0.00     0.189 HD
HETATM   11  N1  UNL     1      20.639  26.637  16.259  1.00  0.00    -0.302 N 
HETATM   12  S2  UNL     1      18.586  25.546  14.777  1.00  0.00    -0.038 SA
HETATM   13  C7  UNL     1      21.096  27.779  15.714  1.00  0.00     0.257 C 
ATOM     14  H1  UNL     1      21.149  26.412  17.112  1.00  0.00     0.171 HD
HETATM   15  O1  UNL     1      20.382  28.746  15.267  1.00  0.00    -0.267 OA
BRANCH  13  16
HETATM   16  C6  UNL     1      22.555  27.996  15.596  1.00  0.00     0.032 A 
HETATM   17  C5  UNL     1      23.464  27.062  16.072  1.00  0.00     0.017 A 
HETATM   18  C4  UNL     1      24.801  27.352  15.922  1.00  0.00     0.008 A 
HETATM   19  C3  UNL     1      25.244  28.512  15.331  1.00  0.00    -0.059 A 
HETATM   20  C24 UNL     1      24.356  29.450  14.856  1.00  0.00     0.008 A 
HETATM   21  C23 UNL     1      22.996  29.143  15.013  1.00  0.00     0.017 A 
BRANCH  19  22
HETATM   22  C2  UNL     1      26.692  28.748  15.195  1.00  0.00     0.034 C 
HETATM   23  C1  UNL     1      27.400  27.455  15.575  1.00  0.00     0.010 C 
ENDBRANCH  19  22
ENDBRANCH  13  16
ENDBRANCH   4   5
ENDBRANCH   3   4
ENDBRANCH   2   3
ENDBRANCH   1   2
BRANCH   1  24
HETATM   24  C13 UNL     1      16.150  21.447  18.951  1.00  0.00     0.089 C 
BRANCH  24  25
HETATM   25  C14 UNL     1      16.843  22.729  19.307  1.00  0.00     0.115 A 
HETATM   26  N4  UNL     1      16.390  23.964  19.172  1.00  0.00    -0.274 N 
HETATM   27  N5  UNL     1      17.257  24.831  19.616  1.00  0.00    -0.130 N 
ATOM     28  H4  UNL     1      15.483  24.206  18.772  1.00  0.00     0.189 HD
HETATM   29  C15 UNL     1      18.352  24.131  20.075  1.00  0.00     0.703 A 
ATOM     30  H5  UNL     1      17.146  25.845  19.623  1.00  0.00     0.205 HD
HETATM   31  N9  UNL     1      18.083  22.838  19.877  1.00  0.00    -0.170 N 
BRANCH  29  32
HETATM   32  N6  UNL     1      19.345  24.755  20.590  1.00  0.00    -0.158 N 
HETATM   33  C16 UNL     1      20.651  24.927  20.138  1.00  0.00     0.241 C 
HETATM   34  O2  UNL     1      20.980  25.793  19.288  1.00  0.00    -0.272 OA
ATOM     35  H6  UNL     1      19.145  25.203  21.485  1.00  0.00     0.187 HD
BRANCH  33  36
HETATM   36  C17 UNL     1      21.693  24.005  20.724  1.00  0.00     0.162 C 
BRANCH  36  37
HETATM   37  C18 UNL     1      23.063  24.539  20.570  1.00  0.00     0.034 A 
HETATM   38  C19 UNL     1      24.038  24.825  21.489  1.00  0.00     0.114 A 
HETATM   39  N7  UNL     1      25.116  25.264  20.824  1.00  0.00    -0.360 N 
HETATM   40  C20 UNL     1      24.858  25.264  19.518  1.00  0.00     0.180 A 
ATOM     41  H7  UNL     1      25.996  25.553  21.252  1.00  0.00     0.166 HD
HETATM   42  N8  UNL     1      23.607  24.826  19.349  1.00  0.00    -0.354 N 
ATOM     43  H8  UNL     1      23.133  24.721  18.452  1.00  0.00     0.166 HD
ENDBRANCH  36  37
ENDBRANCH  33  36
ENDBRANCH  29  32
BRANCH  31  44
HETATM   44  C21 UNL     1      18.891  21.685  20.159  1.00  0.00     0.144 C 
HETATM   45  C22 UNL     1      19.123  21.470  21.648  1.00  0.00     0.027 C 
ENDBRANCH  31  44
ENDBRANCH  24  25
ENDBRANCH   1  24
TORSDOF 12
ENDMDL
MODEL 2
REMARK VINA RESULT: -9.153642513      3.550      7.368
REMARK  12 active torsions:
REMARK  status: ('A' for Active; 'I' for Inactive)
REMARK    1  A    between atoms: C2_2  and  C3_3 
REMARK    2  A    between atoms: C6_6  and  C7_7 
REMARK       I    between atoms: C7_7  and  N1_9 
REMARK    3  A    between atoms: C9_16  and  C10_17 
REMARK    4  A    between atoms: C10_17  and  C11_18 
REMARK    5  A    between atoms: C11_18  and  S1_19 
REMARK    6  A    between atoms: S1_19  and  C12_20 
REMARK    7  A    between atoms: C12_20  and  C13_21 
REMARK    8  A    between atoms: C13_21  and  C14_22 
REMARK    9  A    between atoms: C15_27  and  N6_28 
REMARK       I    between atoms: N6_28  and  C16_30 
REMARK   10  A    between atoms: C16_30  and  C17_32 
REMARK   11  A    between atoms: C17_32  and  C18_33 
REMARK   12  A    between atoms: N9_40  and  C21_41 
ROOT
HETATM    1  C12 UNL     1      10.906  21.184  15.282  1.00  0.00     0.081 C 
ENDROOT
BRANCH   1   2
HETATM    2  S1  UNL     1      11.205  19.466  15.611  1.00  0.00    -0.168 SA
BRANCH   2   3
HETATM    3  C11 UNL     1      10.672  18.956  17.243  1.00  0.00     0.080 C 
BRANCH   3   4
HETATM    4  C10 UNL     1      11.861  18.372  17.985  1.00  0.00     0.076 C 
BRANCH   4   5
HETATM    5  C9  UNL     1      12.961  19.402  18.124  1.00  0.00     0.070 A 
HETATM    6  N3  UNL     1      12.771  20.679  18.488  1.00  0.00    -0.296 N 
HETATM    7  N2  UNL     1      13.711  21.483  18.597  1.00  0.00    -0.279 N 
ATOM      8  H3  UNL     1      11.823  20.999  18.682  1.00  0.00     0.187 HD
HETATM    9  C8  UNL     1      14.990  21.035  18.331  1.00  0.00     0.168 A 
ATOM     10  H2  UNL     1      13.543  22.450  18.875  1.00  0.00     0.189 HD
HETATM   11  N1  UNL     1      16.022  21.723  18.396  1.00  0.00    -0.302 N 
HETATM   12  S2  UNL     1      14.644  19.383  17.926  1.00  0.00    -0.038 SA
HETATM   13  C7  UNL     1      17.345  21.572  18.204  1.00  0.00     0.257 C 
ATOM     14  H1  UNL     1      15.803  22.679  18.677  1.00  0.00     0.171 HD
HETATM   15  O1  UNL     1      17.905  20.983  17.212  1.00  0.00    -0.267 OA
BRANCH  13  16
HETATM   16  C6  UNL     1      18.292  22.120  19.200  1.00  0.00     0.032 A 
HETATM   17  C5  UNL     1      19.044  23.255  18.932  1.00  0.00     0.017 A 
HETATM   18  C4  UNL     1      19.902  23.688  19.918  1.00  0.00     0.008 A 
HETATM   19  C3  UNL     1      20.028  23.041  21.125  1.00  0.00    -0.059 A 
HETATM   20  C24 UNL     1      19.291  21.914  21.405  1.00  0.00     0.008 A 
HETATM   21  C23 UNL     1      18.420  21.482  20.394  1.00  0.00     0.017 A 
BRANCH  19  22
HETATM   22  C2  UNL     1      20.960  23.572  22.136  1.00  0.00     0.034 C 
HETATM   23  C1  UNL     1      21.993  24.416  21.402  1.00  0.00     0.010 C 
ENDBRANCH  19  22
ENDBRANCH  13  16
ENDBRANCH   4   5
ENDBRANCH   3   4
ENDBRANCH   2   3
ENDBRANCH   1   2
BRANCH   1  24
HETATM   24  C13 UNL     1      11.750  21.740  14.134  1.00  0.00     0.089 C 
BRANCH  24  25
HETATM   25  C14 UNL     1      12.908  22.508  14.700  1.00  0.00     0.115 A 
HETATM   26  N4  UNL     1      12.876  23.626  15.405  1.00  0.00    -0.274 N 
HETATM   27  N5  UNL     1      14.078  23.991  15.757  1.00  0.00    -0.130 N 
ATOM     28  H4  UNL     1      12.024  24.136  15.642  1.00  0.00     0.189 HD
HETATM   29  C15 UNL     1      14.962  23.060  15.257  1.00  0.00     0.703 A 
ATOM     30  H5  UNL     1      14.320  24.817  16.304  1.00  0.00     0.205 HD
HETATM   31  N9  UNL     1      14.226  22.154  14.608  1.00  0.00    -0.170 N 
BRANCH  29  32
HETATM   32  N6  UNL     1      16.217  23.176  15.485  1.00  0.00    -0.158 N 
HETATM   33  C16 UNL     1      17.005  24.302  15.708  1.00  0.00     0.241 C 
HETATM   34  O2  UNL     1      17.091  24.876  16.822  1.00  0.00    -0.272 OA
ATOM     35  H6  UNL     1      16.726  22.292  15.508  1.00  0.00     0.187 HD
BRANCH  33  36
HETATM   36  C17 UNL     1      17.779  24.828  14.522  1.00  0.00     0.162 C 
BRANCH  36  37
HETATM   37  C18 UNL     1      19.146  25.250  14.889  1.00  0.00     0.034 A 
HETATM   38  C19 UNL     1      20.344  24.586  14.857  1.00  0.00     0.114 A 
HETATM   39  N7  UNL     1      21.298  25.433  15.272  1.00  0.00    -0.360 N 
HETATM   40  C20 UNL     1      20.745  26.609  15.562  1.00  0.00     0.180 A 
ATOM     41  H7  UNL     1      22.290  25.211  15.351  1.00  0.00     0.166 HD
HETATM   42  N8  UNL     1      19.432  26.510  15.335  1.00  0.00    -0.354 N 
ATOM     43  H8  UNL     1      18.750  27.256  15.473  1.00  0.00     0.166 HD
ENDBRANCH  36  37
ENDBRANCH  33  36
ENDBRANCH  29  32
BRANCH  31  44
HETATM   44  C21 UNL     1      14.647  20.984  13.888  1.00  0.00     0.144 C 
HETATM   45  C22 UNL     1      15.057  21.282  12.453  1.00  0.00     0.027 C 
ENDBRANCH  31  44
ENDBRANCH  24  25
ENDBRANCH   1  24
TORSDOF 12
ENDMDL
MODEL 3
REMARK VINA RESULT: -8.902647550      4.168     10.434
REMARK  12 active torsions:
REMARK  status: ('A' for Active; 'I' for Inactive)
REMARK    1  A    between atoms: C2_2  and  C3_3 
REMARK    2  A    between atoms: C6_6  and  C7_7 
REMARK       I    between atoms: C7_7  and  N1_9 
REMARK    3  A    between atoms: C9_16  and  C10_17 
REMARK    4  A    between atoms: C10_17  and  C11_18 
REMARK    5  A    between atoms: C11_18  and  S1_19 
REMARK    6  A    between atoms: S1_19  and  C12_20 
REMARK    7  A    between atoms: C12_20  and  C13_21 
REMARK    8  A    between atoms: C13_21  and  C14_22 
REMARK    9  A    between atoms: C15_27  and  N6_28 
REMARK       I    between atoms: N6_28  and  C16_30 
REMARK   10  A    between atoms: C16_30  and  C17_32 
REMARK   11  A    between atoms: C17_32  and  C18_33 
REMARK   12  A    between atoms: N9_40  and  C21_41 
ROOT
HETATM    1  C12 UNL     1      20.278  25.057  18.322  1.00  0.00     0.081 C 
ENDROOT
BRANCH   1   2
HETATM    2  S1  UNL     1      20.721  25.807  19.869  1.00  0.00    -0.168 SA
BRANCH   2   3
HETATM    3  C11 UNL     1      21.427  24.650  21.039  1.00  0.00     0.080 C 
BRANCH   3   4
HETATM    4  C10 UNL     1      20.318  24.110  21.923  1.00  0.00     0.076 C 
BRANCH   4   5
HETATM    5  C9  UNL     1      19.336  23.296  21.111  1.00  0.00     0.070 A 
HETATM    6  N3  UNL     1      19.634  22.155  20.471  1.00  0.00    -0.296 N 
HETATM    7  N2  UNL     1      18.788  21.518  19.824  1.00  0.00    -0.279 N 
ATOM      8  H3  UNL     1      20.589  21.800  20.516  1.00  0.00     0.187 HD
HETATM    9  C8  UNL     1      17.498  22.011  19.770  1.00  0.00     0.168 A 
ATOM     10  H2  UNL     1      19.037  20.653  19.344  1.00  0.00     0.189 HD
HETATM   11  N1  UNL     1      16.551  21.484  19.163  1.00  0.00    -0.302 N 
HETATM   12  S2  UNL     1      17.691  23.442  20.733  1.00  0.00    -0.038 SA
HETATM   13  C7  UNL     1      15.246  21.719  18.939  1.00  0.00     0.257 C 
ATOM     14  H1  UNL     1      16.850  20.625  18.701  1.00  0.00     0.171 HD
HETATM   15  O1  UNL     1      14.723  22.841  18.603  1.00  0.00    -0.267 OA
BRANCH  13  16
HETATM   16  C6  UNL     1      14.273  20.612  19.078  1.00  0.00     0.032 A 
HETATM   17  C5  UNL     1      13.140  20.544  18.278  1.00  0.00     0.017 A 
HETATM   18  C4  UNL     1      12.291  19.480  18.483  1.00  0.00     0.008 A 
HETATM   19  C3  UNL     1      12.530  18.514  19.432  1.00  0.00    -0.059 A 
HETATM   20  C24 UNL     1      13.647  18.569  20.233  1.00  0.00     0.008 A 
HETATM   21  C23 UNL     1      14.506  19.657  20.016  1.00  0.00     0.017 A 
BRANCH  19  22
HETATM   22  C2  UNL     1      11.580  17.398  19.585  1.00  0.00     0.034 C 
HETATM   23  C1  UNL     1      10.523  17.550  18.499  1.00  0.00     0.010 C 
ENDBRANCH  19  22
ENDBRANCH  13  16
ENDBRANCH   4   5
ENDBRANCH   3   4
ENDBRANCH   2   3
ENDBRANCH   1   2
BRANCH   1  24
HETATM   24  C13 UNL     1      19.523  25.999  17.383  1.00  0.00     0.089 C 
BRANCH  24  25
HETATM   25  C14 UNL     1      18.194  25.393  17.040  1.00  0.00     0.115 A 
HETATM   26  N4  UNL     1      17.095  25.374  17.775  1.00  0.00    -0.274 N 
HETATM   27  N5  UNL     1      16.119  24.784  17.141  1.00  0.00    -0.130 N 
ATOM     28  H4  UNL     1      17.020  25.767  18.713  1.00  0.00     0.189 HD
HETATM   29  C15 UNL     1      16.598  24.388  15.911  1.00  0.00     0.703 A 
ATOM     30  H5  UNL     1      15.173  24.641  17.492  1.00  0.00     0.205 HD
HETATM   31  N9  UNL     1      17.877  24.769  15.864  1.00  0.00    -0.170 N 
BRANCH  29  32
HETATM   32  N6  UNL     1      15.823  23.800  15.078  1.00  0.00    -0.158 N 
HETATM   33  C16 UNL     1      14.728  22.963  15.280  1.00  0.00     0.241 C 
HETATM   34  O2  UNL     1      13.574  23.386  15.541  1.00  0.00    -0.272 OA
ATOM     35  H6  UNL     1      16.045  23.974  14.097  1.00  0.00     0.187 HD
BRANCH  33  36
HETATM   36  C17 UNL     1      14.987  21.479  15.174  1.00  0.00     0.162 C 
BRANCH  36  37
HETATM   37  C18 UNL     1      13.961  20.789  14.364  1.00  0.00     0.034 A 
HETATM   38  C19 UNL     1      14.032  20.150  13.155  1.00  0.00     0.114 A 
HETATM   39  N7  UNL     1      12.814  19.666  12.871  1.00  0.00    -0.360 N 
HETATM   40  C20 UNL     1      11.977  19.974  13.859  1.00  0.00     0.180 A 
ATOM     41  H7  UNL     1      12.568  19.143  12.031  1.00  0.00     0.166 HD
HETATM   42  N8  UNL     1      12.663  20.662  14.777  1.00  0.00    -0.354 N 
ATOM     43  H8  UNL     1      12.281  21.033  15.646  1.00  0.00     0.166 HD
ENDBRANCH  36  37
ENDBRANCH  33  36
ENDBRANCH  29  32
BRANCH  31  44
HETATM   44  C21 UNL     1      18.844  24.588  14.818  1.00  0.00     0.144 C 
HETATM   45  C22 UNL     1      18.743  25.640  13.723  1.00  0.00     0.027 C 
ENDBRANCH  31  44
ENDBRANCH  24  25
ENDBRANCH   1  24
TORSDOF 12
ENDMDL
MODEL 4
REMARK VINA RESULT: -8.813423043      1.781      2.673
REMARK  12 active torsions:
REMARK  status: ('A' for Active; 'I' for Inactive)
REMARK    1  A    between atoms: C2_2  and  C3_3 
REMARK    2  A    between atoms: C6_6  and  C7_7 
REMARK       I    between atoms: C7_7  and  N1_9 
REMARK    3  A    between atoms: C9_16  and  C10_17 
REMARK    4  A    between atoms: C10_17  and  C11_18 
REMARK    5  A    between atoms: C11_18  and  S1_19 
REMARK    6  A    between atoms: S1_19  and  C12_20 
REMARK    7  A    between atoms: C12_20  and  C13_21 
REMARK    8  A    between atoms: C13_21  and  C14_22 
REMARK    9  A    between atoms: C15_27  and  N6_28 
REMARK       I    between atoms: N6_28  and  C16_30 
REMARK   10  A    between atoms: C16_30  and  C17_32 
REMARK   11  A    between atoms: C17_32  and  C18_33 
REMARK   12  A    between atoms: N9_40  and  C21_41 
ROOT
HETATM    1  C12 UNL     1      15.236  21.450  19.387  1.00  0.00     0.081 C 
ENDROOT
BRANCH   1   2
HETATM    2  S1  UNL     1      14.324  20.345  18.339  1.00  0.00    -0.168 SA
BRANCH   2   3
HETATM    3  C11 UNL     1      13.469  21.181  17.005  1.00  0.00     0.080 C 
BRANCH   3   4
HETATM    4  C10 UNL     1      14.342  21.139  15.764  1.00  0.00     0.076 C 
BRANCH   4   5
HETATM    5  C9  UNL     1      15.157  22.407  15.642  1.00  0.00     0.070 A 
HETATM    6  N3  UNL     1      15.037  23.474  16.447  1.00  0.00    -0.296 N 
HETATM    7  N2  UNL     1      15.738  24.489  16.310  1.00  0.00    -0.279 N 
ATOM      8  H3  UNL     1      14.345  23.449  17.196  1.00  0.00     0.187 HD
HETATM    9  C8  UNL     1      16.671  24.508  15.291  1.00  0.00     0.168 A 
ATOM     10  H2  UNL     1      15.629  25.289  16.934  1.00  0.00     0.189 HD
HETATM   11  N1  UNL     1      17.437  25.451  15.035  1.00  0.00    -0.302 N 
HETATM   12  S2  UNL     1      16.391  22.937  14.609  1.00  0.00    -0.038 SA
HETATM   13  C7  UNL     1      18.405  25.747  14.149  1.00  0.00     0.257 C 
ATOM     14  H1  UNL     1      17.290  26.225  15.683  1.00  0.00     0.171 HD
HETATM   15  O1  UNL     1      18.359  25.554  12.881  1.00  0.00    -0.267 OA
BRANCH  13  16
HETATM   16  C6  UNL     1      19.666  26.358  14.625  1.00  0.00     0.032 A 
HETATM   17  C5  UNL     1      19.882  27.726  14.540  1.00  0.00     0.017 A 
HETATM   18  C4  UNL     1      21.087  28.202  15.006  1.00  0.00     0.008 A 
HETATM   19  C3  UNL     1      22.053  27.378  15.534  1.00  0.00    -0.059 A 
HETATM   20  C24 UNL     1      21.855  26.020  15.624  1.00  0.00     0.008 A 
HETATM   21  C23 UNL     1      20.623  25.546  15.148  1.00  0.00     0.017 A 
BRANCH  19  22
HETATM   22  C2  UNL     1      23.314  27.963  16.023  1.00  0.00     0.034 C 
HETATM   23  C1  UNL     1      24.251  26.809  16.356  1.00  0.00     0.010 C 
ENDBRANCH  19  22
ENDBRANCH  13  16
ENDBRANCH   4   5
ENDBRANCH   3   4
ENDBRANCH   2   3
ENDBRANCH   1   2
BRANCH   1  24
HETATM   24  C13 UNL     1      16.719  21.548  19.026  1.00  0.00     0.089 C 
BRANCH  24  25
HETATM   25  C14 UNL     1      17.281  22.820  19.587  1.00  0.00     0.115 A 
HETATM   26  N4  UNL     1      16.752  24.032  19.544  1.00  0.00    -0.274 N 
HETATM   27  N5  UNL     1      17.508  24.894  20.165  1.00  0.00    -0.130 N 
ATOM     28  H4  UNL     1      15.869  24.261  19.087  1.00  0.00     0.189 HD
HETATM   29  C15 UNL     1      18.606  24.216  20.650  1.00  0.00     0.703 A 
ATOM     30  H5  UNL     1      17.322  25.891  20.272  1.00  0.00     0.205 HD
HETATM   31  N9  UNL     1      18.452  22.941  20.285  1.00  0.00    -0.170 N 
BRANCH  29  32
HETATM   32  N6  UNL     1      19.499  24.838  21.325  1.00  0.00    -0.158 N 
HETATM   33  C16 UNL     1      20.824  25.144  21.025  1.00  0.00     0.241 C 
HETATM   34  O2  UNL     1      21.163  26.122  20.312  1.00  0.00    -0.272 OA
ATOM     35  H6  UNL     1      19.187  25.165  22.240  1.00  0.00     0.187 HD
BRANCH  33  36
HETATM   36  C17 UNL     1      21.875  24.228  21.605  1.00  0.00     0.162 C 
BRANCH  36  37
HETATM   37  C18 UNL     1      23.227  24.533  21.092  1.00  0.00     0.034 A 
HETATM   38  C19 UNL     1      24.393  24.859  21.734  1.00  0.00     0.114 A 
HETATM   39  N7  UNL     1      25.348  25.011  20.805  1.00  0.00    -0.360 N 
HETATM   40  C20 UNL     1      24.827  24.791  19.599  1.00  0.00     0.180 A 
ATOM     41  H7  UNL     1      26.319  25.257  20.993  1.00  0.00     0.166 HD
HETATM   42  N8  UNL     1      23.533  24.499  19.760  1.00  0.00    -0.354 N 
ATOM     43  H8  UNL     1      22.877  24.286  19.009  1.00  0.00     0.166 HD
ENDBRANCH  36  37
ENDBRANCH  33  36
ENDBRANCH  29  32
BRANCH  31  44
HETATM   44  C21 UNL     1      19.314  21.816  20.517  1.00  0.00     0.144 C 
HETATM   45  C22 UNL     1      19.443  21.457  21.991  1.00  0.00     0.027 C 
ENDBRANCH  31  44
ENDBRANCH  24  25
ENDBRANCH   1  24
TORSDOF 12
ENDMDL
MODEL 5
REMARK VINA RESULT: -8.675138717      3.280      8.617
REMARK  12 active torsions:
REMARK  status: ('A' for Active; 'I' for Inactive)
REMARK    1  A    between atoms: C2_2  and  C3_3 
REMARK    2  A    between atoms: C6_6  and  C7_7 
REMARK       I    between atoms: C7_7  and  N1_9 
REMARK    3  A    between atoms: C9_16  and  C10_17 
REMARK    4  A    between atoms: C10_17  and  C11_18 
REMARK    5  A    between atoms: C11_18  and  S1_19 
REMARK    6  A    between atoms: S1_19  and  C12_20 
REMARK    7  A    between atoms: C12_20  and  C13_21 
REMARK    8  A    between atoms: C13_21  and  C14_22 
REMARK    9  A    between atoms: C15_27  and  N6_28 
REMARK       I    between atoms: N6_28  and  C16_30 
REMARK   10  A    between atoms: C16_30  and  C17_32 
REMARK   11  A    between atoms: C17_32  and  C18_33 
REMARK   12  A    between atoms: N9_40  and  C21_41 
ROOT
HETATM    1  C12 UNL     1      21.028  25.130  19.502  1.00  0.00     0.081 C 
ENDROOT
BRANCH   1   2
HETATM    2  S1  UNL     1      21.123  26.606  18.520  1.00  0.00    -0.168 SA
BRANCH   2   3
HETATM    3  C11 UNL     1      21.837  26.333  16.901  1.00  0.00     0.080 C 
BRANCH   3   4
HETATM    4  C10 UNL     1      21.103  27.197  15.892  1.00  0.00     0.076 C 
BRANCH   4   5
HETATM    5  C9  UNL     1      19.739  26.620  15.587  1.00  0.00     0.070 A 
HETATM    6  N3  UNL     1      18.999  26.933  14.513  1.00  0.00    -0.296 N 
HETATM    7  N2  UNL     1      17.887  26.423  14.303  1.00  0.00    -0.279 N 
ATOM      8  H3  UNL     1      19.363  27.614  13.846  1.00  0.00     0.187 HD
HETATM    9  C8  UNL     1      17.407  25.503  15.214  1.00  0.00     0.168 A 
ATOM     10  H2  UNL     1      17.342  26.676  13.479  1.00  0.00     0.189 HD
HETATM   11  N1  UNL     1      16.315  24.915  15.136  1.00  0.00    -0.302 N 
HETATM   12  S2  UNL     1      18.724  25.494  16.344  1.00  0.00    -0.038 SA
HETATM   13  C7  UNL     1      15.609  24.010  15.837  1.00  0.00     0.257 C 
ATOM     14  H1  UNL     1      15.808  25.201  14.299  1.00  0.00     0.171 HD
HETATM   15  O1  UNL     1      15.417  24.013  17.105  1.00  0.00    -0.267 OA
BRANCH  13  16
HETATM   16  C6  UNL     1      14.966  22.881  15.128  1.00  0.00     0.032 A 
HETATM   17  C5  UNL     1      15.634  22.181  14.132  1.00  0.00     0.017 A 
HETATM   18  C4  UNL     1      14.954  21.149  13.527  1.00  0.00     0.008 A 
HETATM   19  C3  UNL     1      13.668  20.806  13.873  1.00  0.00    -0.059 A 
HETATM   20  C24 UNL     1      12.992  21.491  14.856  1.00  0.00     0.008 A 
HETATM   21  C23 UNL     1      13.695  22.540  15.468  1.00  0.00     0.017 A 
BRANCH  19  22
HETATM   22  C2  UNL     1      13.009  19.681  13.186  1.00  0.00     0.034 C 
HETATM   23  C1  UNL     1      11.510  19.830  13.406  1.00  0.00     0.010 C 
ENDBRANCH  19  22
ENDBRANCH  13  16
ENDBRANCH   4   5
ENDBRANCH   3   4
ENDBRANCH   2   3
ENDBRANCH   1   2
BRANCH   1  24
HETATM   24  C13 UNL     1      19.982  25.205  20.616  1.00  0.00     0.089 C 
BRANCH  24  25
HETATM   25  C14 UNL     1      18.785  24.390  20.226  1.00  0.00     0.115 A 
HETATM   26  N4  UNL     1      17.607  24.823  19.808  1.00  0.00    -0.274 N 
HETATM   27  N5  UNL     1      16.815  23.825  19.529  1.00  0.00    -0.130 N 
ATOM     28  H4  UNL     1      17.352  25.806  19.717  1.00  0.00     0.189 HD
HETATM   29  C15 UNL     1      17.507  22.659  19.775  1.00  0.00     0.703 A 
ATOM     30  H5  UNL     1      15.855  23.895  19.190  1.00  0.00     0.205 HD
HETATM   31  N9  UNL     1      18.718  23.023  20.204  1.00  0.00    -0.170 N 
BRANCH  29  32
HETATM   32  N6  UNL     1      16.955  21.524  19.555  1.00  0.00    -0.158 N 
HETATM   33  C16 UNL     1      16.138  21.091  18.514  1.00  0.00     0.241 C 
HETATM   34  O2  UNL     1      16.581  20.712  17.400  1.00  0.00    -0.272 OA
ATOM     35  H6  UNL     1      17.145  20.817  20.265  1.00  0.00     0.187 HD
BRANCH  33  36
HETATM   36  C17 UNL     1      14.651  21.093  18.778  1.00  0.00     0.162 C 
BRANCH  36  37
HETATM   37  C18 UNL     1      14.127  19.735  19.033  1.00  0.00     0.034 A 
HETATM   38  C19 UNL     1      13.427  19.211  20.088  1.00  0.00     0.114 A 
HETATM   39  N7  UNL     1      13.166  17.925  19.813  1.00  0.00    -0.360 N 
HETATM   40  C20 UNL     1      13.674  17.618  18.621  1.00  0.00     0.180 A 
ATOM     41  H7  UNL     1      12.657  17.284  20.421  1.00  0.00     0.166 HD
HETATM   42  N8  UNL     1      14.266  18.714  18.135  1.00  0.00    -0.354 N 
ATOM     43  H8  UNL     1      14.744  18.778  17.237  1.00  0.00     0.166 HD
ENDBRANCH  36  37
ENDBRANCH  33  36
ENDBRANCH  29  32
BRANCH  31  44
HETATM   44  C21 UNL     1      19.824  22.205  20.615  1.00  0.00     0.144 C 
HETATM   45  C22 UNL     1      19.807  21.884  22.104  1.00  0.00     0.027 C 
ENDBRANCH  31  44
ENDBRANCH  24  25
ENDBRANCH   1  24
TORSDOF 12
ENDMDL
