MODEL 1
REMARK VINA RESULT: -6.431003722      0.000      0.000
REMARK  1 active torsions:
REMARK  status: ('A' for Active; 'I' for Inactive)
REMARK       I    between atoms: N2_3  and  C2_5 
REMARK    1  A    between atoms: C2_5  and  C3_7 
ROOT
HETATM    1  N1  UNL     1      23.932  65.415   9.907  1.00  0.00    -0.172 NA
HETATM    2  C1  UNL     1      25.027  65.735   9.728  1.00  0.00     0.184 C 
HETATM    3  N2  UNL     1      26.390  66.118   9.488  1.00  0.00    -0.259 N 
ATOM      4  H2  UNL     1      26.613  67.085   9.253  1.00  0.00     0.181 HD
HETATM    5  C2  UNL     1      27.416  65.164   9.575  1.00  0.00     0.271 C 
HETATM    6  O1  UNL     1      27.057  63.968   9.875  1.00  0.00    -0.266 OA
ENDROOT
BRANCH   5   7
HETATM    7  C3  UNL     1      28.817  65.404   9.361  1.00  0.00     0.124 A 
HETATM    8  C4  UNL     1      29.220  65.859   8.094  1.00  0.00     0.137 A 
HETATM    9  N3  UNL     1      28.247  66.070   7.060  1.00  0.00    -0.081 NA
HETATM   10  N4  UNL     1      30.513  66.099   7.840  1.00  0.00    -0.332 N 
HETATM   11  C5  UNL     1      31.490  65.935   8.727  1.00  0.00     0.121 A 
ATOM     12  H4  UNL     1      30.764  66.429   6.908  1.00  0.00     0.168 HD
HETATM   13  N5  UNL     1      32.855  66.195   8.439  1.00  0.00    -0.083 NA
HETATM   14  C6  UNL     1      31.159  65.493   9.983  1.00  0.00     0.101 A 
HETATM   15  C7  UNL     1      29.824  65.235  10.278  1.00  0.00     0.194 A 
HETATM   16  O2  UNL     1      29.557  64.834  11.433  1.00  0.00    -0.287 OA
ENDBRANCH   5   7
TORSDOF 1
ENDMDL
MODEL 2
REMARK VINA RESULT: -6.411122589      1.607      2.214
REMARK  1 active torsions:
REMARK  status: ('A' for Active; 'I' for Inactive)
REMARK       I    between atoms: N2_3  and  C2_5 
REMARK    1  A    between atoms: C2_5  and  C3_7 
ROOT
HETATM    1  N1  UNL     1      23.873  65.677  10.464  1.00  0.00    -0.172 NA
HETATM    2  C1  UNL     1      24.977  65.961  10.281  1.00  0.00     0.184 C 
HETATM    3  N2  UNL     1      26.347  66.311  10.030  1.00  0.00    -0.259 N 
ATOM      4  H2  UNL     1      26.689  67.239  10.279  1.00  0.00     0.181 HD
HETATM    5  C2  UNL     1      27.217  65.378   9.444  1.00  0.00     0.271 C 
HETATM    6  O1  UNL     1      26.713  64.231   9.158  1.00  0.00    -0.266 OA
ENDROOT
BRANCH   5   7
HETATM    7  C3  UNL     1      28.605  65.589   9.137  1.00  0.00     0.124 A 
HETATM    8  C4  UNL     1      29.538  65.438  10.176  1.00  0.00     0.137 A 
HETATM    9  N3  UNL     1      29.098  65.083  11.495  1.00  0.00    -0.081 NA
HETATM   10  N4  UNL     1      30.845  65.623   9.946  1.00  0.00    -0.332 N 
HETATM   11  C5  UNL     1      31.354  65.954   8.763  1.00  0.00     0.121 A 
ATOM     12  H4  UNL     1      31.490  65.503  10.727  1.00  0.00     0.168 HD
HETATM   13  N5  UNL     1      32.742  66.146   8.538  1.00  0.00    -0.083 NA
HETATM   14  C6  UNL     1      30.492  66.116   7.707  1.00  0.00     0.101 A 
HETATM   15  C7  UNL     1      29.128  65.929   7.915  1.00  0.00     0.194 A 
HETATM   16  O2  UNL     1      28.370  66.085   6.932  1.00  0.00    -0.287 OA
ENDBRANCH   5   7
TORSDOF 1
ENDMDL
MODEL 3
REMARK VINA RESULT: -6.190069158      2.100      2.646
REMARK  1 active torsions:
REMARK  status: ('A' for Active; 'I' for Inactive)
REMARK       I    between atoms: N2_3  and  C2_5 
REMARK    1  A    between atoms: C2_5  and  C3_7 
ROOT
HETATM    1  N1  UNL     1      23.607  64.028  11.775  1.00  0.00    -0.172 NA
HETATM    2  C1  UNL     1      24.644  64.486  11.553  1.00  0.00     0.184 C 
HETATM    3  N2  UNL     1      25.929  65.053  11.254  1.00  0.00    -0.259 N 
ATOM      4  H2  UNL     1      26.154  65.996  11.570  1.00  0.00     0.181 HD
HETATM    5  C2  UNL     1      26.875  64.312  10.529  1.00  0.00     0.271 C 
HETATM    6  O1  UNL     1      26.517  63.133  10.165  1.00  0.00    -0.266 OA
ENDROOT
BRANCH   5   7
HETATM    7  C3  UNL     1      28.193  64.751  10.160  1.00  0.00     0.124 A 
HETATM    8  C4  UNL     1      29.215  64.641  11.118  1.00  0.00     0.137 A 
HETATM    9  N3  UNL     1      28.930  64.105  12.419  1.00  0.00    -0.081 NA
HETATM   10  N4  UNL     1      30.461  65.035  10.828  1.00  0.00    -0.332 N 
HETATM   11  C5  UNL     1      30.828  65.544   9.656  1.00  0.00     0.121 A 
ATOM     12  H4  UNL     1      31.174  64.938  11.551  1.00  0.00     0.168 HD
HETATM   13  N5  UNL     1      32.155  65.956   9.366  1.00  0.00    -0.083 NA
HETATM   14  C6  UNL     1      29.875  65.677   8.678  1.00  0.00     0.101 A 
HETATM   15  C7  UNL     1      28.570  65.275   8.949  1.00  0.00     0.194 A 
HETATM   16  O2  UNL     1      27.725  65.410   8.036  1.00  0.00    -0.287 OA
ENDBRANCH   5   7
TORSDOF 1
ENDMDL
MODEL 4
REMARK VINA RESULT: -6.177843565      4.437      5.221
REMARK  1 active torsions:
REMARK  status: ('A' for Active; 'I' for Inactive)
REMARK       I    between atoms: N2_3  and  C2_5 
REMARK    1  A    between atoms: C2_5  and  C3_7 
ROOT
HETATM    1  N1  UNL     1      23.862  61.057   8.306  1.00  0.00    -0.172 NA
HETATM    2  C1  UNL     1      24.335  61.728   9.119  1.00  0.00     0.184 C 
HETATM    3  N2  UNL     1      24.943  62.562  10.116  1.00  0.00    -0.259 N 
ATOM      4  H2  UNL     1      24.520  63.458  10.357  1.00  0.00     0.181 HD
HETATM    5  C2  UNL     1      26.120  62.148  10.760  1.00  0.00     0.271 C 
HETATM    6  O1  UNL     1      26.594  61.009  10.402  1.00  0.00    -0.266 OA
ENDROOT
BRANCH   5   7
HETATM    7  C3  UNL     1      26.833  62.878  11.772  1.00  0.00     0.124 A 
HETATM    8  C4  UNL     1      26.220  63.032  13.027  1.00  0.00     0.137 A 
HETATM    9  N3  UNL     1      24.922  62.470  13.270  1.00  0.00    -0.081 NA
HETATM   10  N4  UNL     1      26.841  63.703  14.007  1.00  0.00    -0.332 N 
HETATM   11  C5  UNL     1      28.042  64.259  13.884  1.00  0.00     0.121 A 
ATOM     12  H4  UNL     1      26.362  63.791  14.903  1.00  0.00     0.168 HD
HETATM   13  N5  UNL     1      28.684  64.966  14.934  1.00  0.00    -0.083 NA
HETATM   14  C6  UNL     1      28.692  64.143  12.681  1.00  0.00     0.101 A 
HETATM   15  C7  UNL     1      28.074  63.451  11.644  1.00  0.00     0.194 A 
HETATM   16  O2  UNL     1      28.694  63.363  10.561  1.00  0.00    -0.287 OA
ENDBRANCH   5   7
TORSDOF 1
ENDMDL
MODEL 5
REMARK VINA RESULT: -6.165668592      2.642      3.395
REMARK  1 active torsions:
REMARK  status: ('A' for Active; 'I' for Inactive)
REMARK       I    between atoms: N2_3  and  C2_5 
REMARK    1  A    between atoms: C2_5  and  C3_7 
ROOT
HETATM    1  N1  UNL     1      28.064  63.318  14.005  1.00  0.00    -0.172 NA
HETATM    2  C1  UNL     1      28.558  63.951  13.175  1.00  0.00     0.184 C 
HETATM    3  N2  UNL     1      29.152  64.738  12.131  1.00  0.00    -0.259 N 
ATOM      4  H2  UNL     1      29.572  65.641  12.352  1.00  0.00     0.181 HD
HETATM    5  C2  UNL     1      29.156  64.268  10.809  1.00  0.00     0.271 C 
HETATM    6  O1  UNL     1      28.608  63.124  10.610  1.00  0.00    -0.266 OA
ENDROOT
BRANCH   5   7
HETATM    7  C3  UNL     1      29.711  64.947   9.670  1.00  0.00     0.124 A 
HETATM    8  C4  UNL     1      31.104  65.135   9.631  1.00  0.00     0.137 A 
HETATM    9  N3  UNL     1      31.926  64.657  10.706  1.00  0.00    -0.081 NA
HETATM   10  N4  UNL     1      31.674  65.761   8.594  1.00  0.00    -0.332 N 
HETATM   11  C5  UNL     1      31.003  66.240   7.552  1.00  0.00     0.121 A 
ATOM     12  H4  UNL     1      32.688  65.876   8.604  1.00  0.00     0.168 HD
HETATM   13  N5  UNL     1      31.626  66.901   6.460  1.00  0.00    -0.083 NA
HETATM   14  C6  UNL     1      29.640  66.087   7.531  1.00  0.00     0.101 A 
HETATM   15  C7  UNL     1      29.017  65.440   8.594  1.00  0.00     0.194 A 
HETATM   16  O2  UNL     1      27.773  65.317   8.544  1.00  0.00    -0.287 OA
ENDBRANCH   5   7
TORSDOF 1
ENDMDL
