MODEL 1
REMARK VINA RESULT: -7.095841528      0.000      0.000
REMARK  11 active torsions:
REMARK  status: ('A' for Active; 'I' for Inactive)
REMARK    1  A    between atoms: N1_2  and  C2_4 
REMARK    2  A    between atoms: C2_4  and  C3_8 
REMARK    3  A    between atoms: C3_8  and  C4_9 
REMARK    4  A    between atoms: C3_8  and  N3_15 
REMARK    5  A    between atoms: C4_9  and  C5_10 
REMARK       I    between atoms: N3_15  and  C10_16 
REMARK    6  A    between atoms: C10_16  and  C11_18 
REMARK    7  A    between atoms: C11_18  and  N4_19 
REMARK    8  A    between atoms: C11_18  and  C12_23 
REMARK    9  A    between atoms: C12_23  and  C13_24 
REMARK   10  A    between atoms: C13_24  and  C15_26 
REMARK   11  A    between atoms: C15_26  and  N5_27 
ROOT
HETATM    1  N3  UNL     1      27.191  65.176   9.545  1.00  0.00    -0.400 NA
HETATM    2  C10 UNL     1      25.991  64.906   8.931  1.00  0.00     0.318 C 
HETATM    3  O1  UNL     1      25.854  64.817   7.664  1.00  0.00    -0.255 OA
ENDROOT
BRANCH   1   4
HETATM    4  C3  UNL     1      28.379  65.442  10.144  1.00  0.00     0.233 C 
BRANCH   4   5
HETATM    5  C2  UNL     1      28.790  64.342  11.070  1.00  0.00     0.107 C 
HETATM    6  N2  UNL     1      28.539  63.147  10.732  1.00  0.00    -0.387 N 
ATOM      7  H22 UNL     1      28.819  62.396  11.363  1.00  0.00     0.157 HD
ATOM      8  H21 UNL     1      28.076  62.913   9.852  1.00  0.00     0.157 HD
BRANCH   5   9
HETATM    9  N1  UNL     1      29.425  64.661  12.275  1.00  0.00    -0.382 N 
HETATM   10  C1  UNL     1      29.009  65.767  13.110  1.00  0.00     0.147 C 
ATOM     11  H1  UNL     1      30.215  64.091  12.579  1.00  0.00     0.160 HD
ENDBRANCH   5   9
ENDBRANCH   4   5
BRANCH   4  12
HETATM   12  C4  UNL     1      29.590  65.520   9.166  1.00  0.00     0.052 C 
BRANCH  12  13
HETATM   13  C5  UNL     1      30.138  66.878   8.991  1.00  0.00    -0.011 C 
HETATM   14  C6  UNL     1      31.624  66.923   8.946  1.00  0.00     0.005 C 
HETATM   15  C7  UNL     1      32.018  66.745   7.489  1.00  0.00     0.000 C 
HETATM   16  C8  UNL     1      30.778  66.922   6.669  1.00  0.00     0.000 C 
HETATM   17  C9  UNL     1      29.674  67.362   7.609  1.00  0.00     0.005 C 
ENDBRANCH  12  13
ENDBRANCH   4  12
ENDBRANCH   1   4
BRANCH   2  18
HETATM   18  C11 UNL     1      24.660  64.674   9.633  1.00  0.00     0.289 C 
BRANCH  18  19
HETATM   19  N4  UNL     1      23.674  64.375   8.669  1.00  0.00    -0.065 N 
ATOM     20  H43 UNL     1      24.047  64.377   7.720  1.00  0.00     0.275 HD
ATOM     21  H42 UNL     1      23.380  63.398   8.706  1.00  0.00     0.275 HD
ATOM     22  H41 UNL     1      22.891  65.019   8.780  1.00  0.00     0.275 HD
ENDBRANCH  18  19
BRANCH  18  23
HETATM   23  C12 UNL     1      24.910  63.554  10.580  1.00  0.00     0.049 C 
BRANCH  23  24
HETATM   24  C13 UNL     1      24.520  63.773  12.000  1.00  0.00     0.009 C 
HETATM   25  C14 UNL     1      23.430  64.808  12.152  1.00  0.00     0.011 C 
BRANCH  24  26
HETATM   26  C15 UNL     1      25.667  64.171  12.887  1.00  0.00     0.234 C 
BRANCH  26  27
HETATM   27  N5  UNL     1      26.108  62.992  13.605  1.00  0.00    -0.079 N 
ATOM     28  H53 UNL     1      26.211  62.177  13.000  1.00  0.00     0.274 HD
ATOM     29  H52 UNL     1      27.078  63.058  13.913  1.00  0.00     0.274 HD
ATOM     30  H51 UNL     1      25.459  62.832  14.376  1.00  0.00     0.274 HD
ENDBRANCH  26  27
ENDBRANCH  24  26
ENDBRANCH  23  24
ENDBRANCH  18  23
ENDBRANCH   2  18
TORSDOF 11
ENDMDL
MODEL 2
REMARK VINA RESULT: -7.040327569      2.273      6.058
REMARK  11 active torsions:
REMARK  status: ('A' for Active; 'I' for Inactive)
REMARK    1  A    between atoms: N1_2  and  C2_4 
REMARK    2  A    between atoms: C2_4  and  C3_8 
REMARK    3  A    between atoms: C3_8  and  C4_9 
REMARK    4  A    between atoms: C3_8  and  N3_15 
REMARK    5  A    between atoms: C4_9  and  C5_10 
REMARK       I    between atoms: N3_15  and  C10_16 
REMARK    6  A    between atoms: C10_16  and  C11_18 
REMARK    7  A    between atoms: C11_18  and  N4_19 
REMARK    8  A    between atoms: C11_18  and  C12_23 
REMARK    9  A    between atoms: C12_23  and  C13_24 
REMARK   10  A    between atoms: C13_24  and  C15_26 
REMARK   11  A    between atoms: C15_26  and  N5_27 
ROOT
HETATM    1  N3  UNL     1      29.042  63.995  10.903  1.00  0.00    -0.400 NA
HETATM    2  C10 UNL     1      29.801  64.891  10.187  1.00  0.00     0.318 C 
HETATM    3  O1  UNL     1      31.076  64.839  10.124  1.00  0.00    -0.255 OA
ENDROOT
BRANCH   1   4
HETATM    4  C3  UNL     1      28.300  63.107  11.612  1.00  0.00     0.233 C 
BRANCH   4   5
HETATM    5  C2  UNL     1      28.190  63.502  13.050  1.00  0.00     0.107 C 
HETATM    6  N2  UNL     1      27.194  63.083  13.713  1.00  0.00    -0.387 N 
ATOM      7  H22 UNL     1      27.119  63.352  14.695  1.00  0.00     0.157 HD
ATOM      8  H21 UNL     1      26.477  62.484  13.303  1.00  0.00     0.157 HD
BRANCH   5   9
HETATM    9  N1  UNL     1      29.174  64.323  13.613  1.00  0.00    -0.382 N 
HETATM   10  C1  UNL     1      28.897  65.656  14.100  1.00  0.00     0.147 C 
ATOM     11  H1  UNL     1      30.127  63.966  13.683  1.00  0.00     0.160 HD
ENDBRANCH   5   9
ENDBRANCH   4   5
BRANCH   4  12
HETATM   12  C4  UNL     1      26.807  63.023  11.177  1.00  0.00     0.052 C 
BRANCH  12  13
HETATM   13  C5  UNL     1      26.610  62.810   9.731  1.00  0.00    -0.011 C 
HETATM   14  C6  UNL     1      25.775  61.623   9.410  1.00  0.00     0.005 C 
HETATM   15  C7  UNL     1      24.333  62.103   9.376  1.00  0.00     0.000 C 
HETATM   16  C8  UNL     1      24.365  63.600   9.355  1.00  0.00     0.000 C 
HETATM   17  C9  UNL     1      25.814  64.019   9.215  1.00  0.00     0.005 C 
ENDBRANCH  12  13
ENDBRANCH   4  12
ENDBRANCH   1   4
BRANCH   2  18
HETATM   18  C11 UNL     1      29.270  66.062   9.374  1.00  0.00     0.289 C 
BRANCH  18  19
HETATM   19  N4  UNL     1      28.332  66.778  10.150  1.00  0.00    -0.065 N 
ATOM     20  H43 UNL     1      28.571  66.780  11.141  1.00  0.00     0.275 HD
ATOM     21  H42 UNL     1      28.382  67.783   9.987  1.00  0.00     0.275 HD
ATOM     22  H41 UNL     1      27.399  66.403   9.977  1.00  0.00     0.275 HD
ENDBRANCH  18  19
BRANCH  18  23
HETATM   23  C12 UNL     1      30.470  66.867   9.022  1.00  0.00     0.049 C 
BRANCH  23  24
HETATM   24  C13 UNL     1      30.654  67.209   7.584  1.00  0.00     0.009 C 
HETATM   25  C14 UNL     1      29.470  66.809   6.735  1.00  0.00     0.011 C 
BRANCH  24  26
HETATM   26  C15 UNL     1      31.890  66.609   6.973  1.00  0.00     0.234 C 
BRANCH  26  27
HETATM   27  N5  UNL     1      32.911  66.545   7.999  1.00  0.00    -0.079 N 
ATOM     28  H53 UNL     1      33.804  66.929   7.691  1.00  0.00     0.274 HD
ATOM     29  H52 UNL     1      32.740  67.194   8.767  1.00  0.00     0.274 HD
ATOM     30  H51 UNL     1      32.984  65.576   8.310  1.00  0.00     0.274 HD
ENDBRANCH  26  27
ENDBRANCH  24  26
ENDBRANCH  23  24
ENDBRANCH  18  23
ENDBRANCH   2  18
TORSDOF 11
ENDMDL
MODEL 3
REMARK VINA RESULT: -6.993931729      2.145      6.059
REMARK  11 active torsions:
REMARK  status: ('A' for Active; 'I' for Inactive)
REMARK    1  A    between atoms: N1_2  and  C2_4 
REMARK    2  A    between atoms: C2_4  and  C3_8 
REMARK    3  A    between atoms: C3_8  and  C4_9 
REMARK    4  A    between atoms: C3_8  and  N3_15 
REMARK    5  A    between atoms: C4_9  and  C5_10 
REMARK       I    between atoms: N3_15  and  C10_16 
REMARK    6  A    between atoms: C10_16  and  C11_18 
REMARK    7  A    between atoms: C11_18  and  N4_19 
REMARK    8  A    between atoms: C11_18  and  C12_23 
REMARK    9  A    between atoms: C12_23  and  C13_24 
REMARK   10  A    between atoms: C13_24  and  C15_26 
REMARK   11  A    between atoms: C15_26  and  N5_27 
ROOT
HETATM    1  N3  UNL     1      28.813  64.290  10.844  1.00  0.00    -0.400 NA
HETATM    2  C10 UNL     1      29.660  65.038  10.061  1.00  0.00     0.318 C 
HETATM    3  O1  UNL     1      30.918  64.826   9.985  1.00  0.00    -0.255 OA
ENDROOT
BRANCH   1   4
HETATM    4  C3  UNL     1      27.983  63.547  11.620  1.00  0.00     0.233 C 
BRANCH   4   5
HETATM    5  C2  UNL     1      28.494  63.431  13.021  1.00  0.00     0.107 C 
HETATM    6  N2  UNL     1      28.067  62.477  13.738  1.00  0.00    -0.387 N 
ATOM      7  H22 UNL     1      28.415  62.397  14.694  1.00  0.00     0.157 HD
ATOM      8  H21 UNL     1      27.399  61.787  13.391  1.00  0.00     0.157 HD
BRANCH   5   9
HETATM    9  N1  UNL     1      29.409  64.375  13.498  1.00  0.00    -0.382 N 
HETATM   10  C1  UNL     1      29.004  65.586  14.177  1.00  0.00     0.147 C 
ATOM     11  H1  UNL     1      30.406  64.203  13.360  1.00  0.00     0.160 HD
ENDBRANCH   5   9
ENDBRANCH   4   5
BRANCH   4  12
HETATM   12  C4  UNL     1      26.572  64.169  11.833  1.00  0.00     0.052 C 
BRANCH  12  13
HETATM   13  C5  UNL     1      25.466  63.356  11.293  1.00  0.00    -0.011 C 
HETATM   14  C6  UNL     1      24.203  64.118  11.099  1.00  0.00     0.005 C 
HETATM   15  C7  UNL     1      24.257  64.695   9.694  1.00  0.00     0.000 C 
HETATM   16  C8  UNL     1      25.378  64.010   8.976  1.00  0.00     0.000 C 
HETATM   17  C9  UNL     1      25.895  62.915   9.886  1.00  0.00     0.005 C 
ENDBRANCH  12  13
ENDBRANCH   4  12
ENDBRANCH   1   4
BRANCH   2  18
HETATM   18  C11 UNL     1      29.258  66.209   9.177  1.00  0.00     0.289 C 
BRANCH  18  19
HETATM   19  N4  UNL     1      28.363  67.039   9.885  1.00  0.00    -0.065 N 
ATOM     20  H43 UNL     1      28.804  67.901  10.205  1.00  0.00     0.275 HD
ATOM     21  H42 UNL     1      27.657  67.455   9.278  1.00  0.00     0.275 HD
ATOM     22  H41 UNL     1      27.949  66.508  10.652  1.00  0.00     0.275 HD
ENDBRANCH  18  19
BRANCH  18  23
HETATM   23  C12 UNL     1      30.535  66.891   8.831  1.00  0.00     0.049 C 
BRANCH  23  24
HETATM   24  C13 UNL     1      30.769  67.192   7.392  1.00  0.00     0.009 C 
HETATM   25  C14 UNL     1      29.619  66.760   6.512  1.00  0.00     0.011 C 
BRANCH  24  26
HETATM   26  C15 UNL     1      32.029  66.581   6.844  1.00  0.00     0.234 C 
BRANCH  26  27
HETATM   27  N5  UNL     1      32.979  66.464   7.931  1.00  0.00    -0.079 N 
ATOM     28  H53 UNL     1      32.791  67.116   8.692  1.00  0.00     0.274 HD
ATOM     29  H52 UNL     1      32.868  65.600   8.461  1.00  0.00     0.274 HD
ATOM     30  H51 UNL     1      33.917  66.571   7.543  1.00  0.00     0.274 HD
ENDBRANCH  26  27
ENDBRANCH  24  26
ENDBRANCH  23  24
ENDBRANCH  18  23
ENDBRANCH   2  18
TORSDOF 11
ENDMDL
MODEL 4
REMARK VINA RESULT: -6.942729029      2.328      5.911
REMARK  11 active torsions:
REMARK  status: ('A' for Active; 'I' for Inactive)
REMARK    1  A    between atoms: N1_2  and  C2_4 
REMARK    2  A    between atoms: C2_4  and  C3_8 
REMARK    3  A    between atoms: C3_8  and  C4_9 
REMARK    4  A    between atoms: C3_8  and  N3_15 
REMARK    5  A    between atoms: C4_9  and  C5_10 
REMARK       I    between atoms: N3_15  and  C10_16 
REMARK    6  A    between atoms: C10_16  and  C11_18 
REMARK    7  A    between atoms: C11_18  and  N4_19 
REMARK    8  A    between atoms: C11_18  and  C12_23 
REMARK    9  A    between atoms: C12_23  and  C13_24 
REMARK   10  A    between atoms: C13_24  and  C15_26 
REMARK   11  A    between atoms: C15_26  and  N5_27 
ROOT
HETATM    1  N3  UNL     1      27.163  63.561  10.286  1.00  0.00    -0.400 NA
HETATM    2  C10 UNL     1      28.207  63.892  11.117  1.00  0.00     0.318 C 
HETATM    3  O1  UNL     1      28.666  63.107  12.015  1.00  0.00    -0.255 OA
ENDROOT
BRANCH   1   4
HETATM    4  C3  UNL     1      26.132  63.228   9.468  1.00  0.00     0.233 C 
BRANCH   4   5
HETATM    5  C2  UNL     1      25.805  61.770   9.558  1.00  0.00     0.107 C 
HETATM    6  N2  UNL     1      24.600  61.414   9.391  1.00  0.00    -0.387 N 
ATOM      7  H22 UNL     1      24.377  60.421   9.452  1.00  0.00     0.157 HD
ATOM      8  H21 UNL     1      23.855  62.082   9.191  1.00  0.00     0.157 HD
BRANCH   5   9
HETATM    9  N1  UNL     1      26.826  60.854   9.832  1.00  0.00    -0.382 N 
HETATM   10  C1  UNL     1      27.311  59.906   8.853  1.00  0.00     0.147 C 
ATOM     11  H1  UNL     1      27.247  60.855  10.761  1.00  0.00     0.160 HD
ENDBRANCH   5   9
ENDBRANCH   4   5
BRANCH   4  12
HETATM   12  C4  UNL     1      24.774  63.894   9.839  1.00  0.00     0.052 C 
BRANCH  12  13
HETATM   13  C5  UNL     1      24.239  64.792   8.799  1.00  0.00    -0.011 C 
HETATM   14  C6  UNL     1      23.615  66.029   9.340  1.00  0.00     0.005 C 
HETATM   15  C7  UNL     1      24.723  67.064   9.443  1.00  0.00     0.000 C 
HETATM   16  C8  UNL     1      25.893  66.539   8.671  1.00  0.00     0.000 C 
HETATM   17  C9  UNL     1      25.443  65.272   7.974  1.00  0.00     0.005 C 
ENDBRANCH  12  13
ENDBRANCH   4  12
ENDBRANCH   1   4
BRANCH   2  18
HETATM   18  C11 UNL     1      28.971  65.207  11.112  1.00  0.00     0.289 C 
BRANCH  18  19
HETATM   19  N4  UNL     1      29.755  65.293  12.283  1.00  0.00    -0.065 N 
ATOM     20  H43 UNL     1      30.051  64.376  12.618  1.00  0.00     0.275 HD
ATOM     21  H42 UNL     1      30.678  65.686  12.103  1.00  0.00     0.275 HD
ATOM     22  H41 UNL     1      29.242  65.817  12.993  1.00  0.00     0.275 HD
ENDBRANCH  18  19
BRANCH  18  23
HETATM   23  C12 UNL     1      29.785  65.180   9.867  1.00  0.00     0.049 C 
BRANCH  23  24
HETATM   24  C13 UNL     1      30.213  66.495   9.314  1.00  0.00     0.009 C 
HETATM   25  C14 UNL     1      29.613  66.779   7.957  1.00  0.00     0.011 C 
BRANCH  24  26
HETATM   26  C15 UNL     1      31.705  66.648   9.205  1.00  0.00     0.234 C 
BRANCH  26  27
HETATM   27  N5  UNL     1      32.321  65.507   9.850  1.00  0.00    -0.079 N 
ATOM     28  H53 UNL     1      31.664  64.974  10.420  1.00  0.00     0.274 HD
ATOM     29  H52 UNL     1      32.564  64.766   9.194  1.00  0.00     0.274 HD
ATOM     30  H51 UNL     1      33.123  65.842  10.383  1.00  0.00     0.274 HD
ENDBRANCH  26  27
ENDBRANCH  24  26
ENDBRANCH  23  24
ENDBRANCH  18  23
ENDBRANCH   2  18
TORSDOF 11
ENDMDL
MODEL 5
REMARK VINA RESULT: -6.932037657      2.329      6.160
REMARK  11 active torsions:
REMARK  status: ('A' for Active; 'I' for Inactive)
REMARK    1  A    between atoms: N1_2  and  C2_4 
REMARK    2  A    between atoms: C2_4  and  C3_8 
REMARK    3  A    between atoms: C3_8  and  C4_9 
REMARK    4  A    between atoms: C3_8  and  N3_15 
REMARK    5  A    between atoms: C4_9  and  C5_10 
REMARK       I    between atoms: N3_15  and  C10_16 
REMARK    6  A    between atoms: C10_16  and  C11_18 
REMARK    7  A    between atoms: C11_18  and  N4_19 
REMARK    8  A    between atoms: C11_18  and  C12_23 
REMARK    9  A    between atoms: C12_23  and  C13_24 
REMARK   10  A    between atoms: C13_24  and  C15_26 
REMARK   11  A    between atoms: C15_26  and  N5_27 
ROOT
HETATM    1  N3  UNL     1      29.183  64.828  11.234  1.00  0.00    -0.400 NA
HETATM    2  C10 UNL     1      29.734  65.960  10.682  1.00  0.00     0.318 C 
HETATM    3  O1  UNL     1      29.274  67.135  10.884  1.00  0.00    -0.255 OA
ENDROOT
BRANCH   1   4
HETATM    4  C3  UNL     1      28.634  63.714  11.782  1.00  0.00     0.233 C 
BRANCH   4   5
HETATM    5  C2  UNL     1      28.590  63.797  13.275  1.00  0.00     0.107 C 
HETATM    6  N2  UNL     1      27.859  62.973  13.901  1.00  0.00    -0.387 N 
ATOM      7  H22 UNL     1      27.830  63.029  14.919  1.00  0.00     0.157 HD
ATOM      8  H21 UNL     1      27.311  62.256  13.424  1.00  0.00     0.157 HD
BRANCH   5   9
HETATM    9  N1  UNL     1      29.342  64.779  13.929  1.00  0.00    -0.382 N 
HETATM   10  C1  UNL     1      28.738  65.884  14.640  1.00  0.00     0.147 C 
ATOM     11  H1  UNL     1      30.360  64.713  13.903  1.00  0.00     0.160 HD
ENDBRANCH   5   9
ENDBRANCH   4   5
BRANCH   4  12
HETATM   12  C4  UNL     1      27.135  63.490  11.420  1.00  0.00     0.052 C 
BRANCH  12  13
HETATM   13  C5  UNL     1      26.898  63.180   9.997  1.00  0.00    -0.011 C 
HETATM   14  C6  UNL     1      26.257  61.857   9.772  1.00  0.00     0.005 C 
HETATM   15  C7  UNL     1      24.756  62.090   9.811  1.00  0.00     0.000 C 
HETATM   16  C8  UNL     1      24.535  63.569   9.733  1.00  0.00     0.000 C 
HETATM   17  C9  UNL     1      25.883  64.215   9.488  1.00  0.00     0.005 C 
ENDBRANCH  12  13
ENDBRANCH   4  12
ENDBRANCH   1   4
BRANCH   2  18
HETATM   18  C11 UNL     1      30.948  66.009   9.766  1.00  0.00     0.289 C 
BRANCH  18  19
HETATM   19  N4  UNL     1      31.856  64.997  10.145  1.00  0.00    -0.065 N 
ATOM     20  H43 UNL     1      32.611  65.355  10.730  1.00  0.00     0.275 HD
ATOM     21  H42 UNL     1      31.451  64.345  10.816  1.00  0.00     0.275 HD
ATOM     22  H41 UNL     1      32.203  64.527   9.309  1.00  0.00     0.275 HD
ENDBRANCH  18  19
BRANCH  18  23
HETATM   23  C12 UNL     1      30.406  65.820   8.393  1.00  0.00     0.049 C 
BRANCH  23  24
HETATM   24  C13 UNL     1      30.224  67.046   7.566  1.00  0.00     0.009 C 
HETATM   25  C14 UNL     1      28.891  67.077   6.856  1.00  0.00     0.011 C 
BRANCH  24  26
HETATM   26  C15 UNL     1      31.303  67.248   6.540  1.00  0.00     0.234 C 
BRANCH  26  27
HETATM   27  N5  UNL     1      32.396  66.351   6.855  1.00  0.00    -0.079 N 
ATOM     28  H53 UNL     1      32.879  66.605   7.716  1.00  0.00     0.274 HD
ATOM     29  H52 UNL     1      32.076  65.427   7.145  1.00  0.00     0.274 HD
ATOM     30  H51 UNL     1      33.019  66.317   6.048  1.00  0.00     0.274 HD
ENDBRANCH  26  27
ENDBRANCH  24  26
ENDBRANCH  23  24
ENDBRANCH  18  23
ENDBRANCH   2  18
TORSDOF 11
ENDMDL
