MODEL 1
REMARK VINA RESULT: -5.882781722      0.000      0.000
REMARK  6 active torsions:
REMARK  status: ('A' for Active; 'I' for Inactive)
REMARK    1  A    between atoms: N1_1  and  N2_4 
REMARK    2  A    between atoms: N2_4  and  C1_6 
REMARK    3  A    between atoms: C1_6  and  N3_8 
REMARK    4  A    between atoms: N3_8  and  N4_10 
REMARK    5  A    between atoms: N4_10  and  C2_12 
REMARK    6  A    between atoms: N6_17  and  N7_18 
ROOT
HETATM    1  N4  UNL     1      29.312  66.140   9.912  1.00  0.00    -0.129 N 
ATOM      2  H4  UNL     1      29.278  66.921  10.567  1.00  0.00     0.205 HD
ENDROOT
BRANCH   1   3
HETATM    3  N3  UNL     1      28.391  65.091  10.039  1.00  0.00    -0.261 N 
ATOM      4  H3  UNL     1      27.673  64.970   9.325  1.00  0.00     0.190 HD
BRANCH   3   5
HETATM    5  C1  UNL     1      28.435  64.194  11.138  1.00  0.00     0.205 C 
HETATM    6  S1  UNL     1      27.455  62.890  11.200  1.00  0.00    -0.038 SA
BRANCH   5   7
HETATM    7  N2  UNL     1      29.347  64.435  12.200  1.00  0.00    -0.282 N 
ATOM      8  H2  UNL     1      30.089  65.120  12.058  1.00  0.00     0.189 HD
BRANCH   7   9
HETATM    9  N1  UNL     1      29.272  63.778  13.425  1.00  0.00    -0.343 N 
ATOM     10  H12 UNL     1      28.716  64.215  14.161  1.00  0.00     0.176 HD
ATOM     11  H11 UNL     1      29.745  62.893  13.610  1.00  0.00     0.176 HD
ENDBRANCH   7   9
ENDBRANCH   5   7
ENDBRANCH   3   5
ENDBRANCH   1   3
BRANCH   1  12
HETATM   12  C2  UNL     1      30.297  66.128   8.877  1.00  0.00     0.709 C 
HETATM   13  N5  UNL     1      30.049  66.451   7.652  1.00  0.00    -0.222 N 
HETATM   14  C3  UNL     1      31.233  66.346   6.832  1.00  0.00     0.160 C 
ATOM     15  H5  UNL     1      29.135  66.743   7.307  1.00  0.00     0.177 HD
HETATM   16  C4  UNL     1      32.333  66.429   7.883  1.00  0.00     0.187 C 
HETATM   17  N6  UNL     1      31.660  65.776   9.004  1.00  0.00    -0.128 N 
BRANCH  17  18
HETATM   18  N7  UNL     1      32.182  64.977  10.001  1.00  0.00    -0.329 N 
ATOM     19  H72 UNL     1      32.357  65.191  10.983  1.00  0.00     0.177 HD
ATOM     20  H71 UNL     1      32.480  64.009   9.879  1.00  0.00     0.177 HD
ENDBRANCH  17  18
ENDBRANCH   1  12
TORSDOF 6
ENDMDL
MODEL 2
REMARK VINA RESULT: -5.747714842      1.503      1.669
REMARK  6 active torsions:
REMARK  status: ('A' for Active; 'I' for Inactive)
REMARK    1  A    between atoms: N1_1  and  N2_4 
REMARK    2  A    between atoms: N2_4  and  C1_6 
REMARK    3  A    between atoms: C1_6  and  N3_8 
REMARK    4  A    between atoms: N3_8  and  N4_10 
REMARK    5  A    between atoms: N4_10  and  C2_12 
REMARK    6  A    between atoms: N6_17  and  N7_18 
ROOT
HETATM    1  N4  UNL     1      29.768  65.836  11.053  1.00  0.00    -0.129 N 
ATOM      2  H4  UNL     1      29.655  66.685  11.607  1.00  0.00     0.205 HD
ENDROOT
BRANCH   1   3
HETATM    3  N3  UNL     1      29.378  64.603  11.590  1.00  0.00    -0.261 N 
ATOM      4  H3  UNL     1      29.509  63.755  11.038  1.00  0.00     0.190 HD
BRANCH   3   5
HETATM    5  C1  UNL     1      28.806  64.504  12.886  1.00  0.00     0.205 C 
HETATM    6  S1  UNL     1      27.968  65.745  13.535  1.00  0.00    -0.038 SA
BRANCH   5   7
HETATM    7  N2  UNL     1      28.967  63.304  13.629  1.00  0.00    -0.282 N 
ATOM      8  H2  UNL     1      29.831  63.166  14.152  1.00  0.00     0.189 HD
BRANCH   7   9
HETATM    9  N1  UNL     1      27.995  62.307  13.675  1.00  0.00    -0.343 N 
ATOM     10  H12 UNL     1      27.590  62.002  12.790  1.00  0.00     0.176 HD
ATOM     11  H11 UNL     1      27.680  61.880  14.547  1.00  0.00     0.176 HD
ENDBRANCH   7   9
ENDBRANCH   5   7
ENDBRANCH   3   5
ENDBRANCH   1   3
BRANCH   1  12
HETATM   12  C2  UNL     1      30.321  65.920   9.738  1.00  0.00     0.709 C 
HETATM   13  N5  UNL     1      29.639  66.259   8.696  1.00  0.00    -0.222 N 
HETATM   14  C3  UNL     1      30.459  66.257   7.508  1.00  0.00     0.160 C 
ATOM     15  H5  UNL     1      28.647  66.497   8.710  1.00  0.00     0.177 HD
HETATM   16  C4  UNL     1      31.854  66.385   8.108  1.00  0.00     0.187 C 
HETATM   17  N6  UNL     1      31.657  65.658   9.359  1.00  0.00    -0.128 N 
BRANCH  17  18
HETATM   18  N7  UNL     1      32.541  64.869  10.068  1.00  0.00    -0.329 N 
ATOM     19  H72 UNL     1      32.389  64.319  10.914  1.00  0.00     0.177 HD
ATOM     20  H71 UNL     1      33.521  64.725   9.826  1.00  0.00     0.177 HD
ENDBRANCH  17  18
ENDBRANCH   1  12
TORSDOF 6
ENDMDL
MODEL 3
REMARK VINA RESULT: -5.673179642      1.536      1.706
REMARK  6 active torsions:
REMARK  status: ('A' for Active; 'I' for Inactive)
REMARK    1  A    between atoms: N1_1  and  N2_4 
REMARK    2  A    between atoms: N2_4  and  C1_6 
REMARK    3  A    between atoms: C1_6  and  N3_8 
REMARK    4  A    between atoms: N3_8  and  N4_10 
REMARK    5  A    between atoms: N4_10  and  C2_12 
REMARK    6  A    between atoms: N6_17  and  N7_18 
ROOT
HETATM    1  N4  UNL     1      30.861  65.598  10.276  1.00  0.00    -0.129 N 
ATOM      2  H4  UNL     1      31.645  65.059  10.643  1.00  0.00     0.205 HD
ENDROOT
BRANCH   1   3
HETATM    3  N3  UNL     1      29.953  66.190  11.164  1.00  0.00    -0.261 N 
ATOM      4  H3  UNL     1      30.035  67.186  11.370  1.00  0.00     0.190 HD
BRANCH   3   5
HETATM    5  C1  UNL     1      28.921  65.437  11.784  1.00  0.00     0.205 C 
HETATM    6  S1  UNL     1      27.406  66.029  11.912  1.00  0.00    -0.038 SA
BRANCH   5   7
HETATM    7  N2  UNL     1      29.215  64.146  12.300  1.00  0.00    -0.282 N 
ATOM      8  H2  UNL     1      29.395  63.388  11.643  1.00  0.00     0.189 HD
BRANCH   7   9
HETATM    9  N1  UNL     1      29.268  63.871  13.664  1.00  0.00    -0.343 N 
ATOM     10  H12 UNL     1      29.012  64.621  14.306  1.00  0.00     0.176 HD
ATOM     11  H11 UNL     1      29.548  62.964  14.036  1.00  0.00     0.176 HD
ENDBRANCH   7   9
ENDBRANCH   5   7
ENDBRANCH   3   5
ENDBRANCH   1   3
BRANCH   1  12
HETATM   12  C2  UNL     1      30.702  65.740   8.863  1.00  0.00     0.709 C 
HETATM   13  N5  UNL     1      29.601  65.484   8.239  1.00  0.00    -0.222 N 
HETATM   14  C3  UNL     1      29.736  65.717   6.820  1.00  0.00     0.160 C 
ATOM     15  H5  UNL     1      28.747  65.158   8.690  1.00  0.00     0.177 HD
HETATM   16  C4  UNL     1      30.928  66.665   6.785  1.00  0.00     0.187 C 
HETATM   17  N6  UNL     1      31.679  66.168   7.936  1.00  0.00    -0.128 N 
BRANCH  17  18
HETATM   18  N7  UNL     1      33.043  66.101   8.136  1.00  0.00    -0.329 N 
ATOM     19  H72 UNL     1      33.605  66.445   8.915  1.00  0.00     0.177 HD
ATOM     20  H71 UNL     1      33.709  65.674   7.492  1.00  0.00     0.177 HD
ENDBRANCH  17  18
ENDBRANCH   1  12
TORSDOF 6
ENDMDL
MODEL 4
REMARK VINA RESULT: -5.627555990      2.046      5.012
REMARK  6 active torsions:
REMARK  status: ('A' for Active; 'I' for Inactive)
REMARK    1  A    between atoms: N1_1  and  N2_4 
REMARK    2  A    between atoms: N2_4  and  C1_6 
REMARK    3  A    between atoms: C1_6  and  N3_8 
REMARK    4  A    between atoms: N3_8  and  N4_10 
REMARK    5  A    between atoms: N4_10  and  C2_12 
REMARK    6  A    between atoms: N6_17  and  N7_18 
ROOT
HETATM    1  N4  UNL     1      29.798  65.662  11.110  1.00  0.00    -0.129 N 
ATOM      2  H4  UNL     1      29.823  66.592  11.528  1.00  0.00     0.205 HD
ENDROOT
BRANCH   1   3
HETATM    3  N3  UNL     1      30.868  65.232  10.316  1.00  0.00    -0.261 N 
ATOM      4  H3  UNL     1      31.486  64.499  10.667  1.00  0.00     0.190 HD
BRANCH   3   5
HETATM    5  C1  UNL     1      31.114  65.790   9.034  1.00  0.00     0.205 C 
HETATM    6  S1  UNL     1      29.884  66.224   8.053  1.00  0.00    -0.038 SA
BRANCH   5   7
HETATM    7  N2  UNL     1      32.454  65.975   8.600  1.00  0.00    -0.282 N 
ATOM      8  H2  UNL     1      33.178  66.126   9.303  1.00  0.00     0.189 HD
BRANCH   7   9
HETATM    9  N1  UNL     1      32.824  65.959   7.258  1.00  0.00    -0.343 N 
ATOM     10  H12 UNL     1      32.287  65.361   6.629  1.00  0.00     0.176 HD
ATOM     11  H11 UNL     1      33.597  66.513   6.889  1.00  0.00     0.176 HD
ENDBRANCH   7   9
ENDBRANCH   5   7
ENDBRANCH   3   5
ENDBRANCH   1   3
BRANCH   1  12
HETATM   12  C2  UNL     1      28.671  64.815  11.343  1.00  0.00     0.709 C 
HETATM   13  N5  UNL     1      27.594  64.847  10.631  1.00  0.00    -0.222 N 
HETATM   14  C3  UNL     1      26.628  63.880  11.097  1.00  0.00     0.160 C 
ATOM     15  H5  UNL     1      27.445  65.476   9.842  1.00  0.00     0.177 HD
HETATM   16  C4  UNL     1      27.522  62.906  11.855  1.00  0.00     0.187 C 
HETATM   17  N6  UNL     1      28.539  63.832  12.349  1.00  0.00    -0.128 N 
BRANCH  17  18
HETATM   18  N7  UNL     1      29.252  63.808  13.531  1.00  0.00    -0.329 N 
ATOM     19  H72 UNL     1      30.251  63.940  13.692  1.00  0.00     0.177 HD
ATOM     20  H71 UNL     1      28.850  63.644  14.454  1.00  0.00     0.177 HD
ENDBRANCH  17  18
ENDBRANCH   1  12
TORSDOF 6
ENDMDL
MODEL 5
REMARK VINA RESULT: -5.621328480      1.149      2.038
REMARK  6 active torsions:
REMARK  status: ('A' for Active; 'I' for Inactive)
REMARK    1  A    between atoms: N1_1  and  N2_4 
REMARK    2  A    between atoms: N2_4  and  C1_6 
REMARK    3  A    between atoms: C1_6  and  N3_8 
REMARK    4  A    between atoms: N3_8  and  N4_10 
REMARK    5  A    between atoms: N4_10  and  C2_12 
REMARK    6  A    between atoms: N6_17  and  N7_18 
ROOT
HETATM    1  N4  UNL     1      30.001  64.700   9.992  1.00  0.00    -0.129 N 
ATOM      2  H4  UNL     1      29.572  63.817   9.718  1.00  0.00     0.205 HD
ENDROOT
BRANCH   1   3
HETATM    3  N3  UNL     1      29.860  65.157  11.309  1.00  0.00    -0.261 N 
ATOM      4  H3  UNL     1      30.511  65.857  11.666  1.00  0.00     0.190 HD
BRANCH   3   5
HETATM    5  C1  UNL     1      28.833  64.670  12.159  1.00  0.00     0.205 C 
HETATM    6  S1  UNL     1      27.268  65.049  11.893  1.00  0.00    -0.038 SA
BRANCH   5   7
HETATM    7  N2  UNL     1      29.174  63.838  13.258  1.00  0.00    -0.282 N 
ATOM      8  H2  UNL     1      30.068  63.989  13.725  1.00  0.00     0.189 HD
BRANCH   7   9
HETATM    9  N1  UNL     1      28.342  62.825  13.728  1.00  0.00    -0.343 N 
ATOM     10  H12 UNL     1      28.769  61.921  13.931  1.00  0.00     0.176 HD
ATOM     11  H11 UNL     1      27.340  62.952  13.872  1.00  0.00     0.176 HD
ENDBRANCH   7   9
ENDBRANCH   5   7
ENDBRANCH   3   5
ENDBRANCH   1   3
BRANCH   1  12
HETATM   12  C2  UNL     1      30.738  65.457   9.029  1.00  0.00     0.709 C 
HETATM   13  N5  UNL     1      32.021  65.594   9.058  1.00  0.00    -0.222 N 
HETATM   14  C3  UNL     1      32.486  66.409   7.961  1.00  0.00     0.160 C 
ATOM     15  H5  UNL     1      32.627  65.178   9.765  1.00  0.00     0.177 HD
HETATM   16  C4  UNL     1      31.327  66.282   6.980  1.00  0.00     0.187 C 
HETATM   17  N6  UNL     1      30.215  66.161   7.921  1.00  0.00    -0.128 N 
BRANCH  17  18
HETATM   18  N7  UNL     1      28.915  66.614   7.811  1.00  0.00    -0.329 N 
ATOM     19  H72 UNL     1      28.114  66.186   7.346  1.00  0.00     0.177 HD
ATOM     20  H71 UNL     1      28.565  67.488   8.202  1.00  0.00     0.177 HD
ENDBRANCH  17  18
ENDBRANCH   1  12
TORSDOF 6
ENDMDL
