MODEL 1
REMARK VINA RESULT: -6.222293210      0.000      0.000
REMARK  5 active torsions:
REMARK  status: ('A' for Active; 'I' for Inactive)
REMARK    1  A    between atoms: C2_2  and  C4_10 
REMARK    2  A    between atoms: N1_3  and  N2_5 
REMARK       I    between atoms: C4_10  and  N5_12 
REMARK    3  A    between atoms: N5_12  and  C5_14 
REMARK    4  A    between atoms: C8_19  and  S1_20 
REMARK    5  A    between atoms: S1_20  and  N7_21 
ROOT
HETATM    1  C5  UNL     1      36.944  -4.119  12.535  1.00  0.00     0.153 A 
HETATM    2  N6  UNL     1      37.325  -5.301  13.020  1.00  0.00    -0.338 N 
ATOM      3  H6  UNL     1      38.267  -5.438  13.389  1.00  0.00     0.168 HD
HETATM    4  C6  UNL     1      36.452  -6.285  13.010  1.00  0.00     0.037 A 
HETATM    5  C7  UNL     1      36.751  -7.688  13.533  1.00  0.00     0.070 C 
HETATM    6  C8  UNL     1      35.210  -6.029  12.501  1.00  0.00     0.145 A 
HETATM    7  S2  UNL     1      35.334  -4.389  12.055  1.00  0.00    -0.038 SA
ENDROOT
BRANCH   1   8
HETATM    8  N5  UNL     1      37.672  -3.019  12.461  1.00  0.00    -0.302 N 
HETATM    9  C4  UNL     1      37.524  -2.006  13.447  1.00  0.00     0.271 C 
HETATM   10  O1  UNL     1      37.257  -2.292  14.648  1.00  0.00    -0.266 OA
ATOM     11  H5  UNL     1      38.338  -2.897  11.698  1.00  0.00     0.171 HD
BRANCH   9  12
HETATM   12  C2  UNL     1      37.688  -0.625  13.041  1.00  0.00     0.089 C 
HETATM   13  C1  UNL     1      38.978  -0.186  12.470  1.00  0.00     0.076 C 
HETATM   14  N1  UNL     1      36.721   0.208  13.179  1.00  0.00    -0.298 N 
ATOM     15  H1  UNL     1      35.848  -0.135  13.577  1.00  0.00     0.187 HD
BRANCH  14  16
HETATM   16  N2  UNL     1      36.792   1.542  12.820  1.00  0.00    -0.276 N 
HETATM   17  C3  UNL     1      36.607   2.481  13.671  1.00  0.00     0.215 C 
HETATM   18  N3  UNL     1      36.692   3.825  13.241  1.00  0.00    -0.065 NA
HETATM   19  N4  UNL     1      36.321   2.160  15.017  1.00  0.00    -0.065 NA
ATOM     20  H2  UNL     1      36.997   1.784  11.850  1.00  0.00     0.189 HD
ENDBRANCH  14  16
ENDBRANCH   9  12
ENDBRANCH   1   8
BRANCH   6  21
HETATM   21  S1  UNL     1      33.831  -7.135  12.350  1.00  0.00     0.265 S 
HETATM   22  O2  UNL     1      33.538  -7.692  13.704  1.00  0.00    -0.200 OA
HETATM   23  O3  UNL     1      34.282  -8.236  11.426  1.00  0.00    -0.200 OA
BRANCH  21  24
HETATM   24  N7  UNL     1      32.470  -6.349  11.691  1.00  0.00    -0.324 N 
ATOM     25  H72 UNL     1      31.765  -6.824  11.129  1.00  0.00     0.169 HD
ATOM     26  H71 UNL     1      32.459  -5.357  11.931  1.00  0.00     0.169 HD
ENDBRANCH  21  24
ENDBRANCH   6  21
TORSDOF 5
ENDMDL
MODEL 2
REMARK VINA RESULT: -6.160138519      2.869      8.231
REMARK  5 active torsions:
REMARK  status: ('A' for Active; 'I' for Inactive)
REMARK    1  A    between atoms: C2_2  and  C4_10 
REMARK    2  A    between atoms: N1_3  and  N2_5 
REMARK       I    between atoms: C4_10  and  N5_12 
REMARK    3  A    between atoms: N5_12  and  C5_14 
REMARK    4  A    between atoms: C8_19  and  S1_20 
REMARK    5  A    between atoms: S1_20  and  N7_21 
ROOT
HETATM    1  C5  UNL     1      35.617  -3.528  12.062  1.00  0.00     0.153 A 
HETATM    2  N6  UNL     1      36.501  -3.603  13.056  1.00  0.00    -0.338 N 
ATOM      3  H6  UNL     1      36.686  -4.489  13.529  1.00  0.00     0.168 HD
HETATM    4  C6  UNL     1      37.130  -2.503  13.410  1.00  0.00     0.037 A 
HETATM    5  C7  UNL     1      38.166  -2.442  14.531  1.00  0.00     0.070 C 
HETATM    6  C8  UNL     1      36.832  -1.354  12.734  1.00  0.00     0.145 A 
HETATM    7  S2  UNL     1      35.665  -1.887  11.613  1.00  0.00    -0.038 SA
ENDROOT
BRANCH   1   8
HETATM    8  N5  UNL     1      34.893  -4.516  11.566  1.00  0.00    -0.302 N 
HETATM    9  C4  UNL     1      34.638  -5.670  12.357  1.00  0.00     0.271 C 
HETATM   10  O1  UNL     1      34.501  -5.592  13.610  1.00  0.00    -0.266 OA
ATOM     11  H5  UNL     1      34.517  -4.450  10.620  1.00  0.00     0.171 HD
BRANCH   9  12
HETATM   12  C2  UNL     1      34.538  -6.950  11.687  1.00  0.00     0.089 C 
HETATM   13  C1  UNL     1      35.748  -7.553  11.090  1.00  0.00     0.076 C 
HETATM   14  N1  UNL     1      33.408  -7.554  11.614  1.00  0.00    -0.298 N 
ATOM     15  H1  UNL     1      32.597  -7.106  12.039  1.00  0.00     0.187 HD
BRANCH  14  16
HETATM   16  N2  UNL     1      33.222  -8.777  10.994  1.00  0.00    -0.276 N 
HETATM   17  C3  UNL     1      33.190  -9.873  11.656  1.00  0.00     0.215 C 
HETATM   18  N3  UNL     1      32.998 -11.090  10.964  1.00  0.00    -0.065 NA
HETATM   19  N4  UNL     1      33.349  -9.847  13.060  1.00  0.00    -0.065 NA
ATOM     20  H2  UNL     1      33.108  -8.806   9.981  1.00  0.00     0.189 HD
ENDBRANCH  14  16
ENDBRANCH   9  12
ENDBRANCH   1   8
BRANCH   6  21
HETATM   21  S1  UNL     1      37.501   0.271  12.974  1.00  0.00     0.265 S 
HETATM   22  O2  UNL     1      36.844   1.189  11.996  1.00  0.00    -0.200 OA
HETATM   23  O3  UNL     1      38.973   0.163  12.670  1.00  0.00    -0.200 OA
BRANCH  21  24
HETATM   24  N7  UNL     1      37.281   0.806  14.577  1.00  0.00    -0.324 N 
ATOM     25  H72 UNL     1      37.878   0.518  15.352  1.00  0.00     0.169 HD
ATOM     26  H71 UNL     1      36.486   1.440  14.654  1.00  0.00     0.169 HD
ENDBRANCH  21  24
ENDBRANCH   6  21
TORSDOF 5
ENDMDL
MODEL 3
REMARK VINA RESULT: -6.158446867      2.476      2.912
REMARK  5 active torsions:
REMARK  status: ('A' for Active; 'I' for Inactive)
REMARK    1  A    between atoms: C2_2  and  C4_10 
REMARK    2  A    between atoms: N1_3  and  N2_5 
REMARK       I    between atoms: C4_10  and  N5_12 
REMARK    3  A    between atoms: N5_12  and  C5_14 
REMARK    4  A    between atoms: C8_19  and  S1_20 
REMARK    5  A    between atoms: S1_20  and  N7_21 
ROOT
HETATM    1  C5  UNL     1      36.720  -4.504  13.867  1.00  0.00     0.153 A 
HETATM    2  N6  UNL     1      37.203  -5.711  13.577  1.00  0.00    -0.338 N 
ATOM      3  H6  UNL     1      38.184  -5.939  13.742  1.00  0.00     0.168 HD
HETATM    4  C6  UNL     1      36.378  -6.602  13.070  1.00  0.00     0.037 A 
HETATM    5  C7  UNL     1      36.793  -8.023  12.691  1.00  0.00     0.070 C 
HETATM    6  C8  UNL     1      35.079  -6.228  12.874  1.00  0.00     0.145 A 
HETATM    7  S2  UNL     1      35.081  -4.615  13.423  1.00  0.00    -0.038 SA
ENDROOT
BRANCH   1   8
HETATM    8  N5  UNL     1      37.387  -3.484  14.379  1.00  0.00    -0.302 N 
HETATM    9  C4  UNL     1      38.096  -3.645  15.600  1.00  0.00     0.271 C 
HETATM   10  O1  UNL     1      38.645  -4.742  15.902  1.00  0.00    -0.266 OA
ATOM     11  H5  UNL     1      37.393  -2.584  13.899  1.00  0.00     0.171 HD
BRANCH   9  12
HETATM   12  C2  UNL     1      38.177  -2.513  16.500  1.00  0.00     0.089 C 
HETATM   13  C1  UNL     1      39.273  -2.450  17.489  1.00  0.00     0.076 C 
HETATM   14  N1  UNL     1      37.304  -1.575  16.439  1.00  0.00    -0.298 N 
ATOM     15  H1  UNL     1      36.563  -1.655  15.743  1.00  0.00     0.187 HD
BRANCH  14  16
HETATM   16  N2  UNL     1      37.305  -0.461  17.259  1.00  0.00    -0.276 N 
HETATM   17  C3  UNL     1      37.566   0.710  16.808  1.00  0.00     0.215 C 
HETATM   18  N3  UNL     1      37.552   1.808  17.697  1.00  0.00    -0.065 NA
HETATM   19  N4  UNL     1      37.864   0.882  15.438  1.00  0.00    -0.065 NA
ATOM     20  H2  UNL     1      37.092  -0.575  18.250  1.00  0.00     0.189 HD
ENDBRANCH  14  16
ENDBRANCH   9  12
ENDBRANCH   1   8
BRANCH   6  21
HETATM   21  S1  UNL     1      33.742  -7.190  12.216  1.00  0.00     0.265 S 
HETATM   22  O2  UNL     1      32.556  -6.293  12.072  1.00  0.00    -0.200 OA
HETATM   23  O3  UNL     1      33.458  -8.259  13.238  1.00  0.00    -0.200 OA
BRANCH  21  24
HETATM   24  N7  UNL     1      34.163  -7.910  10.730  1.00  0.00    -0.324 N 
ATOM     25  H72 UNL     1      34.958  -7.608  10.165  1.00  0.00     0.169 HD
ATOM     26  H71 UNL     1      33.525  -8.667  10.487  1.00  0.00     0.169 HD
ENDBRANCH  21  24
ENDBRANCH   6  21
TORSDOF 5
ENDMDL
MODEL 4
REMARK VINA RESULT: -6.155885873      3.564      8.357
REMARK  5 active torsions:
REMARK  status: ('A' for Active; 'I' for Inactive)
REMARK    1  A    between atoms: C2_2  and  C4_10 
REMARK    2  A    between atoms: N1_3  and  N2_5 
REMARK       I    between atoms: C4_10  and  N5_12 
REMARK    3  A    between atoms: N5_12  and  C5_14 
REMARK    4  A    between atoms: C8_19  and  S1_20 
REMARK    5  A    between atoms: S1_20  and  N7_21 
ROOT
HETATM    1  C5  UNL     1      37.579  -1.170  12.596  1.00  0.00     0.153 A 
HETATM    2  N6  UNL     1      36.747  -0.242  13.069  1.00  0.00    -0.338 N 
ATOM      3  H6  UNL     1      35.799  -0.485  13.357  1.00  0.00     0.168 HD
HETATM    4  C6  UNL     1      37.184   0.996  13.153  1.00  0.00     0.037 A 
HETATM    5  C7  UNL     1      36.341   2.159  13.674  1.00  0.00     0.070 C 
HETATM    6  C8  UNL     1      38.464   1.248  12.748  1.00  0.00     0.145 A 
HETATM    7  S2  UNL     1      39.000  -0.295  12.263  1.00  0.00    -0.038 SA
ENDROOT
BRANCH   1   8
HETATM    8  N5  UNL     1      37.326  -2.457  12.438  1.00  0.00    -0.302 N 
HETATM    9  C4  UNL     1      36.067  -2.871  11.927  1.00  0.00     0.271 C 
HETATM   10  O1  UNL     1      35.443  -2.179  11.073  1.00  0.00    -0.266 OA
ATOM     11  H5  UNL     1      38.033  -3.151  12.682  1.00  0.00     0.171 HD
BRANCH   9  12
HETATM   12  C2  UNL     1      35.507  -4.117  12.409  1.00  0.00     0.089 C 
HETATM   13  C1  UNL     1      36.164  -4.821  13.530  1.00  0.00     0.076 C 
HETATM   14  N1  UNL     1      34.451  -4.605  11.866  1.00  0.00    -0.298 N 
ATOM     15  H1  UNL     1      34.028  -4.089  11.096  1.00  0.00     0.187 HD
BRANCH  14  16
HETATM   16  N2  UNL     1      33.852  -5.787  12.262  1.00  0.00    -0.276 N 
HETATM   17  C3  UNL     1      33.983  -6.869  11.590  1.00  0.00     0.215 C 
HETATM   18  N3  UNL     1      33.344  -8.044  12.047  1.00  0.00    -0.065 NA
HETATM   19  N4  UNL     1      34.758  -6.870  10.409  1.00  0.00    -0.065 NA
ATOM     20  H2  UNL     1      33.289  -5.796  13.114  1.00  0.00     0.189 HD
ENDBRANCH  14  16
ENDBRANCH   9  12
ENDBRANCH   1   8
BRANCH   6  21
HETATM   21  S1  UNL     1      39.333   2.795  12.739  1.00  0.00     0.265 S 
HETATM   22  O2  UNL     1      38.542   3.762  11.920  1.00  0.00    -0.200 OA
HETATM   23  O3  UNL     1      40.658   2.523  12.076  1.00  0.00    -0.200 OA
BRANCH  21  24
HETATM   24  N7  UNL     1      39.587   3.377  14.320  1.00  0.00    -0.324 N 
ATOM     25  H72 UNL     1      40.283   2.989  14.957  1.00  0.00     0.169 HD
ATOM     26  H71 UNL     1      38.960   4.152  14.539  1.00  0.00     0.169 HD
ENDBRANCH  21  24
ENDBRANCH   6  21
TORSDOF 5
ENDMDL
MODEL 5
REMARK VINA RESULT: -6.148434410      1.271      1.569
REMARK  5 active torsions:
REMARK  status: ('A' for Active; 'I' for Inactive)
REMARK    1  A    between atoms: C2_2  and  C4_10 
REMARK    2  A    between atoms: N1_3  and  N2_5 
REMARK       I    between atoms: C4_10  and  N5_12 
REMARK    3  A    between atoms: N5_12  and  C5_14 
REMARK    4  A    between atoms: C8_19  and  S1_20 
REMARK    5  A    between atoms: S1_20  and  N7_21 
ROOT
HETATM    1  C5  UNL     1      36.605  -3.979  13.269  1.00  0.00     0.153 A 
HETATM    2  N6  UNL     1      37.126  -5.197  13.419  1.00  0.00    -0.338 N 
ATOM      3  H6  UNL     1      38.083  -5.321  13.751  1.00  0.00     0.168 HD
HETATM    4  C6  UNL     1      36.370  -6.233  13.127  1.00  0.00     0.037 A 
HETATM    5  C7  UNL     1      36.834  -7.683  13.251  1.00  0.00     0.070 C 
HETATM    6  C8  UNL     1      35.099  -5.991  12.688  1.00  0.00     0.145 A 
HETATM    7  S2  UNL     1      35.029  -4.288  12.709  1.00  0.00    -0.038 SA
ENDROOT
BRANCH   1   8
HETATM    8  N5  UNL     1      37.202  -2.825  13.509  1.00  0.00    -0.302 N 
HETATM    9  C4  UNL     1      37.765  -2.574  14.790  1.00  0.00     0.271 C 
HETATM   10  O1  UNL     1      38.280  -3.502  15.476  1.00  0.00    -0.266 OA
ATOM     11  H5  UNL     1      37.260  -2.116  12.777  1.00  0.00     0.171 HD
BRANCH   9  12
HETATM   12  C2  UNL     1      37.734  -1.218  15.298  1.00  0.00     0.089 C 
HETATM   13  C1  UNL     1      38.081  -0.965  16.712  1.00  0.00     0.076 C 
HETATM   14  N1  UNL     1      37.409  -0.245  14.526  1.00  0.00    -0.298 N 
ATOM     15  H1  UNL     1      37.177  -0.461  13.557  1.00  0.00     0.187 HD
BRANCH  14  16
HETATM   16  N2  UNL     1      37.353   1.077  14.928  1.00  0.00    -0.276 N 
HETATM   17  C3  UNL     1      37.056   2.019  14.112  1.00  0.00     0.215 C 
HETATM   18  N3  UNL     1      37.016   3.351  14.584  1.00  0.00    -0.065 NA
HETATM   19  N4  UNL     1      36.775   1.713  12.762  1.00  0.00    -0.065 NA
ATOM     20  H2  UNL     1      37.555   1.308  15.901  1.00  0.00     0.189 HD
ENDBRANCH  14  16
ENDBRANCH   9  12
ENDBRANCH   1   8
BRANCH   6  21
HETATM   21  S1  UNL     1      33.852  -7.162  12.220  1.00  0.00     0.265 S 
HETATM   22  O2  UNL     1      33.549  -8.012  13.410  1.00  0.00    -0.200 OA
HETATM   23  O3  UNL     1      34.462  -8.003  11.129  1.00  0.00    -0.200 OA
BRANCH  21  24
HETATM   24  N7  UNL     1      32.453  -6.385  11.635  1.00  0.00    -0.324 N 
ATOM     25  H72 UNL     1      31.798  -5.882  12.234  1.00  0.00     0.169 HD
ATOM     26  H71 UNL     1      32.362  -6.489  10.625  1.00  0.00     0.169 HD
ENDBRANCH  21  24
ENDBRANCH   6  21
TORSDOF 5
ENDMDL
