MODEL 1
REMARK VINA RESULT: -7.790070579      0.000      0.000
REMARK  11 active torsions:
REMARK  status: ('A' for Active; 'I' for Inactive)
REMARK    1  A    between atoms: C2_2  and  N1_3 
REMARK    2  A    between atoms: C3_5  and  N2_6 
REMARK    3  A    between atoms: C3_5  and  O4_32 
REMARK    4  A    between atoms: N2_6  and  C4_8 
REMARK    5  A    between atoms: C4_8  and  C5_9 
REMARK    6  A    between atoms: C4_8  and  C12_16 
REMARK    7  A    between atoms: C5_9  and  C6_10 
REMARK       I    between atoms: C12_16  and  N3_18 
REMARK    8  A    between atoms: C16_22  and  C18_24 
REMARK    9  A    between atoms: C18_24  and  O2_25 
REMARK   10  A    between atoms: O2_25  and  C19_26 
REMARK       I    between atoms: C19_26  and  N4_28 
REMARK   11  A    between atoms: O4_32  and  C22_33 
ROOT
HETATM    1  C4  UNL     1      38.850  26.755  37.278  1.00  0.00     0.177 C 
ENDROOT
BRANCH   1   2
HETATM    2  N2  UNL     1      38.124  25.589  36.850  1.00  0.00    -0.343 N 
ATOM      3  H2  UNL     1      37.112  25.715  36.815  1.00  0.00     0.164 HD
BRANCH   2   4
HETATM    4  C3  UNL     1      38.552  24.325  36.475  1.00  0.00     0.216 C 
HETATM    5  N1  UNL     1      38.278  23.247  37.149  1.00  0.00    -0.357 N 
ATOM      6  H1  UNL     1      38.615  22.337  36.835  1.00  0.00     0.163 HD
BRANCH   5   7
HETATM    7  C2  UNL     1      37.476  23.368  38.368  1.00  0.00     0.118 C 
HETATM    8  C1  UNL     1      36.011  23.138  38.061  1.00  0.00     0.026 C 
ENDBRANCH   5   7
BRANCH   4   9
HETATM    9  O4  UNL     1      39.304  24.103  35.352  1.00  0.00    -0.312 OA
BRANCH   9  10
HETATM   10  C22 UNL     1      39.204  23.066  34.455  1.00  0.00     0.060 C 
HETATM   11  C23 UNL     1      40.154  21.951  34.895  1.00  0.00     0.046 C 
HETATM   12  C24 UNL     1      39.706  23.544  33.106  1.00  0.00     0.046 C 
HETATM   13  C25 UNL     1      37.864  22.450  34.262  1.00  0.00     0.046 C 
ENDBRANCH   9  10
ENDBRANCH   4   9
ENDBRANCH   2   4
ENDBRANCH   1   2
BRANCH   1  14
HETATM   14  C5  UNL     1      39.753  27.264  36.209  1.00  0.00     0.039 C 
BRANCH  14  15
HETATM   15  C6  UNL     1      39.659  28.688  35.815  1.00  0.00    -0.012 C 
HETATM   16  C7  UNL     1      40.743  29.556  36.405  1.00  0.00     0.005 C 
HETATM   17  C8  UNL     1      40.926  30.748  35.493  1.00  0.00     0.000 C 
HETATM   18  C9  UNL     1      39.651  31.110  34.748  1.00  0.00     0.000 C 
HETATM   19  C10 UNL     1      39.260  29.992  33.790  1.00  0.00     0.000 C 
HETATM   20  C11 UNL     1      39.903  28.737  34.290  1.00  0.00     0.005 C 
ENDBRANCH  14  15
ENDBRANCH   1  14
BRANCH   1  21
HETATM   21  C12 UNL     1      39.658  26.399  38.471  1.00  0.00     0.242 C 
HETATM   22  O1  UNL     1      40.221  25.259  38.519  1.00  0.00    -0.271 OA
HETATM   23  N3  UNL     1      39.860  27.252  39.604  1.00  0.00    -0.350 N 
HETATM   24  C13 UNL     1      39.206  28.549  39.679  1.00  0.00     0.126 C 
HETATM   25  C21 UNL     1      40.724  26.874  40.689  1.00  0.00     0.137 C 
HETATM   26  C14 UNL     1      38.546  28.781  41.023  1.00  0.00     0.021 C 
HETATM   27  C15 UNL     1      38.658  27.553  41.902  1.00  0.00     0.014 C 
HETATM   28  C16 UNL     1      40.121  27.153  42.074  1.00  0.00    -0.006 C 
HETATM   29  C17 UNL     1      40.861  28.238  42.759  1.00  0.00     0.019 C 
BRANCH  28  30
HETATM   30  C18 UNL     1      40.120  25.858  42.807  1.00  0.00     0.191 C 
BRANCH  30  31
HETATM   31  O2  UNL     1      39.302  24.856  42.420  1.00  0.00    -0.303 OA
BRANCH  31  32
HETATM   32  C19 UNL     1      39.402  23.700  41.762  1.00  0.00     0.360 C 
HETATM   33  O3  UNL     1      38.463  22.851  41.837  1.00  0.00    -0.239 OA
HETATM   34  N4  UNL     1      40.558  23.358  40.950  1.00  0.00    -0.341 N 
HETATM   35  C20 UNL     1      40.626  22.107  40.260  1.00  0.00     0.151 C 
ATOM     36  H4  UNL     1      41.330  24.019  40.870  1.00  0.00     0.164 HD
ENDBRANCH  31  32
ENDBRANCH  30  31
ENDBRANCH  28  30
ENDBRANCH   1  21
TORSDOF 11
ENDMDL
MODEL 2
REMARK VINA RESULT: -7.754216232      2.294      6.093
REMARK  11 active torsions:
REMARK  status: ('A' for Active; 'I' for Inactive)
REMARK    1  A    between atoms: C2_2  and  N1_3 
REMARK    2  A    between atoms: C3_5  and  N2_6 
REMARK    3  A    between atoms: C3_5  and  O4_32 
REMARK    4  A    between atoms: N2_6  and  C4_8 
REMARK    5  A    between atoms: C4_8  and  C5_9 
REMARK    6  A    between atoms: C4_8  and  C12_16 
REMARK    7  A    between atoms: C5_9  and  C6_10 
REMARK       I    between atoms: C12_16  and  N3_18 
REMARK    8  A    between atoms: C16_22  and  C18_24 
REMARK    9  A    between atoms: C18_24  and  O2_25 
REMARK   10  A    between atoms: O2_25  and  C19_26 
REMARK       I    between atoms: C19_26  and  N4_28 
REMARK   11  A    between atoms: O4_32  and  C22_33 
ROOT
HETATM    1  C4  UNL     1      38.726  26.836  38.236  1.00  0.00     0.177 C 
ENDROOT
BRANCH   1   2
HETATM    2  N2  UNL     1      39.721  27.344  37.330  1.00  0.00    -0.343 N 
ATOM      3  H2  UNL     1      40.613  27.568  37.770  1.00  0.00     0.164 HD
BRANCH   2   4
HETATM    4  C3  UNL     1      39.685  27.584  35.965  1.00  0.00     0.216 C 
HETATM    5  N1  UNL     1      40.008  26.695  35.073  1.00  0.00    -0.357 N 
ATOM      6  H1  UNL     1      39.966  26.916  34.078  1.00  0.00     0.163 HD
BRANCH   5   7
HETATM    7  C2  UNL     1      40.434  25.370  35.527  1.00  0.00     0.118 C 
HETATM    8  C1  UNL     1      40.463  24.398  34.365  1.00  0.00     0.026 C 
ENDBRANCH   5   7
BRANCH   4   9
HETATM    9  O4  UNL     1      39.298  28.787  35.437  1.00  0.00    -0.312 OA
BRANCH   9  10
HETATM   10  C22 UNL     1      40.084  29.745  34.842  1.00  0.00     0.060 C 
HETATM   11  C23 UNL     1      41.248  30.068  35.780  1.00  0.00     0.046 C 
HETATM   12  C24 UNL     1      39.275  31.022  34.715  1.00  0.00     0.046 C 
HETATM   13  C25 UNL     1      40.667  29.428  33.511  1.00  0.00     0.046 C 
ENDBRANCH   9  10
ENDBRANCH   4   9
ENDBRANCH   2   4
ENDBRANCH   1   2
BRANCH   1  14
HETATM   14  C5  UNL     1      38.523  27.748  39.397  1.00  0.00     0.039 C 
BRANCH  14  15
HETATM   15  C6  UNL     1      39.502  27.717  40.507  1.00  0.00    -0.012 C 
HETATM   16  C7  UNL     1      40.402  28.927  40.560  1.00  0.00     0.005 C 
HETATM   17  C8  UNL     1      40.871  29.090  41.988  1.00  0.00     0.000 C 
HETATM   18  C9  UNL     1      40.931  27.766  42.735  1.00  0.00     0.000 C 
HETATM   19  C10 UNL     1      39.533  27.179  42.889  1.00  0.00     0.000 C 
HETATM   20  C11 UNL     1      38.682  27.780  41.815  1.00  0.00     0.005 C 
ENDBRANCH  14  15
ENDBRANCH   1  14
BRANCH   1  21
HETATM   21  C12 UNL     1      39.167  25.509  38.730  1.00  0.00     0.242 C 
HETATM   22  O1  UNL     1      40.252  25.423  39.391  1.00  0.00    -0.271 OA
HETATM   23  N3  UNL     1      38.458  24.282  38.519  1.00  0.00    -0.350 N 
HETATM   24  C13 UNL     1      37.243  24.259  37.720  1.00  0.00     0.126 C 
HETATM   25  C21 UNL     1      38.903  23.043  39.097  1.00  0.00     0.137 C 
HETATM   26  C14 UNL     1      37.248  23.138  36.700  1.00  0.00     0.021 C 
HETATM   27  C15 UNL     1      38.568  22.397  36.716  1.00  0.00     0.014 C 
HETATM   28  C16 UNL     1      38.863  21.862  38.115  1.00  0.00    -0.006 C 
HETATM   29  C17 UNL     1      37.819  20.888  38.510  1.00  0.00     0.019 C 
BRANCH  28  30
HETATM   30  C18 UNL     1      40.238  21.298  38.070  1.00  0.00     0.191 C 
BRANCH  30  31
HETATM   31  O2  UNL     1      41.069  21.610  37.053  1.00  0.00    -0.303 OA
BRANCH  31  32
HETATM   32  C19 UNL     1      41.892  20.970  36.220  1.00  0.00     0.360 C 
HETATM   33  O3  UNL     1      41.463  19.981  35.550  1.00  0.00    -0.239 OA
HETATM   34  N4  UNL     1      43.281  21.356  36.040  1.00  0.00    -0.341 N 
HETATM   35  C20 UNL     1      44.130  20.643  35.136  1.00  0.00     0.151 C 
ATOM     36  H4  UNL     1      43.656  22.145  36.565  1.00  0.00     0.164 HD
ENDBRANCH  31  32
ENDBRANCH  30  31
ENDBRANCH  28  30
ENDBRANCH   1  21
TORSDOF 11
ENDMDL
MODEL 3
REMARK VINA RESULT: -7.696183515      0.957      2.212
REMARK  11 active torsions:
REMARK  status: ('A' for Active; 'I' for Inactive)
REMARK    1  A    between atoms: C2_2  and  N1_3 
REMARK    2  A    between atoms: C3_5  and  N2_6 
REMARK    3  A    between atoms: C3_5  and  O4_32 
REMARK    4  A    between atoms: N2_6  and  C4_8 
REMARK    5  A    between atoms: C4_8  and  C5_9 
REMARK    6  A    between atoms: C4_8  and  C12_16 
REMARK    7  A    between atoms: C5_9  and  C6_10 
REMARK       I    between atoms: C12_16  and  N3_18 
REMARK    8  A    between atoms: C16_22  and  C18_24 
REMARK    9  A    between atoms: C18_24  and  O2_25 
REMARK   10  A    between atoms: O2_25  and  C19_26 
REMARK       I    between atoms: C19_26  and  N4_28 
REMARK   11  A    between atoms: O4_32  and  C22_33 
ROOT
HETATM    1  C4  UNL     1      39.045  26.643  36.900  1.00  0.00     0.177 C 
ENDROOT
BRANCH   1   2
HETATM    2  N2  UNL     1      38.504  25.434  36.338  1.00  0.00    -0.343 N 
ATOM      3  H2  UNL     1      37.785  25.587  35.631  1.00  0.00     0.164 HD
BRANCH   2   4
HETATM    4  C3  UNL     1      38.786  24.099  36.584  1.00  0.00     0.216 C 
HETATM    5  N1  UNL     1      39.647  23.410  35.896  1.00  0.00    -0.357 N 
ATOM      6  H1  UNL     1      39.822  22.429  36.113  1.00  0.00     0.163 HD
BRANCH   5   7
HETATM    7  C2  UNL     1      40.360  24.072  34.802  1.00  0.00     0.118 C 
HETATM    8  C1  UNL     1      39.764  23.677  33.466  1.00  0.00     0.026 C 
ENDBRANCH   5   7
BRANCH   4   9
HETATM    9  O4  UNL     1      38.177  23.389  37.584  1.00  0.00    -0.312 OA
BRANCH   9  10
HETATM   10  C22 UNL     1      37.063  22.589  37.500  1.00  0.00     0.060 C 
HETATM   11  C23 UNL     1      35.911  23.283  38.229  1.00  0.00     0.046 C 
HETATM   12  C24 UNL     1      37.333  21.304  38.261  1.00  0.00     0.046 C 
HETATM   13  C25 UNL     1      36.572  22.232  36.142  1.00  0.00     0.046 C 
ENDBRANCH   9  10
ENDBRANCH   4   9
ENDBRANCH   2   4
ENDBRANCH   1   2
BRANCH   1  14
HETATM   14  C5  UNL     1      39.986  27.314  35.959  1.00  0.00     0.039 C 
BRANCH  14  15
HETATM   15  C6  UNL     1      39.768  28.740  35.630  1.00  0.00    -0.012 C 
HETATM   16  C7  UNL     1      40.788  29.669  36.242  1.00  0.00     0.005 C 
HETATM   17  C8  UNL     1      40.856  30.910  35.381  1.00  0.00     0.000 C 
HETATM   18  C9  UNL     1      39.541  31.197  34.672  1.00  0.00     0.000 C 
HETATM   19  C10 UNL     1      39.224  30.093  33.671  1.00  0.00     0.000 C 
HETATM   20  C11 UNL     1      39.977  28.875  34.106  1.00  0.00     0.005 C 
ENDBRANCH  14  15
ENDBRANCH   1  14
BRANCH   1  21
HETATM   21  C12 UNL     1      39.766  26.303  38.152  1.00  0.00     0.242 C 
HETATM   22  O1  UNL     1      40.333  25.168  38.251  1.00  0.00    -0.271 OA
HETATM   23  N3  UNL     1      39.879  27.168  39.289  1.00  0.00    -0.350 N 
HETATM   24  C13 UNL     1      39.212  28.460  39.305  1.00  0.00     0.126 C 
HETATM   25  C21 UNL     1      40.664  26.805  40.438  1.00  0.00     0.137 C 
HETATM   26  C14 UNL     1      38.453  28.698  40.595  1.00  0.00     0.021 C 
HETATM   27  C15 UNL     1      38.510  27.479  41.490  1.00  0.00     0.014 C 
HETATM   28  C16 UNL     1      39.959  27.091  41.773  1.00  0.00    -0.006 C 
HETATM   29  C17 UNL     1      40.639  28.188  42.499  1.00  0.00     0.019 C 
BRANCH  28  30
HETATM   30  C18 UNL     1      39.914  25.802  42.515  1.00  0.00     0.191 C 
BRANCH  30  31
HETATM   31  O2  UNL     1      40.561  24.718  42.037  1.00  0.00    -0.303 OA
BRANCH  31  32
HETATM   32  C19 UNL     1      40.251  23.581  41.412  1.00  0.00     0.360 C 
HETATM   33  O3  UNL     1      39.177  22.973  41.708  1.00  0.00    -0.239 OA
HETATM   34  N4  UNL     1      41.099  22.993  40.389  1.00  0.00    -0.341 N 
HETATM   35  C20 UNL     1      40.730  21.772  39.742  1.00  0.00     0.151 C 
ATOM     36  H4  UNL     1      41.969  23.457  40.129  1.00  0.00     0.164 HD
ENDBRANCH  31  32
ENDBRANCH  30  31
ENDBRANCH  28  30
ENDBRANCH   1  21
TORSDOF 11
ENDMDL
MODEL 4
REMARK VINA RESULT: -7.672400369      2.647      5.953
REMARK  11 active torsions:
REMARK  status: ('A' for Active; 'I' for Inactive)
REMARK    1  A    between atoms: C2_2  and  N1_3 
REMARK    2  A    between atoms: C3_5  and  N2_6 
REMARK    3  A    between atoms: C3_5  and  O4_32 
REMARK    4  A    between atoms: N2_6  and  C4_8 
REMARK    5  A    between atoms: C4_8  and  C5_9 
REMARK    6  A    between atoms: C4_8  and  C12_16 
REMARK    7  A    between atoms: C5_9  and  C6_10 
REMARK       I    between atoms: C12_16  and  N3_18 
REMARK    8  A    between atoms: C16_22  and  C18_24 
REMARK    9  A    between atoms: C18_24  and  O2_25 
REMARK   10  A    between atoms: O2_25  and  C19_26 
REMARK       I    between atoms: C19_26  and  N4_28 
REMARK   11  A    between atoms: O4_32  and  C22_33 
ROOT
HETATM    1  C4  UNL     1      39.584  24.617  39.178  1.00  0.00     0.177 C 
ENDROOT
BRANCH   1   2
HETATM    2  N2  UNL     1      39.969  25.095  37.877  1.00  0.00    -0.343 N 
ATOM      3  H2  UNL     1      40.970  25.253  37.768  1.00  0.00     0.164 HD
BRANCH   2   4
HETATM    4  C3  UNL     1      39.222  25.381  36.744  1.00  0.00     0.216 C 
HETATM    5  N1  UNL     1      38.748  26.562  36.478  1.00  0.00    -0.357 N 
ATOM      6  H1  UNL     1      38.204  26.726  35.631  1.00  0.00     0.163 HD
BRANCH   5   7
HETATM    7  C2  UNL     1      39.012  27.652  37.419  1.00  0.00     0.118 C 
HETATM    8  C1  UNL     1      40.119  28.545  36.897  1.00  0.00     0.026 C 
ENDBRANCH   5   7
BRANCH   4   9
HETATM    9  O4  UNL     1      38.922  24.435  35.800  1.00  0.00    -0.312 OA
BRANCH   9  10
HETATM   10  C22 UNL     1      39.783  23.775  34.957  1.00  0.00     0.060 C 
HETATM   11  C23 UNL     1      40.599  24.814  34.186  1.00  0.00     0.046 C 
HETATM   12  C24 UNL     1      38.965  23.026  33.922  1.00  0.00     0.046 C 
HETATM   13  C25 UNL     1      40.748  22.822  35.567  1.00  0.00     0.046 C 
ENDBRANCH   9  10
ENDBRANCH   4   9
ENDBRANCH   2   4
ENDBRANCH   1   2
BRANCH   1  14
HETATM   14  C5  UNL     1      40.406  25.235  40.256  1.00  0.00     0.039 C 
BRANCH  14  15
HETATM   15  C6  UNL     1      39.984  26.538  40.815  1.00  0.00    -0.012 C 
HETATM   16  C7  UNL     1      39.786  26.524  42.311  1.00  0.00     0.005 C 
HETATM   17  C8  UNL     1      39.983  27.936  42.815  1.00  0.00     0.000 C 
HETATM   18  C9  UNL     1      39.626  28.982  41.769  1.00  0.00     0.000 C 
HETATM   19  C10 UNL     1      40.580  28.895  40.584  1.00  0.00     0.000 C 
HETATM   20  C11 UNL     1      41.158  27.515  40.583  1.00  0.00     0.005 C 
ENDBRANCH  14  15
ENDBRANCH   1  14
BRANCH   1  21
HETATM   21  C12 UNL     1      39.761  23.144  39.213  1.00  0.00     0.242 C 
HETATM   22  O1  UNL     1      40.889  22.664  39.556  1.00  0.00    -0.271 OA
HETATM   23  N3  UNL     1      38.743  22.192  38.883  1.00  0.00    -0.350 N 
HETATM   24  C13 UNL     1      37.439  22.635  38.414  1.00  0.00     0.126 C 
HETATM   25  C21 UNL     1      38.960  20.776  39.018  1.00  0.00     0.137 C 
HETATM   26  C14 UNL     1      36.986  21.881  37.180  1.00  0.00     0.021 C 
HETATM   27  C15 UNL     1      38.062  20.929  36.701  1.00  0.00     0.014 C 
HETATM   28  C16 UNL     1      38.455  19.964  37.816  1.00  0.00    -0.006 C 
HETATM   29  C17 UNL     1      37.288  19.135  38.197  1.00  0.00     0.019 C 
BRANCH  28  30
HETATM   30  C18 UNL     1      39.617  19.186  37.310  1.00  0.00     0.191 C 
BRANCH  30  31
HETATM   31  O2  UNL     1      40.864  19.460  37.749  1.00  0.00    -0.303 OA
BRANCH  31  32
HETATM   32  C19 UNL     1      42.038  19.815  37.225  1.00  0.00     0.360 C 
HETATM   33  O3  UNL     1      42.954  20.262  37.980  1.00  0.00    -0.239 OA
HETATM   34  N4  UNL     1      42.325  19.715  35.804  1.00  0.00    -0.341 N 
HETATM   35  C20 UNL     1      43.597  20.106  35.282  1.00  0.00     0.151 C 
ATOM     36  H4  UNL     1      41.608  19.361  35.170  1.00  0.00     0.164 HD
ENDBRANCH  31  32
ENDBRANCH  30  31
ENDBRANCH  28  30
ENDBRANCH   1  21
TORSDOF 11
ENDMDL
MODEL 5
REMARK VINA RESULT: -7.454810784      2.714      6.446
REMARK  11 active torsions:
REMARK  status: ('A' for Active; 'I' for Inactive)
REMARK    1  A    between atoms: C2_2  and  N1_3 
REMARK    2  A    between atoms: C3_5  and  N2_6 
REMARK    3  A    between atoms: C3_5  and  O4_32 
REMARK    4  A    between atoms: N2_6  and  C4_8 
REMARK    5  A    between atoms: C4_8  and  C5_9 
REMARK    6  A    between atoms: C4_8  and  C12_16 
REMARK    7  A    between atoms: C5_9  and  C6_10 
REMARK       I    between atoms: C12_16  and  N3_18 
REMARK    8  A    between atoms: C16_22  and  C18_24 
REMARK    9  A    between atoms: C18_24  and  O2_25 
REMARK   10  A    between atoms: O2_25  and  C19_26 
REMARK       I    between atoms: C19_26  and  N4_28 
REMARK   11  A    between atoms: O4_32  and  C22_33 
ROOT
HETATM    1  C4  UNL     1      40.106  23.331  37.382  1.00  0.00     0.177 C 
ENDROOT
BRANCH   1   2
HETATM    2  N2  UNL     1      40.052  22.839  36.032  1.00  0.00    -0.343 N 
ATOM      3  H2  UNL     1      39.109  22.766  35.650  1.00  0.00     0.164 HD
BRANCH   2   4
HETATM    4  C3  UNL     1      41.052  22.446  35.155  1.00  0.00     0.216 C 
HETATM    5  N1  UNL     1      41.015  22.678  33.876  1.00  0.00    -0.357 N 
ATOM      6  H1  UNL     1      41.774  22.370  33.270  1.00  0.00     0.163 HD
BRANCH   5   7
HETATM    7  C2  UNL     1      39.860  23.390  33.326  1.00  0.00     0.118 C 
HETATM    8  C1  UNL     1      39.603  22.956  31.898  1.00  0.00     0.026 C 
ENDBRANCH   5   7
BRANCH   4   9
HETATM    9  O4  UNL     1      42.174  21.778  35.568  1.00  0.00    -0.312 OA
BRANCH   9  10
HETATM   10  C22 UNL     1      42.272  20.487  36.027  1.00  0.00     0.060 C 
HETATM   11  C23 UNL     1      42.726  20.525  37.488  1.00  0.00     0.046 C 
HETATM   12  C24 UNL     1      43.374  19.783  35.259  1.00  0.00     0.046 C 
HETATM   13  C25 UNL     1      41.050  19.640  35.969  1.00  0.00     0.046 C 
ENDBRANCH   9  10
ENDBRANCH   4   9
ENDBRANCH   2   4
ENDBRANCH   1   2
BRANCH   1  14
HETATM   14  C5  UNL     1      39.289  22.494  38.305  1.00  0.00     0.039 C 
BRANCH  14  15
HETATM   15  C6  UNL     1      38.724  21.222  37.802  1.00  0.00    -0.012 C 
HETATM   16  C7  UNL     1      38.649  20.134  38.845  1.00  0.00     0.005 C 
HETATM   17  C8  UNL     1      37.548  19.181  38.438  1.00  0.00     0.000 C 
HETATM   18  C9  UNL     1      37.346  19.137  36.931  1.00  0.00     0.000 C 
HETATM   19  C10 UNL     1      36.850  20.484  36.422  1.00  0.00     0.000 C 
HETATM   20  C11 UNL     1      37.253  21.513  37.431  1.00  0.00     0.005 C 
ENDBRANCH  14  15
ENDBRANCH   1  14
BRANCH   1  21
HETATM   21  C12 UNL     1      39.591  24.723  37.401  1.00  0.00     0.242 C 
HETATM   22  O1  UNL     1      39.304  25.292  36.300  1.00  0.00    -0.271 OA
HETATM   23  N3  UNL     1      39.387  25.501  38.586  1.00  0.00    -0.350 N 
HETATM   24  C13 UNL     1      39.747  24.970  39.892  1.00  0.00     0.126 C 
HETATM   25  C21 UNL     1      38.807  26.816  38.536  1.00  0.00     0.137 C 
HETATM   26  C14 UNL     1      40.542  25.962  40.716  1.00  0.00     0.021 C 
HETATM   27  C15 UNL     1      40.839  27.214  39.919  1.00  0.00     0.014 C 
HETATM   28  C16 UNL     1      39.544  27.842  39.410  1.00  0.00    -0.006 C 
HETATM   29  C17 UNL     1      38.701  28.253  40.557  1.00  0.00     0.019 C 
BRANCH  28  30
HETATM   30  C18 UNL     1      39.941  28.960  38.513  1.00  0.00     0.191 C 
BRANCH  30  31
HETATM   31  O2  UNL     1      40.504  28.703  37.313  1.00  0.00    -0.303 OA
BRANCH  31  32
HETATM   32  C19 UNL     1      40.565  29.276  36.110  1.00  0.00     0.360 C 
HETATM   33  O3  UNL     1      41.000  30.462  36.000  1.00  0.00    -0.239 OA
HETATM   34  N4  UNL     1      40.150  28.594  34.895  1.00  0.00    -0.341 N 
HETATM   35  C20 UNL     1      40.232  29.244  33.624  1.00  0.00     0.151 C 
ATOM     36  H4  UNL     1      39.794  27.640  34.950  1.00  0.00     0.164 HD
ENDBRANCH  31  32
ENDBRANCH  30  31
ENDBRANCH  28  30
ENDBRANCH   1  21
TORSDOF 11
ENDMDL
