MODEL 1
REMARK VINA RESULT: -7.007527228      0.000      0.000
REMARK  10 active torsions:
REMARK  status: ('A' for Active; 'I' for Inactive)
REMARK    1  A    between atoms: C3_3  and  C4_4 
REMARK    2  A    between atoms: C4_4  and  N1_7 
REMARK    3  A    between atoms: N1_7  and  C7_9 
REMARK    4  A    between atoms: C7_9  and  C8_13 
REMARK    5  A    between atoms: N3_14  and  C9_15 
REMARK    6  A    between atoms: C9_15  and  C10_16 
REMARK    7  A    between atoms: C10_16  and  C11_17 
REMARK    8  A    between atoms: C11_17  and  N4_18 
REMARK       I    between atoms: N5_24  and  C17_25 
REMARK    9  A    between atoms: C17_25  and  C18_27 
REMARK   10  A    between atoms: C19_28  and  C20_29 
ROOT
HETATM    1  C1  UNL     1      20.116 -12.125  19.858  1.00  0.00     0.112 C 
HETATM    2  C2  UNL     1      19.157 -12.750  20.788  1.00  0.00    -0.108 C 
HETATM    3  C3  UNL     1      18.379 -13.269  21.558  1.00  0.00    -0.076 C 
ENDROOT
BRANCH   3   4
HETATM    4  C4  UNL     1      17.459 -13.900  22.500  1.00  0.00     0.088 C 
HETATM    5  C5  UNL     1      17.267 -15.346  22.035  1.00  0.00     0.052 C 
HETATM    6  C6  UNL     1      18.069 -13.989  23.884  1.00  0.00     0.052 C 
BRANCH   4   7
HETATM    7  N1  UNL     1      16.220 -13.188  22.488  1.00  0.00    -0.357 N 
ATOM      8  H1  UNL     1      16.173 -12.286  22.962  1.00  0.00     0.162 HD
BRANCH   7   9
HETATM    9  C7  UNL     1      15.042 -13.682  21.841  1.00  0.00     0.116 C 
HETATM   10  N2  UNL     1      14.420 -14.632  22.495  1.00  0.00    -0.386 N 
ATOM     11  H22 UNL     1      14.773 -14.972  23.389  1.00  0.00     0.157 HD
ATOM     12  H21 UNL     1      13.581 -14.984  22.034  1.00  0.00     0.157 HD
BRANCH   9  13
HETATM   13  C8  UNL     1      14.537 -13.198  20.564  1.00  0.00     0.261 C 
HETATM   14  N3  UNL     1      14.968 -13.838  19.387  1.00  0.00    -0.344 N 
HETATM   15  C15 UNL     1      15.491 -12.845  18.547  1.00  0.00     0.085 C 
HETATM   16  C16 UNL     1      15.887 -11.671  19.415  1.00  0.00     0.173 C 
HETATM   17  N5  UNL     1      14.852 -11.777  20.448  1.00  0.00    -0.315 N 
HETATM   18  C17 UNL     1      14.312 -10.696  21.144  1.00  0.00     0.245 C 
HETATM   19  O1  UNL     1      14.718  -9.523  20.907  1.00  0.00    -0.268 OA
BRANCH  14  20
HETATM   20  C9  UNL     1      15.590 -15.083  19.451  1.00  0.00     0.067 C 
BRANCH  20  21
HETATM   21  C10 UNL     1      14.892 -16.232  18.807  1.00  0.00     0.072 C 
BRANCH  21  22
HETATM   22  C11 UNL     1      13.959 -16.963  19.753  1.00  0.00     0.241 C 
BRANCH  22  23
HETATM   23  N4  UNL     1      12.570 -16.773  19.380  1.00  0.00    -0.078 N 
HETATM   24  C12 UNL     1      11.926 -18.077  19.522  1.00  0.00     0.271 C 
HETATM   25  C13 UNL     1      12.484 -16.328  17.993  1.00  0.00     0.271 C 
HETATM   26  C14 UNL     1      11.873 -15.877  20.272  1.00  0.00     0.271 C 
ENDBRANCH  22  23
ENDBRANCH  21  22
ENDBRANCH  20  21
ENDBRANCH  14  20
BRANCH  18  27
HETATM   27  C18 UNL     1      13.277 -10.892  22.151  1.00  0.00     0.074 C 
HETATM   28  C19 UNL     1      12.550  -9.877  22.575  1.00  0.00     0.005 C 
BRANCH  28  29
HETATM   29  C20 UNL     1      11.512 -10.054  23.581  1.00  0.00    -0.004 C 
HETATM   30  C21 UNL     1      11.217  -9.094  24.433  1.00  0.00    -0.031 C 
HETATM   31  C22 UNL     1      11.900  -7.786  24.442  1.00  0.00     0.036 C 
ENDBRANCH  28  29
ENDBRANCH  18  27
ENDBRANCH   9  13
ENDBRANCH   7   9
ENDBRANCH   4   7
ENDBRANCH   3   4
TORSDOF 10
ENDMDL
MODEL 2
REMARK VINA RESULT: -6.958471062      1.234      2.001
REMARK  10 active torsions:
REMARK  status: ('A' for Active; 'I' for Inactive)
REMARK    1  A    between atoms: C3_3  and  C4_4 
REMARK    2  A    between atoms: C4_4  and  N1_7 
REMARK    3  A    between atoms: N1_7  and  C7_9 
REMARK    4  A    between atoms: C7_9  and  C8_13 
REMARK    5  A    between atoms: N3_14  and  C9_15 
REMARK    6  A    between atoms: C9_15  and  C10_16 
REMARK    7  A    between atoms: C10_16  and  C11_17 
REMARK    8  A    between atoms: C11_17  and  N4_18 
REMARK       I    between atoms: N5_24  and  C17_25 
REMARK    9  A    between atoms: C17_25  and  C18_27 
REMARK   10  A    between atoms: C19_28  and  C20_29 
ROOT
HETATM    1  C1  UNL     1      19.188 -13.659  25.307  1.00  0.00     0.112 C 
HETATM    2  C2  UNL     1      18.252 -13.908  24.194  1.00  0.00    -0.108 C 
HETATM    3  C3  UNL     1      17.475 -14.113  23.289  1.00  0.00    -0.076 C 
ENDROOT
BRANCH   3   4
HETATM    4  C4  UNL     1      16.520 -14.358  22.212  1.00  0.00     0.088 C 
HETATM    5  C5  UNL     1      17.260 -14.110  20.894  1.00  0.00     0.052 C 
HETATM    6  C6  UNL     1      16.094 -15.811  22.178  1.00  0.00     0.052 C 
BRANCH   4   7
HETATM    7  N1  UNL     1      15.416 -13.462  22.357  1.00  0.00    -0.357 N 
ATOM      8  H1  UNL     1      15.557 -12.596  22.877  1.00  0.00     0.162 HD
BRANCH   7   9
HETATM    9  C7  UNL     1      14.120 -13.724  21.805  1.00  0.00     0.116 C 
HETATM   10  N2  UNL     1      13.381 -14.541  22.514  1.00  0.00    -0.386 N 
ATOM     11  H22 UNL     1      13.730 -14.943  23.384  1.00  0.00     0.157 HD
ATOM     12  H21 UNL     1      12.459 -14.728  22.122  1.00  0.00     0.157 HD
BRANCH   9  13
HETATM   13  C8  UNL     1      13.621 -13.152  20.563  1.00  0.00     0.261 C 
HETATM   14  N3  UNL     1      13.858 -13.846  19.361  1.00  0.00    -0.344 N 
HETATM   15  C15 UNL     1      14.485 -12.949  18.485  1.00  0.00     0.085 C 
HETATM   16  C16 UNL     1      15.131 -11.866  19.322  1.00  0.00     0.173 C 
HETATM   17  N5  UNL     1      14.164 -11.803  20.422  1.00  0.00    -0.315 N 
HETATM   18  C17 UNL     1      13.863 -10.652  21.148  1.00  0.00     0.245 C 
HETATM   19  O1  UNL     1      14.444  -9.563  20.882  1.00  0.00    -0.268 OA
BRANCH  14  20
HETATM   20  C9  UNL     1      14.263 -15.178  19.388  1.00  0.00     0.067 C 
BRANCH  20  21
HETATM   21  C10 UNL     1      13.236 -16.213  19.079  1.00  0.00     0.072 C 
BRANCH  21  22
HETATM   22  C11 UNL     1      13.277 -17.391  20.034  1.00  0.00     0.241 C 
BRANCH  22  23
HETATM   23  N4  UNL     1      11.948 -17.909  20.294  1.00  0.00    -0.078 N 
HETATM   24  C12 UNL     1      11.114 -16.753  20.616  1.00  0.00     0.271 C 
HETATM   25  C13 UNL     1      11.984 -18.824  21.430  1.00  0.00     0.271 C 
HETATM   26  C14 UNL     1      11.355 -18.526  19.131  1.00  0.00     0.271 C 
ENDBRANCH  22  23
ENDBRANCH  21  22
ENDBRANCH  20  21
ENDBRANCH  14  20
BRANCH  18  27
HETATM   27  C18 UNL     1      12.877 -10.678  22.223  1.00  0.00     0.074 C 
HETATM   28  C19 UNL     1      12.429  -9.557  22.752  1.00  0.00     0.005 C 
BRANCH  28  29
HETATM   29  C20 UNL     1      11.446  -9.565  23.826  1.00  0.00    -0.004 C 
HETATM   30  C21 UNL     1      11.301  -8.527  24.625  1.00  0.00    -0.031 C 
HETATM   31  C22 UNL     1      12.105  -7.296  24.502  1.00  0.00     0.036 C 
ENDBRANCH  28  29
ENDBRANCH  18  27
ENDBRANCH   9  13
ENDBRANCH   7   9
ENDBRANCH   4   7
ENDBRANCH   3   4
TORSDOF 10
ENDMDL
MODEL 3
REMARK VINA RESULT: -6.763916419      2.480      6.481
REMARK  10 active torsions:
REMARK  status: ('A' for Active; 'I' for Inactive)
REMARK    1  A    between atoms: C3_3  and  C4_4 
REMARK    2  A    between atoms: C4_4  and  N1_7 
REMARK    3  A    between atoms: N1_7  and  C7_9 
REMARK    4  A    between atoms: C7_9  and  C8_13 
REMARK    5  A    between atoms: N3_14  and  C9_15 
REMARK    6  A    between atoms: C9_15  and  C10_16 
REMARK    7  A    between atoms: C10_16  and  C11_17 
REMARK    8  A    between atoms: C11_17  and  N4_18 
REMARK       I    between atoms: N5_24  and  C17_25 
REMARK    9  A    between atoms: C17_25  and  C18_27 
REMARK   10  A    between atoms: C19_28  and  C20_29 
ROOT
HETATM    1  C1  UNL     1      11.495  -9.472  23.984  1.00  0.00     0.112 C 
HETATM    2  C2  UNL     1      12.125 -10.257  22.906  1.00  0.00    -0.108 C 
HETATM    3  C3  UNL     1      12.632 -10.903  22.016  1.00  0.00    -0.076 C 
ENDROOT
BRANCH   3   4
HETATM    4  C4  UNL     1      13.224 -11.679  20.930  1.00  0.00     0.088 C 
HETATM    5  C5  UNL     1      12.295 -12.871  20.677  1.00  0.00     0.052 C 
HETATM    6  C6  UNL     1      13.239 -10.888  19.637  1.00  0.00     0.052 C 
BRANCH   4   7
HETATM    7  N1  UNL     1      14.525 -12.117  21.325  1.00  0.00    -0.357 N 
ATOM      8  H1  UNL     1      14.708 -12.265  22.318  1.00  0.00     0.162 HD
BRANCH   7   9
HETATM    9  C7  UNL     1      15.585 -12.357  20.392  1.00  0.00     0.116 C 
HETATM   10  N2  UNL     1      16.204 -11.278  19.982  1.00  0.00    -0.386 N 
ATOM     11  H22 UNL     1      15.928 -10.355  20.317  1.00  0.00     0.157 HD
ATOM     12  H21 UNL     1      16.959 -11.449  19.318  1.00  0.00     0.157 HD
BRANCH   9  13
HETATM   13  C8  UNL     1      15.979 -13.674  19.912  1.00  0.00     0.261 C 
HETATM   14  N3  UNL     1      15.318 -14.203  18.788  1.00  0.00    -0.344 N 
HETATM   15  C15 UNL     1      14.826 -15.463  19.155  1.00  0.00     0.085 C 
HETATM   16  C16 UNL     1      14.704 -15.487  20.663  1.00  0.00     0.173 C 
HETATM   17  N5  UNL     1      15.842 -14.629  21.009  1.00  0.00    -0.315 N 
HETATM   18  C17 UNL     1      16.604 -14.752  22.169  1.00  0.00     0.245 C 
HETATM   19  O1  UNL     1      16.330 -15.648  23.016  1.00  0.00    -0.268 OA
BRANCH  14  20
HETATM   20  C9  UNL     1      14.551 -13.376  17.970  1.00  0.00     0.067 C 
BRANCH  20  21
HETATM   21  C10 UNL     1      15.179 -12.885  16.710  1.00  0.00     0.072 C 
BRANCH  21  22
HETATM   22  C11 UNL     1      14.882 -11.424  16.433  1.00  0.00     0.241 C 
BRANCH  22  23
HETATM   23  N4  UNL     1      15.712 -10.909  15.361  1.00  0.00    -0.078 N 
HETATM   24  C12 UNL     1      17.049 -10.739  15.925  1.00  0.00     0.271 C 
HETATM   25  C13 UNL     1      15.198  -9.620  14.910  1.00  0.00     0.271 C 
HETATM   26  C14 UNL     1      15.849 -11.841  14.267  1.00  0.00     0.271 C 
ENDBRANCH  22  23
ENDBRANCH  21  22
ENDBRANCH  20  21
ENDBRANCH  14  20
BRANCH  18  27
HETATM   27  C18 UNL     1      17.727 -13.859  22.429  1.00  0.00     0.074 C 
HETATM   28  C19 UNL     1      18.900 -14.071  21.865  1.00  0.00     0.005 C 
BRANCH  28  29
HETATM   29  C20 UNL     1      20.032 -13.190  22.114  1.00  0.00    -0.004 C 
HETATM   30  C21 UNL     1      20.501 -12.399  21.170  1.00  0.00    -0.031 C 
HETATM   31  C22 UNL     1      19.931 -12.341  19.810  1.00  0.00     0.036 C 
ENDBRANCH  28  29
ENDBRANCH  18  27
ENDBRANCH   9  13
ENDBRANCH   7   9
ENDBRANCH   4   7
ENDBRANCH   3   4
TORSDOF 10
ENDMDL
MODEL 4
REMARK VINA RESULT: -6.702284606      2.437      6.228
REMARK  10 active torsions:
REMARK  status: ('A' for Active; 'I' for Inactive)
REMARK    1  A    between atoms: C3_3  and  C4_4 
REMARK    2  A    between atoms: C4_4  and  N1_7 
REMARK    3  A    between atoms: N1_7  and  C7_9 
REMARK    4  A    between atoms: C7_9  and  C8_13 
REMARK    5  A    between atoms: N3_14  and  C9_15 
REMARK    6  A    between atoms: C9_15  and  C10_16 
REMARK    7  A    between atoms: C10_16  and  C11_17 
REMARK    8  A    between atoms: C11_17  and  N4_18 
REMARK       I    between atoms: N5_24  and  C17_25 
REMARK    9  A    between atoms: C17_25  and  C18_27 
REMARK   10  A    between atoms: C19_28  and  C20_29 
ROOT
HETATM    1  C1  UNL     1      14.843 -12.697  17.513  1.00  0.00     0.112 C 
HETATM    2  C2  UNL     1      15.216 -13.725  18.503  1.00  0.00    -0.108 C 
HETATM    3  C3  UNL     1      15.515 -14.577  19.310  1.00  0.00    -0.076 C 
ENDROOT
BRANCH   3   4
HETATM    4  C4  UNL     1      15.867 -15.621  20.269  1.00  0.00     0.088 C 
HETATM    5  C5  UNL     1      14.679 -15.768  21.223  1.00  0.00     0.052 C 
HETATM    6  C6  UNL     1      16.014 -16.965  19.585  1.00  0.00     0.052 C 
BRANCH   4   7
HETATM    7  N1  UNL     1      17.046 -15.228  20.973  1.00  0.00    -0.357 N 
ATOM      8  H1  UNL     1      17.952 -15.529  20.612  1.00  0.00     0.162 HD
BRANCH   7   9
HETATM    9  C7  UNL     1      17.016 -14.432  22.163  1.00  0.00     0.116 C 
HETATM   10  N2  UNL     1      16.684 -15.086  23.248  1.00  0.00    -0.386 N 
ATOM     11  H22 UNL     1      16.469 -16.082  23.215  1.00  0.00     0.157 HD
ATOM     12  H21 UNL     1      16.663 -14.519  24.095  1.00  0.00     0.157 HD
BRANCH   9  13
HETATM   13  C8  UNL     1      17.323 -13.009  22.211  1.00  0.00     0.261 C 
HETATM   14  N3  UNL     1      16.304 -12.092  21.895  1.00  0.00    -0.344 N 
HETATM   15  C15 UNL     1      16.800 -11.258  20.883  1.00  0.00     0.085 C 
HETATM   16  C16 UNL     1      17.923 -11.997  20.188  1.00  0.00     0.173 C 
HETATM   17  N5  UNL     1      18.458 -12.748  21.329  1.00  0.00    -0.315 N 
HETATM   18  C17 UNL     1      19.795 -13.107  21.485  1.00  0.00     0.245 C 
HETATM   19  O1  UNL     1      20.643 -12.793  20.603  1.00  0.00    -0.268 OA
BRANCH  14  20
HETATM   20  C9  UNL     1      14.974 -12.506  21.855  1.00  0.00     0.067 C 
BRANCH  20  21
HETATM   21  C10 UNL     1      13.998 -11.611  21.169  1.00  0.00     0.072 C 
BRANCH  21  22
HETATM   22  C11 UNL     1      13.737 -10.327  21.932  1.00  0.00     0.241 C 
BRANCH  22  23
HETATM   23  N4  UNL     1      12.320 -10.023  21.990  1.00  0.00    -0.078 N 
HETATM   24  C12 UNL     1      12.120  -9.234  23.203  1.00  0.00     0.271 C 
HETATM   25  C13 UNL     1      11.549 -11.260  22.072  1.00  0.00     0.271 C 
HETATM   26  C14 UNL     1      11.884  -9.195  20.891  1.00  0.00     0.271 C 
ENDBRANCH  22  23
ENDBRANCH  21  22
ENDBRANCH  20  21
ENDBRANCH  14  20
BRANCH  18  27
HETATM   27  C18 UNL     1      20.243 -13.847  22.659  1.00  0.00     0.074 C 
HETATM   28  C19 UNL     1      21.171 -13.352  23.453  1.00  0.00     0.005 C 
BRANCH  28  29
HETATM   29  C20 UNL     1      21.631 -14.078  24.629  1.00  0.00    -0.004 C 
HETATM   30  C21 UNL     1      21.462 -13.588  25.840  1.00  0.00    -0.031 C 
HETATM   31  C22 UNL     1      20.810 -12.291  26.102  1.00  0.00     0.036 C 
ENDBRANCH  28  29
ENDBRANCH  18  27
ENDBRANCH   9  13
ENDBRANCH   7   9
ENDBRANCH   4   7
ENDBRANCH   3   4
TORSDOF 10
ENDMDL
MODEL 5
REMARK VINA RESULT: -6.695253128      0.707      1.064
REMARK  10 active torsions:
REMARK  status: ('A' for Active; 'I' for Inactive)
REMARK    1  A    between atoms: C3_3  and  C4_4 
REMARK    2  A    between atoms: C4_4  and  N1_7 
REMARK    3  A    between atoms: N1_7  and  C7_9 
REMARK    4  A    between atoms: C7_9  and  C8_13 
REMARK    5  A    between atoms: N3_14  and  C9_15 
REMARK    6  A    between atoms: C9_15  and  C10_16 
REMARK    7  A    between atoms: C10_16  and  C11_17 
REMARK    8  A    between atoms: C11_17  and  N4_18 
REMARK       I    between atoms: N5_24  and  C17_25 
REMARK    9  A    between atoms: C17_25  and  C18_27 
REMARK   10  A    between atoms: C19_28  and  C20_29 
ROOT
HETATM    1  C1  UNL     1      20.492 -11.758  19.856  1.00  0.00     0.112 C 
HETATM    2  C2  UNL     1      19.398 -12.412  20.598  1.00  0.00    -0.108 C 
HETATM    3  C3  UNL     1      18.506 -12.947  21.218  1.00  0.00    -0.076 C 
ENDROOT
BRANCH   3   4
HETATM    4  C4  UNL     1      17.437 -13.582  21.985  1.00  0.00     0.088 C 
HETATM    5  C5  UNL     1      17.345 -15.033  21.505  1.00  0.00     0.052 C 
HETATM    6  C6  UNL     1      17.791 -13.657  23.457  1.00  0.00     0.052 C 
BRANCH   4   7
HETATM    7  N1  UNL     1      16.214 -12.883  21.746  1.00  0.00    -0.357 N 
ATOM      8  H1  UNL     1      16.234 -11.863  21.718  1.00  0.00     0.162 HD
BRANCH   7   9
HETATM    9  C7  UNL     1      14.962 -13.548  21.543  1.00  0.00     0.116 C 
HETATM   10  N2  UNL     1      14.633 -14.390  22.491  1.00  0.00    -0.386 N 
ATOM     11  H22 UNL     1      15.242 -14.539  23.295  1.00  0.00     0.157 HD
ATOM     12  H21 UNL     1      13.741 -14.864  22.347  1.00  0.00     0.157 HD
BRANCH   9  13
HETATM   13  C8  UNL     1      14.092 -13.336  20.395  1.00  0.00     0.261 C 
HETATM   14  N3  UNL     1      14.333 -14.079  19.224  1.00  0.00    -0.344 N 
HETATM   15  C15 UNL     1      14.462 -13.160  18.173  1.00  0.00     0.085 C 
HETATM   16  C16 UNL     1      14.845 -11.825  18.775  1.00  0.00     0.173 C 
HETATM   17  N5  UNL     1      14.120 -11.918  20.046  1.00  0.00    -0.315 N 
HETATM   18  C17 UNL     1      13.584 -10.831  20.734  1.00  0.00     0.245 C 
HETATM   19  O1  UNL     1      13.713  -9.662  20.273  1.00  0.00    -0.268 OA
BRANCH  14  20
HETATM   20  C9  UNL     1      15.158 -15.201  19.262  1.00  0.00     0.067 C 
BRANCH  20  21
HETATM   21  C10 UNL     1      14.544 -16.515  18.916  1.00  0.00     0.072 C 
BRANCH  21  22
HETATM   22  C11 UNL     1      13.950 -17.225  20.117  1.00  0.00     0.241 C 
BRANCH  22  23
HETATM   23  N4  UNL     1      12.510 -17.353  19.999  1.00  0.00    -0.078 N 
HETATM   24  C12 UNL     1      11.936 -16.318  20.856  1.00  0.00     0.271 C 
HETATM   25  C13 UNL     1      12.088 -18.670  20.464  1.00  0.00     0.271 C 
HETATM   26  C14 UNL     1      12.036 -17.081  18.663  1.00  0.00     0.271 C 
ENDBRANCH  22  23
ENDBRANCH  21  22
ENDBRANCH  20  21
ENDBRANCH  14  20
BRANCH  18  27
HETATM   27  C18 UNL     1      12.868 -11.016  21.991  1.00  0.00     0.074 C 
HETATM   28  C19 UNL     1      12.187 -10.024  22.529  1.00  0.00     0.005 C 
BRANCH  28  29
HETATM   29  C20 UNL     1      11.466 -10.191  23.784  1.00  0.00    -0.004 C 
HETATM   30  C21 UNL     1      11.342  -9.194  24.636  1.00  0.00    -0.031 C 
HETATM   31  C22 UNL     1      11.911  -7.854  24.398  1.00  0.00     0.036 C 
ENDBRANCH  28  29
ENDBRANCH  18  27
ENDBRANCH   9  13
ENDBRANCH   7   9
ENDBRANCH   4   7
ENDBRANCH   3   4
TORSDOF 10
ENDMDL
