MODEL 1
REMARK VINA RESULT: -6.406134835      0.000      0.000
REMARK  4 active torsions:
REMARK  status: ('A' for Active; 'I' for Inactive)
REMARK    1  A    between atoms: C6_10  and  C7_11 
REMARK    2  A    between atoms: C7_11  and  O5_12 
REMARK    3  A    between atoms: C7_11  and  C8_14 
REMARK    4  A    between atoms: C8_14  and  O6_15 
ROOT
HETATM    1  C1  UNL     1      -6.646   4.286  13.615  1.00  0.00     0.042 C 
HETATM    2  C2  UNL     1      -5.484   3.434  13.184  1.00  0.00     0.152 C 
HETATM    3  O1  UNL     1      -5.985   2.338  12.487  1.00  0.00    -0.375 OA
HETATM    4  C3  UNL     1      -5.489   2.280  11.184  1.00  0.00     0.163 A 
HETATM    5  C4  UNL     1      -5.186   0.901  10.689  1.00  0.00     0.165 A 
HETATM    6  O2  UNL     1      -4.743  -0.021  11.623  1.00  0.00    -0.349 OA
HETATM    7  C5  UNL     1      -3.727   0.797  12.139  1.00  0.00     0.306 A 
HETATM    8  O3  UNL     1      -3.983   1.137  13.443  1.00  0.00    -0.207 OA
HETATM    9  O4  UNL     1      -3.522   2.321  13.786  1.00  0.00    -0.228 OA
HETATM   10  C6  UNL     1      -4.593   3.030  14.322  1.00  0.00     0.219 C 
HETATM   11  C9  UNL     1      -4.098   1.835  11.134  1.00  0.00     0.107 A 
ENDROOT
BRANCH  10  12
HETATM   12  C7  UNL     1      -5.327   2.224  15.369  1.00  0.00     0.176 C 
BRANCH  12  13
HETATM   13  O5  UNL     1      -6.353   2.966  15.952  1.00  0.00    -0.391 OA
ATOM     14  H5  UNL     1      -6.009   3.683  16.471  1.00  0.00     0.210 HD
ENDBRANCH  12  13
BRANCH  12  15
HETATM   15  C8  UNL     1      -4.382   1.833  16.484  1.00  0.00     0.198 C 
BRANCH  15  16
HETATM   16  O6  UNL     1      -3.765   0.629  16.237  1.00  0.00    -0.398 OA
ATOM     17  H6  UNL     1      -3.905   0.008  16.941  1.00  0.00     0.209 HD
ENDBRANCH  15  16
ENDBRANCH  12  15
ENDBRANCH  10  12
TORSDOF 4
ENDMDL
MODEL 2
REMARK VINA RESULT: -6.298903718      1.633      4.289
REMARK  4 active torsions:
REMARK  status: ('A' for Active; 'I' for Inactive)
REMARK    1  A    between atoms: C6_10  and  C7_11 
REMARK    2  A    between atoms: C7_11  and  O5_12 
REMARK    3  A    between atoms: C7_11  and  C8_14 
REMARK    4  A    between atoms: C8_14  and  O6_15 
ROOT
HETATM    1  C1  UNL     1      -3.766   3.927  12.282  1.00  0.00     0.042 C 
HETATM    2  C2  UNL     1      -4.315   2.745  13.033  1.00  0.00     0.152 C 
HETATM    3  O1  UNL     1      -3.663   2.672  14.261  1.00  0.00    -0.375 OA
HETATM    4  C3  UNL     1      -4.555   2.762  15.329  1.00  0.00     0.163 A 
HETATM    5  C4  UNL     1      -4.232   1.877  16.494  1.00  0.00     0.165 A 
HETATM    6  O2  UNL     1      -3.632   0.661  16.213  1.00  0.00    -0.349 OA
HETATM    7  C5  UNL     1      -4.578   0.269  15.254  1.00  0.00     0.306 A 
HETATM    8  O3  UNL     1      -4.011   0.186  14.008  1.00  0.00    -0.207 OA
HETATM    9  O4  UNL     1      -4.838   0.470  13.025  1.00  0.00    -0.228 OA
HETATM   10  C6  UNL     1      -4.230   1.462  12.262  1.00  0.00     0.219 C 
HETATM   11  C9  UNL     1      -5.324   1.533  15.523  1.00  0.00     0.107 A 
ENDROOT
BRANCH  10  12
HETATM   12  C7  UNL     1      -2.805   1.097  11.907  1.00  0.00     0.176 C 
BRANCH  12  13
HETATM   13  O5  UNL     1      -1.980   2.221  11.907  1.00  0.00    -0.391 OA
ATOM     14  H5  UNL     1      -2.048   2.698  11.088  1.00  0.00     0.210 HD
ENDBRANCH  12  13
BRANCH  12  15
HETATM   15  C8  UNL     1      -2.748   0.512  10.514  1.00  0.00     0.198 C 
BRANCH  15  16
HETATM   16  O6  UNL     1      -3.938  -0.078  10.155  1.00  0.00    -0.398 OA
ATOM     17  H6  UNL     1      -4.657   0.212  10.704  1.00  0.00     0.209 HD
ENDBRANCH  15  16
ENDBRANCH  12  15
ENDBRANCH  10  12
TORSDOF 4
ENDMDL
MODEL 3
REMARK VINA RESULT: -6.283895356      1.324      1.474
REMARK  4 active torsions:
REMARK  status: ('A' for Active; 'I' for Inactive)
REMARK    1  A    between atoms: C6_10  and  C7_11 
REMARK    2  A    between atoms: C7_11  and  O5_12 
REMARK    3  A    between atoms: C7_11  and  C8_14 
REMARK    4  A    between atoms: C8_14  and  O6_15 
ROOT
HETATM    1  C1  UNL     1      -6.327   4.694  15.171  1.00  0.00     0.042 C 
HETATM    2  C2  UNL     1      -5.390   3.633  14.661  1.00  0.00     0.152 C 
HETATM    3  O1  UNL     1      -5.964   3.056  13.531  1.00  0.00    -0.375 OA
HETATM    4  C3  UNL     1      -5.149   3.196  12.407  1.00  0.00     0.163 A 
HETATM    5  C4  UNL     1      -5.130   2.009  11.494  1.00  0.00     0.165 A 
HETATM    6  O2  UNL     1      -5.267   0.762  12.079  1.00  0.00    -0.349 OA
HETATM    7  C5  UNL     1      -4.253   0.953  13.030  1.00  0.00     0.306 A 
HETATM    8  O3  UNL     1      -4.768   0.973  14.301  1.00  0.00    -0.207 OA
HETATM    9  O4  UNL     1      -4.103   1.743  15.135  1.00  0.00    -0.228 OA
HETATM   10  C6  UNL     1      -5.028   2.615  15.702  1.00  0.00     0.219 C 
HETATM   11  C9  UNL     1      -3.996   2.297  12.435  1.00  0.00     0.107 A 
ENDROOT
BRANCH  10  12
HETATM   12  C7  UNL     1      -6.237   1.876  16.231  1.00  0.00     0.176 C 
BRANCH  12  13
HETATM   13  O5  UNL     1      -7.111   2.741  16.888  1.00  0.00    -0.391 OA
ATOM     14  H5  UNL     1      -8.017   2.501  16.732  1.00  0.00     0.210 HD
ENDBRANCH  12  13
BRANCH  12  15
HETATM   15  C8  UNL     1      -5.811   0.833  17.240  1.00  0.00     0.198 C 
BRANCH  15  16
HETATM   16  O6  UNL     1      -5.624  -0.398  16.658  1.00  0.00    -0.398 OA
ATOM     17  H6  UNL     1      -5.636  -0.349  15.710  1.00  0.00     0.209 HD
ENDBRANCH  15  16
ENDBRANCH  12  15
ENDBRANCH  10  12
TORSDOF 4
ENDMDL
MODEL 4
REMARK VINA RESULT: -6.015652400      2.012      3.402
REMARK  4 active torsions:
REMARK  status: ('A' for Active; 'I' for Inactive)
REMARK    1  A    between atoms: C6_10  and  C7_11 
REMARK    2  A    between atoms: C7_11  and  O5_12 
REMARK    3  A    between atoms: C7_11  and  C8_14 
REMARK    4  A    between atoms: C8_14  and  O6_15 
ROOT
HETATM    1  C1  UNL     1      -4.121  -1.088  11.928  1.00  0.00     0.042 C 
HETATM    2  C2  UNL     1      -3.878   0.392  11.806  1.00  0.00     0.152 C 
HETATM    3  O1  UNL     1      -2.505   0.613  11.884  1.00  0.00    -0.375 OA
HETATM    4  C3  UNL     1      -2.014   1.241  10.739  1.00  0.00     0.163 A 
HETATM    5  C4  UNL     1      -0.951   2.264  10.991  1.00  0.00     0.165 A 
HETATM    6  O2  UNL     1      -1.035   2.981  12.172  1.00  0.00    -0.349 OA
HETATM    7  C5  UNL     1      -2.373   3.364  11.996  1.00  0.00     0.306 A 
HETATM    8  O3  UNL     1      -3.177   2.797  12.953  1.00  0.00    -0.207 OA
HETATM    9  O4  UNL     1      -4.401   2.546  12.541  1.00  0.00    -0.228 OA
HETATM   10  C6  UNL     1      -4.646   1.202  12.808  1.00  0.00     0.219 C 
HETATM   11  C9  UNL     1      -2.366   2.659  10.682  1.00  0.00     0.107 A 
ENDROOT
BRANCH  10  12
HETATM   12  C7  UNL     1      -4.290   0.843  14.233  1.00  0.00     0.176 C 
BRANCH  12  13
HETATM   13  O5  UNL     1      -4.868  -0.368  14.609  1.00  0.00    -0.391 OA
ATOM     14  H5  UNL     1      -5.560  -0.621  14.010  1.00  0.00     0.210 HD
ENDBRANCH  12  13
BRANCH  12  15
HETATM   15  C8  UNL     1      -4.818   1.895  15.183  1.00  0.00     0.198 C 
BRANCH  15  16
HETATM   16  O6  UNL     1      -3.819   2.718  15.646  1.00  0.00    -0.398 OA
ATOM     17  H6  UNL     1      -3.919   2.913  16.570  1.00  0.00     0.209 HD
ENDBRANCH  15  16
ENDBRANCH  12  15
ENDBRANCH  10  12
TORSDOF 4
ENDMDL
MODEL 5
REMARK VINA RESULT: -6.004134235      1.393      4.095
REMARK  4 active torsions:
REMARK  status: ('A' for Active; 'I' for Inactive)
REMARK    1  A    between atoms: C6_10  and  C7_11 
REMARK    2  A    between atoms: C7_11  and  O5_12 
REMARK    3  A    between atoms: C7_11  and  C8_14 
REMARK    4  A    between atoms: C8_14  and  O6_15 
ROOT
HETATM    1  C1  UNL     1      -5.457   4.419  12.959  1.00  0.00     0.042 C 
HETATM    2  C2  UNL     1      -5.399   3.021  13.511  1.00  0.00     0.152 C 
HETATM    3  O1  UNL     1      -4.666   3.053  14.694  1.00  0.00    -0.375 OA
HETATM    4  C3  UNL     1      -5.415   2.602  15.782  1.00  0.00     0.163 A 
HETATM    5  C4  UNL     1      -4.652   1.779  16.772  1.00  0.00     0.165 A 
HETATM    6  O2  UNL     1      -3.632   0.984  16.277  1.00  0.00    -0.349 OA
HETATM    7  C5  UNL     1      -4.414   0.373  15.286  1.00  0.00     0.306 A 
HETATM    8  O3  UNL     1      -3.978   0.718  14.032  1.00  0.00    -0.207 OA
HETATM    9  O4  UNL     1      -4.934   0.765  13.129  1.00  0.00    -0.228 OA
HETATM   10  C6  UNL     1      -4.861   2.020  12.532  1.00  0.00     0.219 C 
HETATM   11  C9  UNL     1      -5.587   1.151  15.781  1.00  0.00     0.107 A 
ENDROOT
BRANCH  10  12
HETATM   12  C7  UNL     1      -3.452   2.346  12.091  1.00  0.00     0.176 C 
BRANCH  12  13
HETATM   13  O5  UNL     1      -2.857   3.275  12.943  1.00  0.00    -0.391 OA
ATOM     14  H5  UNL     1      -2.949   4.159  12.608  1.00  0.00     0.210 HD
ENDBRANCH  12  13
BRANCH  12  15
HETATM   15  C8  UNL     1      -3.468   2.965  10.711  1.00  0.00     0.198 C 
BRANCH  15  16
HETATM   16  O6  UNL     1      -4.610   2.644  10.016  1.00  0.00    -0.398 OA
ATOM     17  H6  UNL     1      -4.814   3.290   9.350  1.00  0.00     0.209 HD
ENDBRANCH  15  16
ENDBRANCH  12  15
ENDBRANCH  10  12
TORSDOF 4
ENDMDL
