MODEL 1
REMARK VINA RESULT: -6.885313910      0.000      0.000
REMARK  3 active torsions:
REMARK  status: ('A' for Active; 'I' for Inactive)
REMARK    1  A    between atoms: C10_14  and  C11_15 
REMARK    2  A    between atoms: C11_15  and  C12_17 
REMARK    3  A    between atoms: C12_17  and  N1_18 
ROOT
HETATM    1  C1  UNL     1      -6.562   1.826  17.194  1.00  0.00     0.015 C 
HETATM    2  C2  UNL     1      -5.651   2.612  16.273  1.00  0.00     0.046 C 
HETATM    3  C3  UNL     1      -6.442   3.614  15.434  1.00  0.00     0.010 C 
HETATM    4  C4  UNL     1      -5.742   4.928  15.327  1.00  0.00     0.004 C 
HETATM    5  C5  UNL     1      -4.819   4.998  14.099  1.00  0.00     0.049 C 
HETATM    6  C6  UNL     1      -3.886   3.867  14.181  1.00  0.00     0.173 C 
HETATM    7  O1  UNL     1      -3.577   3.494  15.498  1.00  0.00    -0.219 OA
HETATM    8  O2  UNL     1      -3.482   2.180  15.510  1.00  0.00    -0.200 OA
HETATM    9  C7  UNL     1      -4.814   1.717  15.404  1.00  0.00     0.199 C 
HETATM   10  C8  UNL     1      -4.872   0.275  15.799  1.00  0.00     0.082 C 
HETATM   11  O3  UNL     1      -5.144   1.811  14.060  1.00  0.00    -0.319 OA
HETATM   12  C9  UNL     1      -4.368   2.696  13.357  1.00  0.00     0.304 C 
HETATM   13  O4  UNL     1      -3.031   2.350  13.180  1.00  0.00    -0.348 OA
HETATM   14  C10 UNL     1      -2.743   3.733  13.291  1.00  0.00     0.187 C 
ENDROOT
BRANCH  14  15
HETATM   15  C11 UNL     1      -2.711   4.351  11.953  1.00  0.00     0.140 C 
HETATM   16 CL1  UNL     1      -2.498   6.093  11.929  1.00  0.00    -0.120 Cl
BRANCH  15  17
HETATM   17  C12 UNL     1      -1.505   3.748  11.213  1.00  0.00     0.252 C 
BRANCH  17  18
HETATM   18  N1  UNL     1      -0.560   3.189  12.136  1.00  0.00    -0.078 N 
ATOM     19  H13 UNL     1      -0.940   2.372  12.614  1.00  0.00     0.274 HD
ATOM     20  H12 UNL     1       0.217   2.739  11.652  1.00  0.00     0.274 HD
ATOM     21  H11 UNL     1      -0.234   3.894  12.797  1.00  0.00     0.274 HD
ENDBRANCH  17  18
ENDBRANCH  15  17
ENDBRANCH  14  15
TORSDOF 3
ENDMDL
MODEL 2
REMARK VINA RESULT: -6.578526676      2.736      4.716
REMARK  3 active torsions:
REMARK  status: ('A' for Active; 'I' for Inactive)
REMARK    1  A    between atoms: C10_14  and  C11_15 
REMARK    2  A    between atoms: C11_15  and  C12_17 
REMARK    3  A    between atoms: C12_17  and  N1_18 
ROOT
HETATM    1  C1  UNL     1      -4.231   6.052  11.088  1.00  0.00     0.015 C 
HETATM    2  C2  UNL     1      -4.791   5.106  12.131  1.00  0.00     0.046 C 
HETATM    3  C3  UNL     1      -5.343   5.871  13.333  1.00  0.00     0.010 C 
HETATM    4  C4  UNL     1      -6.634   5.295  13.815  1.00  0.00     0.004 C 
HETATM    5  C5  UNL     1      -6.426   4.226  14.899  1.00  0.00     0.049 C 
HETATM    6  C6  UNL     1      -5.524   3.205  14.348  1.00  0.00     0.173 C 
HETATM    7  O1  UNL     1      -5.649   3.043  12.960  1.00  0.00    -0.219 OA
HETATM    8  O2  UNL     1      -4.438   2.822  12.491  1.00  0.00    -0.200 OA
HETATM    9  C7  UNL     1      -3.786   4.075  12.559  1.00  0.00     0.199 C 
HETATM   10  C8  UNL     1      -2.559   4.043  11.703  1.00  0.00     0.082 C 
HETATM   11  O3  UNL     1      -3.389   4.226  13.879  1.00  0.00    -0.319 OA
HETATM   12  C9  UNL     1      -4.094   3.453  14.765  1.00  0.00     0.304 C 
HETATM   13  O4  UNL     1      -3.897   2.077  14.685  1.00  0.00    -0.348 OA
HETATM   14  C10 UNL     1      -5.266   1.944  15.025  1.00  0.00     0.187 C 
ENDROOT
BRANCH  14  15
HETATM   15  C11 UNL     1      -5.412   1.791  16.485  1.00  0.00     0.140 C 
HETATM   16 CL1  UNL     1      -6.919   2.383  17.162  1.00  0.00    -0.120 Cl
BRANCH  15  17
HETATM   17  C12 UNL     1      -5.356   0.282  16.782  1.00  0.00     0.252 C 
BRANCH  17  18
HETATM   18  N1  UNL     1      -4.479  -0.390  15.869  1.00  0.00    -0.078 N 
ATOM     19  H13 UNL     1      -4.796  -0.298  14.904  1.00  0.00     0.274 HD
ATOM     20  H12 UNL     1      -3.583   0.091  15.784  1.00  0.00     0.274 HD
ATOM     21  H11 UNL     1      -4.356  -1.368  16.131  1.00  0.00     0.274 HD
ENDBRANCH  17  18
ENDBRANCH  15  17
ENDBRANCH  14  15
TORSDOF 3
ENDMDL
MODEL 3
REMARK VINA RESULT: -6.321979227      1.135      1.193
REMARK  3 active torsions:
REMARK  status: ('A' for Active; 'I' for Inactive)
REMARK    1  A    between atoms: C10_14  and  C11_15 
REMARK    2  A    between atoms: C11_15  and  C12_17 
REMARK    3  A    between atoms: C12_17  and  N1_18 
ROOT
HETATM    1  C1  UNL     1      -6.577   2.458  16.544  1.00  0.00     0.015 C 
HETATM    2  C2  UNL     1      -5.725   3.299  15.616  1.00  0.00     0.046 C 
HETATM    3  C3  UNL     1      -6.498   3.689  14.356  1.00  0.00     0.010 C 
HETATM    4  C4  UNL     1      -6.247   5.108  13.964  1.00  0.00     0.004 C 
HETATM    5  C5  UNL     1      -5.067   5.243  12.989  1.00  0.00     0.049 C 
HETATM    6  C6  UNL     1      -3.896   4.616  13.619  1.00  0.00     0.173 C 
HETATM    7  O1  UNL     1      -3.901   4.711  15.019  1.00  0.00    -0.219 OA
HETATM    8  O2  UNL     1      -3.407   3.580  15.479  1.00  0.00    -0.200 OA
HETATM    9  C7  UNL     1      -4.429   2.625  15.270  1.00  0.00     0.199 C 
HETATM   10  C8  UNL     1      -4.147   1.409  16.096  1.00  0.00     0.082 C 
HETATM   11  O3  UNL     1      -4.347   2.267  13.933  1.00  0.00    -0.319 OA
HETATM   12  C9  UNL     1      -3.714   3.194  13.146  1.00  0.00     0.304 C 
HETATM   13  O4  UNL     1      -2.348   3.364  13.359  1.00  0.00    -0.348 OA
HETATM   14  C10 UNL     1      -2.556   4.734  13.066  1.00  0.00     0.187 C 
ENDROOT
BRANCH  14  15
HETATM   15  C11 UNL     1      -2.316   4.986  11.633  1.00  0.00     0.140 C 
HETATM   16 CL1  UNL     1      -2.724   6.597  11.069  1.00  0.00    -0.120 Cl
BRANCH  15  17
HETATM   17  C12 UNL     1      -0.807   4.804  11.396  1.00  0.00     0.252 C 
BRANCH  17  18
HETATM   18  N1  UNL     1      -0.058   5.112  12.580  1.00  0.00    -0.078 N 
ATOM     19  H13 UNL     1       0.147   4.274  13.124  1.00  0.00     0.274 HD
ATOM     20  H12 UNL     1       0.897   5.392  12.359  1.00  0.00     0.274 HD
ATOM     21  H11 UNL     1      -0.536   5.816  13.142  1.00  0.00     0.274 HD
ENDBRANCH  17  18
ENDBRANCH  15  17
ENDBRANCH  14  15
TORSDOF 3
ENDMDL
MODEL 4
REMARK VINA RESULT: -6.154414372      2.961      4.874
REMARK  3 active torsions:
REMARK  status: ('A' for Active; 'I' for Inactive)
REMARK    1  A    between atoms: C10_14  and  C11_15 
REMARK    2  A    between atoms: C11_15  and  C12_17 
REMARK    3  A    between atoms: C12_17  and  N1_18 
ROOT
HETATM    1  C1  UNL     1      -2.743   5.923  11.596  1.00  0.00     0.015 C 
HETATM    2  C2  UNL     1      -3.620   5.086  12.504  1.00  0.00     0.046 C 
HETATM    3  C3  UNL     1      -3.991   5.850  13.774  1.00  0.00     0.010 C 
HETATM    4  C4  UNL     1      -5.421   5.643  14.153  1.00  0.00     0.004 C 
HETATM    5  C5  UNL     1      -5.604   4.452  15.107  1.00  0.00     0.049 C 
HETATM    6  C6  UNL     1      -5.015   3.271  14.461  1.00  0.00     0.173 C 
HETATM    7  O1  UNL     1      -5.100   3.302  13.061  1.00  0.00    -0.219 OA
HETATM    8  O2  UNL     1      -3.983   2.777  12.600  1.00  0.00    -0.200 OA
HETATM    9  C7  UNL     1      -2.994   3.760  12.832  1.00  0.00     0.199 C 
HETATM   10  C8  UNL     1      -1.783   3.450  12.009  1.00  0.00     0.082 C 
HETATM   11  O3  UNL     1      -2.649   3.644  14.170  1.00  0.00    -0.319 OA
HETATM   12  C9  UNL     1      -3.603   3.031  14.940  1.00  0.00     0.304 C 
HETATM   13  O4  UNL     1      -3.820   1.676  14.703  1.00  0.00    -0.348 OA
HETATM   14  C10 UNL     1      -5.184   1.927  14.990  1.00  0.00     0.187 C 
ENDROOT
BRANCH  14  15
HETATM   15  C11 UNL     1      -5.455   1.672  16.417  1.00  0.00     0.140 C 
HETATM   16 CL1  UNL     1      -7.079   2.057  16.960  1.00  0.00    -0.120 Cl
BRANCH  15  17
HETATM   17  C12 UNL     1      -5.258   0.163  16.644  1.00  0.00     0.252 C 
BRANCH  17  18
HETATM   18  N1  UNL     1      -6.028  -0.294  17.764  1.00  0.00    -0.078 N 
ATOM     19  H13 UNL     1      -5.434  -0.524  18.561  1.00  0.00     0.274 HD
ATOM     20  H12 UNL     1      -6.565   0.464  18.186  1.00  0.00     0.274 HD
ATOM     21  H11 UNL     1      -6.625  -1.078  17.503  1.00  0.00     0.274 HD
ENDBRANCH  17  18
ENDBRANCH  15  17
ENDBRANCH  14  15
TORSDOF 3
ENDMDL
MODEL 5
REMARK VINA RESULT: -5.900592572      3.148      5.109
REMARK  3 active torsions:
REMARK  status: ('A' for Active; 'I' for Inactive)
REMARK    1  A    between atoms: C10_14  and  C11_15 
REMARK    2  A    between atoms: C11_15  and  C12_17 
REMARK    3  A    between atoms: C12_17  and  N1_18 
ROOT
HETATM    1  C1  UNL     1      -4.002   7.365  12.358  1.00  0.00     0.015 C 
HETATM    2  C2  UNL     1      -4.171   6.233  13.351  1.00  0.00     0.046 C 
HETATM    3  C3  UNL     1      -3.061   5.194  13.201  1.00  0.00     0.010 C 
HETATM    4  C4  UNL     1      -2.562   4.716  14.525  1.00  0.00     0.004 C 
HETATM    5  C5  UNL     1      -3.322   3.476  15.022  1.00  0.00     0.049 C 
HETATM    6  C6  UNL     1      -4.752   3.813  15.047  1.00  0.00     0.173 C 
HETATM    7  O1  UNL     1      -5.000   5.168  15.316  1.00  0.00    -0.219 OA
HETATM    8  O2  UNL     1      -6.031   5.521  14.578  1.00  0.00    -0.200 OA
HETATM    9  C7  UNL     1      -5.528   5.595  13.258  1.00  0.00     0.199 C 
HETATM   10  C8  UNL     1      -6.490   6.357  12.402  1.00  0.00     0.082 C 
HETATM   11  O3  UNL     1      -5.478   4.289  12.796  1.00  0.00    -0.319 OA
HETATM   12  C9  UNL     1      -5.449   3.347  13.791  1.00  0.00     0.304 C 
HETATM   13  O4  UNL     1      -6.604   3.212  14.557  1.00  0.00    -0.348 OA
HETATM   14  C10 UNL     1      -5.748   2.944  15.653  1.00  0.00     0.187 C 
ENDROOT
BRANCH  14  15
HETATM   15  C11 UNL     1      -5.543   1.490  15.791  1.00  0.00     0.140 C 
HETATM   16 CL1  UNL     1      -3.954   0.999  16.350  1.00  0.00    -0.120 Cl
BRANCH  15  17
HETATM   17  C12 UNL     1      -6.554   0.996  16.842  1.00  0.00     0.252 C 
BRANCH  17  18
HETATM   18  N1  UNL     1      -6.055  -0.156  17.534  1.00  0.00    -0.078 N 
ATOM     19  H13 UNL     1      -5.115  -0.402  17.226  1.00  0.00     0.274 HD
ATOM     20  H12 UNL     1      -5.848   0.053  18.511  1.00  0.00     0.274 HD
ATOM     21  H11 UNL     1      -6.698  -0.943  17.445  1.00  0.00     0.274 HD
ENDBRANCH  17  18
ENDBRANCH  15  17
ENDBRANCH  14  15
TORSDOF 3
ENDMDL
