MODEL 1
REMARK VINA RESULT: -6.331503212      0.000      0.000
REMARK  3 active torsions:
REMARK  status: ('A' for Active; 'I' for Inactive)
REMARK    1  A    between atoms: N4_11  and  C5_12 
REMARK    2  A    between atoms: C5_12  and  C6_13 
REMARK    3  A    between atoms: C6_13  and  N5_14 
ROOT
HETATM    1  S1  UNL     1      -0.361   7.204  12.301  1.00  0.00    -0.039 SA
HETATM    2  C1  UNL     1      -1.002   5.784  12.792  1.00  0.00     0.194 A 
HETATM    3  N1  UNL     1      -0.636   4.536  12.467  1.00  0.00    -0.275 N 
ATOM      4  H1  UNL     1       0.131   4.289  11.841  1.00  0.00     0.189 HD
HETATM    5  N2  UNL     1      -1.420   3.684  13.081  1.00  0.00    -0.285 N 
ATOM      6  H2  UNL     1      -1.363   2.668  13.011  1.00  0.00     0.188 HD
HETATM    7  C2  UNL     1      -2.311   4.366  13.817  1.00  0.00     0.129 A 
HETATM    8  N3  UNL     1      -2.032   5.678  13.622  1.00  0.00    -0.308 N 
HETATM    9  C3  UNL     1      -2.932   6.576  14.358  1.00  0.00     0.163 C 
HETATM   10  C4  UNL     1      -4.320   5.966  14.096  1.00  0.00     0.293 C 
HETATM   11  N4  UNL     1      -4.420   4.834  14.983  1.00  0.00     0.098 N 
HETATM   12  C11 UNL     1      -3.389   3.882  14.680  1.00  0.00     0.350 C 
ENDROOT
BRANCH  11  13
HETATM   13  C5  UNL     1      -5.680   4.139  14.861  1.00  0.00     0.303 C 
BRANCH  13  14
HETATM   14  C6  UNL     1      -5.639   2.681  15.104  1.00  0.00     0.302 C 
BRANCH  14  15
HETATM   15  N5  UNL     1      -5.589   2.249  16.461  1.00  0.00     0.090 N 
HETATM   16  C7  UNL     1      -5.178   0.902  16.672  1.00  0.00     0.272 C 
HETATM   17  C8  UNL     1      -6.208   0.283  17.630  1.00  0.00     0.032 C 
HETATM   18  C9  UNL     1      -7.476   0.993  17.132  1.00  0.00     0.032 C 
HETATM   19  C10 UNL     1      -6.918   2.419  17.024  1.00  0.00     0.272 C 
ENDBRANCH  14  15
ENDBRANCH  13  14
ENDBRANCH  11  13
TORSDOF 3
ENDMDL
MODEL 2
REMARK VINA RESULT: -6.316607716      1.244      1.318
REMARK  3 active torsions:
REMARK  status: ('A' for Active; 'I' for Inactive)
REMARK    1  A    between atoms: N4_11  and  C5_12 
REMARK    2  A    between atoms: C5_12  and  C6_13 
REMARK    3  A    between atoms: C6_13  and  N5_14 
ROOT
HETATM    1  S1  UNL     1      -1.430   4.732  10.439  1.00  0.00    -0.039 SA
HETATM    2  C1  UNL     1      -1.719   4.494  12.029  1.00  0.00     0.194 A 
HETATM    3  N1  UNL     1      -0.984   3.823  12.927  1.00  0.00    -0.275 N 
ATOM      4  H1  UNL     1      -0.102   3.348  12.735  1.00  0.00     0.189 HD
HETATM    5  N2  UNL     1      -1.581   3.873  14.094  1.00  0.00    -0.285 N 
ATOM      6  H2  UNL     1      -1.239   3.444  14.954  1.00  0.00     0.188 HD
HETATM    7  C2  UNL     1      -2.716   4.580  13.971  1.00  0.00     0.129 A 
HETATM    8  N3  UNL     1      -2.782   4.959  12.672  1.00  0.00    -0.308 N 
HETATM    9  C3  UNL     1      -3.984   5.743  12.360  1.00  0.00     0.163 C 
HETATM   10  C4  UNL     1      -5.103   4.956  13.062  1.00  0.00     0.293 C 
HETATM   11  N4  UNL     1      -5.009   5.307  14.457  1.00  0.00     0.098 N 
HETATM   12  C11 UNL     1      -3.726   4.922  14.973  1.00  0.00     0.350 C 
ENDROOT
BRANCH  11  13
HETATM   13  C5  UNL     1      -6.003   4.644  15.268  1.00  0.00     0.303 C 
BRANCH  13  14
HETATM   14  C6  UNL     1      -5.981   3.166  15.233  1.00  0.00     0.302 C 
BRANCH  14  15
HETATM   15  N5  UNL     1      -5.723   2.490  16.460  1.00  0.00     0.090 N 
HETATM   16  C7  UNL     1      -5.254   1.149  16.348  1.00  0.00     0.272 C 
HETATM   17  C8  UNL     1      -6.117   0.310  17.302  1.00  0.00     0.032 C 
HETATM   18  C9  UNL     1      -7.461   1.035  17.132  1.00  0.00     0.032 C 
HETATM   19  C10 UNL     1      -6.959   2.482  17.225  1.00  0.00     0.272 C 
ENDBRANCH  14  15
ENDBRANCH  13  14
ENDBRANCH  11  13
TORSDOF 3
ENDMDL
MODEL 3
REMARK VINA RESULT: -6.123526572      1.703      1.986
REMARK  3 active torsions:
REMARK  status: ('A' for Active; 'I' for Inactive)
REMARK    1  A    between atoms: N4_11  and  C5_12 
REMARK    2  A    between atoms: C5_12  and  C6_13 
REMARK    3  A    between atoms: C6_13  and  N5_14 
ROOT
HETATM    1  S1  UNL     1      -0.673   4.745   9.671  1.00  0.00    -0.039 SA
HETATM    2  C1  UNL     1      -1.125   4.665  11.239  1.00  0.00     0.194 A 
HETATM    3  N1  UNL     1      -0.381   4.844  12.340  1.00  0.00    -0.275 N 
ATOM      4  H1  UNL     1       0.614   5.067  12.352  1.00  0.00     0.189 HD
HETATM    5  N2  UNL     1      -1.137   4.686  13.400  1.00  0.00    -0.285 N 
ATOM      6  H2  UNL     1      -0.826   4.766  14.368  1.00  0.00     0.188 HD
HETATM    7  C2  UNL     1      -2.388   4.402  13.003  1.00  0.00     0.129 A 
HETATM    8  N3  UNL     1      -2.358   4.394  11.648  1.00  0.00    -0.308 N 
HETATM    9  C3  UNL     1      -3.660   4.087  11.043  1.00  0.00     0.163 C 
HETATM   10  C4  UNL     1      -4.156   2.893  11.878  1.00  0.00     0.293 C 
HETATM   11  N4  UNL     1      -4.652   3.459  13.108  1.00  0.00     0.098 N 
HETATM   12  C11 UNL     1      -3.592   4.144  13.793  1.00  0.00     0.350 C 
ENDROOT
BRANCH  11  13
HETATM   13  C5  UNL     1      -5.160   2.459  14.017  1.00  0.00     0.303 C 
BRANCH  13  14
HETATM   14  C6  UNL     1      -5.961   2.967  15.151  1.00  0.00     0.302 C 
BRANCH  14  15
HETATM   15  N5  UNL     1      -5.715   2.389  16.431  1.00  0.00     0.090 N 
HETATM   16  C7  UNL     1      -5.228   1.050  16.428  1.00  0.00     0.272 C 
HETATM   17  C8  UNL     1      -6.097   0.274  17.430  1.00  0.00     0.032 C 
HETATM   18  C9  UNL     1      -7.447   0.967  17.184  1.00  0.00     0.032 C 
HETATM   19  C10 UNL     1      -6.963   2.424  17.175  1.00  0.00     0.272 C 
ENDBRANCH  14  15
ENDBRANCH  13  14
ENDBRANCH  11  13
TORSDOF 3
ENDMDL
MODEL 4
REMARK VINA RESULT: -6.112894424      3.048      6.302
REMARK  3 active torsions:
REMARK  status: ('A' for Active; 'I' for Inactive)
REMARK    1  A    between atoms: N4_11  and  C5_12 
REMARK    2  A    between atoms: C5_12  and  C6_13 
REMARK    3  A    between atoms: C6_13  and  N5_14 
ROOT
HETATM    1  S1  UNL     1      -6.099   0.640  17.856  1.00  0.00    -0.039 SA
HETATM    2  C1  UNL     1      -5.374   0.750  16.396  1.00  0.00     0.194 A 
HETATM    3  N1  UNL     1      -4.600  -0.148  15.770  1.00  0.00    -0.275 N 
ATOM      4  H1  UNL     1      -4.348  -1.067  16.134  1.00  0.00     0.189 HD
HETATM    5  N2  UNL     1      -4.220   0.343  14.616  1.00  0.00    -0.285 N 
ATOM      6  H2  UNL     1      -3.624  -0.130  13.937  1.00  0.00     0.188 HD
HETATM    7  C2  UNL     1      -4.742   1.572  14.473  1.00  0.00     0.129 A 
HETATM    8  N3  UNL     1      -5.460   1.806  15.598  1.00  0.00    -0.308 N 
HETATM    9  C3  UNL     1      -6.099   3.129  15.610  1.00  0.00     0.163 C 
HETATM   10  C4  UNL     1      -4.976   4.060  15.123  1.00  0.00     0.293 C 
HETATM   11  N4  UNL     1      -4.925   3.892  13.692  1.00  0.00     0.098 N 
HETATM   12  C11 UNL     1      -4.618   2.526  13.372  1.00  0.00     0.350 C 
ENDROOT
BRANCH  11  13
HETATM   13  C5  UNL     1      -3.908   4.707  13.071  1.00  0.00     0.303 C 
BRANCH  13  14
HETATM   14  C6  UNL     1      -3.852   6.117  13.512  1.00  0.00     0.302 C 
BRANCH  14  15
HETATM   15  N5  UNL     1      -2.703   6.522  14.251  1.00  0.00     0.090 N 
HETATM   16  C7  UNL     1      -2.949   7.352  15.383  1.00  0.00     0.272 C 
HETATM   17  C8  UNL     1      -1.974   8.534  15.270  1.00  0.00     0.032 C 
HETATM   18  C9  UNL     1      -1.964   8.709  13.743  1.00  0.00     0.032 C 
HETATM   19  C10 UNL     1      -1.824   7.235  13.340  1.00  0.00     0.272 C 
ENDBRANCH  14  15
ENDBRANCH  13  14
ENDBRANCH  11  13
TORSDOF 3
ENDMDL
MODEL 5
REMARK VINA RESULT: -5.966317693      3.646      6.412
REMARK  3 active torsions:
REMARK  status: ('A' for Active; 'I' for Inactive)
REMARK    1  A    between atoms: N4_11  and  C5_12 
REMARK    2  A    between atoms: C5_12  and  C6_13 
REMARK    3  A    between atoms: C6_13  and  N5_14 
ROOT
HETATM    1  S1  UNL     1      -6.087   0.992  17.881  1.00  0.00    -0.039 SA
HETATM    2  C1  UNL     1      -5.348   0.925  16.426  1.00  0.00     0.194 A 
HETATM    3  N1  UNL     1      -4.541  -0.026  15.933  1.00  0.00    -0.275 N 
ATOM      4  H1  UNL     1      -4.267  -0.880  16.420  1.00  0.00     0.189 HD
HETATM    5  N2  UNL     1      -4.161   0.315  14.726  1.00  0.00    -0.285 N 
ATOM      6  H2  UNL     1      -3.543  -0.227  14.123  1.00  0.00     0.188 HD
HETATM    7  C2  UNL     1      -4.716   1.497  14.414  1.00  0.00     0.129 A 
HETATM    8  N3  UNL     1      -5.454   1.860  15.490  1.00  0.00    -0.308 N 
HETATM    9  C3  UNL     1      -6.131   3.152  15.318  1.00  0.00     0.163 C 
HETATM   10  C4  UNL     1      -5.029   4.043  14.718  1.00  0.00     0.293 C 
HETATM   11  N4  UNL     1      -4.956   3.683  13.324  1.00  0.00     0.098 N 
HETATM   12  C11 UNL     1      -4.606   2.297  13.194  1.00  0.00     0.350 C 
ENDROOT
BRANCH  11  13
HETATM   13  C5  UNL     1      -3.955   4.437  12.606  1.00  0.00     0.303 C 
BRANCH  13  14
HETATM   14  C6  UNL     1      -4.326   4.864  11.240  1.00  0.00     0.302 C 
BRANCH  14  15
HETATM   15  N5  UNL     1      -4.589   6.251  11.042  1.00  0.00     0.090 N 
HETATM   16  C7  UNL     1      -5.504   6.849  11.955  1.00  0.00     0.272 C 
HETATM   17  C8  UNL     1      -6.516   7.629  11.101  1.00  0.00     0.032 C 
HETATM   18  C9  UNL     1      -6.609   6.684   9.893  1.00  0.00     0.032 C 
HETATM   19  C10 UNL     1      -5.113   6.410   9.695  1.00  0.00     0.272 C 
ENDBRANCH  14  15
ENDBRANCH  13  14
ENDBRANCH  11  13
TORSDOF 3
ENDMDL
