MODEL 1
REMARK VINA RESULT: -8.828627501      0.000      0.000
REMARK  7 active torsions:
REMARK  status: ('A' for Active; 'I' for Inactive)
REMARK    1  A    between atoms: C2_2  and  C5_5 
REMARK    2  A    between atoms: C6_10  and  N3_11 
REMARK    3  A    between atoms: C7_13  and  O1_14 
REMARK    4  A    between atoms: C7_13  and  C8_16 
REMARK    5  A    between atoms: N5_23  and  C13_24 
REMARK    6  A    between atoms: C13_24  and  C14_25 
REMARK    7  A    between atoms: C14_25  and  C15_26 
ROOT
HETATM    1  C15 UNL     1      -4.511   4.939  14.276  1.00  0.00    -0.053 A 
HETATM    2  C16 UNL     1      -3.418   4.227  14.675  1.00  0.00     0.009 A 
HETATM    3  C17 UNL     1      -3.589   2.941  15.201  1.00  0.00     0.023 A 
HETATM    4  C18 UNL     1      -4.819   2.361  15.339  1.00  0.00     0.044 A 
HETATM    5  C19 UNL     1      -5.028   1.060  15.894  1.00  0.00     0.099 C 
HETATM    6  N6  UNL     1      -5.198   0.004  16.320  1.00  0.00    -0.191 NA
HETATM    7  C20 UNL     1      -5.933   3.095  14.927  1.00  0.00     0.023 A 
HETATM    8  C21 UNL     1      -5.794   4.359  14.404  1.00  0.00     0.009 A 
ENDROOT
BRANCH   1   9
HETATM    9  C14 UNL     1      -4.398   6.311  13.699  1.00  0.00     0.084 C 
BRANCH   9  10
HETATM   10  C13 UNL     1      -3.454   6.290  12.521  1.00  0.00     0.094 C 
BRANCH  10  11
HETATM   11  N5  UNL     1      -4.030   5.894  11.298  1.00  0.00    -0.147 N 
HETATM   12  C5  UNL     1      -4.930   6.455  10.537  1.00  0.00     0.127 A 
HETATM   13  N1  UNL     1      -5.119   5.628   9.451  1.00  0.00    -0.273 N 
HETATM   14  N2  UNL     1      -4.334   4.573   9.552  1.00  0.00    -0.130 N 
ATOM     15  H1  UNL     1      -5.767   5.806   8.683  1.00  0.00     0.189 HD
HETATM   16  C6  UNL     1      -3.646   4.699  10.686  1.00  0.00     0.706 A 
ATOM     17  H2  UNL     1      -4.267   3.803   8.886  1.00  0.00     0.205 HD
BRANCH  12  18
HETATM   18  C2  UNL     1      -5.704   7.699  10.669  1.00  0.00     0.010 C 
HETATM   19  C1  UNL     1      -6.366   8.064   9.325  1.00  0.00     0.023 C 
HETATM   20  C3  UNL     1      -4.775   8.904  10.913  1.00  0.00     0.023 C 
HETATM   21  C4  UNL     1      -6.842   7.683  11.645  1.00  0.00     0.023 C 
ENDBRANCH  12  18
BRANCH  16  22
HETATM   22  N3  UNL     1      -2.812   3.962  11.159  1.00  0.00    -0.166 N 
HETATM   23  C7  UNL     1      -2.226   2.841  11.484  1.00  0.00     0.182 C 
ATOM     24  H3  UNL     1      -2.156   4.640  11.547  1.00  0.00     0.186 HD
BRANCH  23  25
HETATM   25  O1  UNL     1      -0.952   2.914  11.861  1.00  0.00    -0.344 OA
ATOM     26  H1  UNL     1      -0.556   2.118  12.198  1.00  0.00     0.219 HD
ENDBRANCH  23  25
BRANCH  23  27
HETATM   27  C8  UNL     1      -2.734   1.462  11.515  1.00  0.00     0.084 A 
HETATM   28  C9  UNL     1      -3.938   1.205  12.113  1.00  0.00     0.034 A 
HETATM   29  C10 UNL     1      -4.444  -0.105  12.130  1.00  0.00     0.004 A 
HETATM   30  C11 UNL     1      -3.755  -1.134  11.559  1.00  0.00     0.017 A 
HETATM   31  C12 UNL     1      -2.530  -0.810  10.961  1.00  0.00     0.088 A 
HETATM   32  N4  UNL     1      -2.086   0.428  10.966  1.00  0.00    -0.362 N 
ATOM     33  H4  UNL     1      -1.187   0.612  10.521  1.00  0.00     0.165 HD
ENDBRANCH  23  27
ENDBRANCH  16  22
ENDBRANCH  10  11
ENDBRANCH   9  10
ENDBRANCH   1   9
TORSDOF 7
ENDMDL
MODEL 2
REMARK VINA RESULT: -8.256197041      2.198      5.032
REMARK  7 active torsions:
REMARK  status: ('A' for Active; 'I' for Inactive)
REMARK    1  A    between atoms: C2_2  and  C5_5 
REMARK    2  A    between atoms: C6_10  and  N3_11 
REMARK    3  A    between atoms: C7_13  and  O1_14 
REMARK    4  A    between atoms: C7_13  and  C8_16 
REMARK    5  A    between atoms: N5_23  and  C13_24 
REMARK    6  A    between atoms: C13_24  and  C14_25 
REMARK    7  A    between atoms: C14_25  and  C15_26 
ROOT
HETATM    1  C15 UNL     1      -3.668   1.843  10.968  1.00  0.00    -0.053 A 
HETATM    2  C16 UNL     1      -2.389   1.379  11.051  1.00  0.00     0.009 A 
HETATM    3  C17 UNL     1      -2.162   0.001  11.152  1.00  0.00     0.023 A 
HETATM    4  C18 UNL     1      -3.180  -0.912  11.175  1.00  0.00     0.044 A 
HETATM    5  C19 UNL     1      -2.981  -2.322  11.301  1.00  0.00     0.099 C 
HETATM    6  N6  UNL     1      -2.825  -3.460  11.380  1.00  0.00    -0.191 NA
HETATM    7  C20 UNL     1      -4.487  -0.429  11.088  1.00  0.00     0.023 A 
HETATM    8  C21 UNL     1      -4.738   0.918  10.986  1.00  0.00     0.009 A 
ENDROOT
BRANCH   1   9
HETATM    9  C14 UNL     1      -3.978   3.298  10.851  1.00  0.00     0.084 C 
BRANCH   9  10
HETATM   10  C13 UNL     1      -4.468   3.822  12.179  1.00  0.00     0.094 C 
BRANCH  10  11
HETATM   11  N5  UNL     1      -3.470   4.345  13.022  1.00  0.00    -0.147 N 
HETATM   12  C5  UNL     1      -2.871   5.505  13.047  1.00  0.00     0.127 A 
HETATM   13  N1  UNL     1      -1.973   5.478  14.093  1.00  0.00    -0.273 N 
HETATM   14  N2  UNL     1      -2.031   4.309  14.701  1.00  0.00    -0.130 N 
ATOM     15  H1  UNL     1      -1.357   6.247  14.359  1.00  0.00     0.189 HD
HETATM   16  C6  UNL     1      -2.944   3.577  14.064  1.00  0.00     0.706 A 
ATOM     17  H2  UNL     1      -1.478   4.018  15.507  1.00  0.00     0.205 HD
BRANCH  12  18
HETATM   18  C2  UNL     1      -2.988   6.701  12.198  1.00  0.00     0.010 C 
HETATM   19  C1  UNL     1      -2.312   7.909  12.877  1.00  0.00     0.023 C 
HETATM   20  C3  UNL     1      -4.455   7.162  12.096  1.00  0.00     0.023 C 
HETATM   21  C4  UNL     1      -2.344   6.631  10.846  1.00  0.00     0.023 C 
ENDBRANCH  12  18
BRANCH  16  22
HETATM   22  N3  UNL     1      -3.317   2.450  14.295  1.00  0.00    -0.166 N 
HETATM   23  C7  UNL     1      -4.061   1.493  14.780  1.00  0.00     0.182 C 
ATOM     24  H3  UNL     1      -2.605   1.909  13.805  1.00  0.00     0.186 HD
BRANCH  23  25
HETATM   25  O1  UNL     1      -3.891   0.277  14.266  1.00  0.00    -0.344 OA
ATOM     26  H1  UNL     1      -3.474  -0.372  14.821  1.00  0.00     0.219 HD
ENDBRANCH  23  25
BRANCH  23  27
HETATM   27  C8  UNL     1      -5.089   1.509  15.832  1.00  0.00     0.084 A 
HETATM   28  C9  UNL     1      -5.960   2.562  15.899  1.00  0.00     0.034 A 
HETATM   29  C10 UNL     1      -6.960   2.579  16.884  1.00  0.00     0.004 A 
HETATM   30  C11 UNL     1      -7.081   1.561  17.784  1.00  0.00     0.017 A 
HETATM   31  C12 UNL     1      -6.160   0.511  17.665  1.00  0.00     0.088 A 
HETATM   32  N4  UNL     1      -5.236   0.530  16.731  1.00  0.00    -0.362 N 
ATOM     33  H4  UNL     1      -4.587  -0.257  16.688  1.00  0.00     0.165 HD
ENDBRANCH  23  27
ENDBRANCH  16  22
ENDBRANCH  10  11
ENDBRANCH   9  10
ENDBRANCH   1   9
TORSDOF 7
ENDMDL
MODEL 3
REMARK VINA RESULT: -8.136240896      2.044      2.680
REMARK  7 active torsions:
REMARK  status: ('A' for Active; 'I' for Inactive)
REMARK    1  A    between atoms: C2_2  and  C5_5 
REMARK    2  A    between atoms: C6_10  and  N3_11 
REMARK    3  A    between atoms: C7_13  and  O1_14 
REMARK    4  A    between atoms: C7_13  and  C8_16 
REMARK    5  A    between atoms: N5_23  and  C13_24 
REMARK    6  A    between atoms: C13_24  and  C14_25 
REMARK    7  A    between atoms: C14_25  and  C15_26 
ROOT
HETATM    1  C15 UNL     1      -4.673   4.340  14.694  1.00  0.00    -0.053 A 
HETATM    2  C16 UNL     1      -3.686   3.420  14.889  1.00  0.00     0.009 A 
HETATM    3  C17 UNL     1      -3.993   2.202  15.508  1.00  0.00     0.023 A 
HETATM    4  C18 UNL     1      -5.255   1.892  15.935  1.00  0.00     0.044 A 
HETATM    5  C19 UNL     1      -5.594   0.668  16.591  1.00  0.00     0.099 C 
HETATM    6  N6  UNL     1      -5.876  -0.327  17.099  1.00  0.00    -0.191 NA
HETATM    7  C20 UNL     1      -6.260   2.838  15.730  1.00  0.00     0.023 A 
HETATM    8  C21 UNL     1      -5.988   4.040  15.123  1.00  0.00     0.009 A 
ENDROOT
BRANCH   1   9
HETATM    9  C14 UNL     1      -4.416   5.653  14.034  1.00  0.00     0.084 C 
BRANCH   9  10
HETATM   10  C13 UNL     1      -4.523   5.498  12.537  1.00  0.00     0.094 C 
BRANCH  10  11
HETATM   11  N5  UNL     1      -3.314   5.204  11.876  1.00  0.00    -0.147 N 
HETATM   12  C5  UNL     1      -2.207   5.883  11.742  1.00  0.00     0.127 A 
HETATM   13  N1  UNL     1      -1.343   5.112  10.994  1.00  0.00    -0.273 N 
HETATM   14  N2  UNL     1      -1.924   3.970  10.678  1.00  0.00    -0.130 N 
ATOM     15  H1  UNL     1      -0.398   5.383  10.725  1.00  0.00     0.189 HD
HETATM   16  C6  UNL     1      -3.148   3.991  11.203  1.00  0.00     0.706 A 
ATOM     17  H2  UNL     1      -1.513   3.213  10.133  1.00  0.00     0.205 HD
BRANCH  12  18
HETATM   18  C2  UNL     1      -1.799   7.218  12.208  1.00  0.00     0.010 C 
HETATM   19  C1  UNL     1      -0.541   7.689  11.452  1.00  0.00     0.023 C 
HETATM   20  C3  UNL     1      -1.302   7.165  13.666  1.00  0.00     0.023 C 
HETATM   21  C4  UNL     1      -2.785   8.329  12.009  1.00  0.00     0.023 C 
ENDBRANCH  12  18
BRANCH  16  22
HETATM   22  N3  UNL     1      -4.012   3.146  11.161  1.00  0.00    -0.166 N 
HETATM   23  C7  UNL     1      -4.558   1.963  11.248  1.00  0.00     0.182 C 
ATOM     24  H3  UNL     1      -4.817   3.708  10.886  1.00  0.00     0.186 HD
BRANCH  23  25
HETATM   25  O1  UNL     1      -5.888   1.913  11.290  1.00  0.00    -0.344 OA
ATOM     26  H1  UNL     1      -6.344   1.885  10.457  1.00  0.00     0.219 HD
ENDBRANCH  23  25
BRANCH  23  27
HETATM   27  C8  UNL     1      -3.953   0.624  11.308  1.00  0.00     0.084 A 
HETATM   28  C9  UNL     1      -2.626   0.475  11.011  1.00  0.00     0.034 A 
HETATM   29  C10 UNL     1      -2.031  -0.795  11.085  1.00  0.00     0.004 A 
HETATM   30  C11 UNL     1      -2.756  -1.892  11.449  1.00  0.00     0.017 A 
HETATM   31  C12 UNL     1      -4.109  -1.677  11.742  1.00  0.00     0.088 A 
HETATM   32  N4  UNL     1      -4.632  -0.474  11.660  1.00  0.00    -0.362 N 
ATOM     33  H4  UNL     1      -5.623  -0.370  11.880  1.00  0.00     0.165 HD
ENDBRANCH  23  27
ENDBRANCH  16  22
ENDBRANCH  10  11
ENDBRANCH   9  10
ENDBRANCH   1   9
TORSDOF 7
ENDMDL
MODEL 4
REMARK VINA RESULT: -8.130746923      2.069      4.978
REMARK  7 active torsions:
REMARK  status: ('A' for Active; 'I' for Inactive)
REMARK    1  A    between atoms: C2_2  and  C5_5 
REMARK    2  A    between atoms: C6_10  and  N3_11 
REMARK    3  A    between atoms: C7_13  and  O1_14 
REMARK    4  A    between atoms: C7_13  and  C8_16 
REMARK    5  A    between atoms: N5_23  and  C13_24 
REMARK    6  A    between atoms: C13_24  and  C14_25 
REMARK    7  A    between atoms: C14_25  and  C15_26 
ROOT
HETATM    1  C15 UNL     1      -3.582   1.729  11.076  1.00  0.00    -0.053 A 
HETATM    2  C16 UNL     1      -4.685   0.934  11.182  1.00  0.00     0.009 A 
HETATM    3  C17 UNL     1      -4.526  -0.453  11.293  1.00  0.00     0.023 A 
HETATM    4  C18 UNL     1      -3.298  -1.054  11.295  1.00  0.00     0.044 A 
HETATM    5  C19 UNL     1      -3.105  -2.468  11.382  1.00  0.00     0.099 C 
HETATM    6  N6  UNL     1      -2.944  -3.604  11.476  1.00  0.00    -0.191 NA
HETATM    7  C20 UNL     1      -2.173  -0.234  11.188  1.00  0.00     0.023 A 
HETATM    8  C21 UNL     1      -2.300   1.130  11.081  1.00  0.00     0.009 A 
ENDROOT
BRANCH   1   9
HETATM    9  C14 UNL     1      -3.681   3.213  10.963  1.00  0.00     0.084 C 
BRANCH   9  10
HETATM   10  C13 UNL     1      -2.574   3.858  11.761  1.00  0.00     0.094 C 
BRANCH  10  11
HETATM   11  N5  UNL     1      -2.997   4.774  12.743  1.00  0.00    -0.147 N 
HETATM   12  C5  UNL     1      -3.077   6.077  12.741  1.00  0.00     0.127 A 
HETATM   13  N1  UNL     1      -3.564   6.458  13.974  1.00  0.00    -0.273 N 
HETATM   14  N2  UNL     1      -3.781   5.390  14.717  1.00  0.00    -0.130 N 
ATOM     15  H1  UNL     1      -3.731   7.420  14.267  1.00  0.00     0.189 HD
HETATM   16  C6  UNL     1      -3.439   4.326  13.991  1.00  0.00     0.706 A 
ATOM     17  H2  UNL     1      -4.143   5.380  15.670  1.00  0.00     0.205 HD
BRANCH  12  18
HETATM   18  C2  UNL     1      -2.738   7.090  11.730  1.00  0.00     0.010 C 
HETATM   19  C1  UNL     1      -2.846   8.506  12.332  1.00  0.00     0.023 C 
HETATM   20  C3  UNL     1      -3.798   7.130  10.612  1.00  0.00     0.023 C 
HETATM   21  C4  UNL     1      -1.351   7.038  11.163  1.00  0.00     0.023 C 
ENDBRANCH  12  18
BRANCH  16  22
HETATM   22  N3  UNL     1      -3.486   3.154  14.283  1.00  0.00    -0.166 N 
HETATM   23  C7  UNL     1      -3.959   2.048  14.790  1.00  0.00     0.182 C 
ATOM     24  H3  UNL     1      -2.608   2.822  13.885  1.00  0.00     0.186 HD
BRANCH  23  25
HETATM   25  O1  UNL     1      -3.399   0.910  14.384  1.00  0.00    -0.344 OA
ATOM     26  H1  UNL     1      -2.581   0.979  13.906  1.00  0.00     0.219 HD
ENDBRANCH  23  25
BRANCH  23  27
HETATM   27  C8  UNL     1      -5.035   1.817  15.766  1.00  0.00     0.084 A 
HETATM   28  C9  UNL     1      -6.037   2.741  15.888  1.00  0.00     0.034 A 
HETATM   29  C10 UNL     1      -7.082   2.521  16.800  1.00  0.00     0.004 A 
HETATM   30  C11 UNL     1      -7.117   1.399  17.574  1.00  0.00     0.017 A 
HETATM   31  C12 UNL     1      -6.065   0.489  17.404  1.00  0.00     0.088 A 
HETATM   32  N4  UNL     1      -5.102   0.729  16.541  1.00  0.00    -0.362 N 
ATOM     33  H4  UNL     1      -4.357   0.038  16.457  1.00  0.00     0.165 HD
ENDBRANCH  23  27
ENDBRANCH  16  22
ENDBRANCH  10  11
ENDBRANCH   9  10
ENDBRANCH   1   9
TORSDOF 7
ENDMDL
MODEL 5
REMARK VINA RESULT: -8.114065038      2.014      3.064
REMARK  7 active torsions:
REMARK  status: ('A' for Active; 'I' for Inactive)
REMARK    1  A    between atoms: C2_2  and  C5_5 
REMARK    2  A    between atoms: C6_10  and  N3_11 
REMARK    3  A    between atoms: C7_13  and  O1_14 
REMARK    4  A    between atoms: C7_13  and  C8_16 
REMARK    5  A    between atoms: N5_23  and  C13_24 
REMARK    6  A    between atoms: C13_24  and  C14_25 
REMARK    7  A    between atoms: C14_25  and  C15_26 
ROOT
HETATM    1  C15 UNL     1      -4.297   4.961  14.406  1.00  0.00    -0.053 A 
HETATM    2  C16 UNL     1      -5.500   4.340  14.237  1.00  0.00     0.009 A 
HETATM    3  C17 UNL     1      -5.608   2.968  14.495  1.00  0.00     0.023 A 
HETATM    4  C18 UNL     1      -4.546   2.212  14.909  1.00  0.00     0.044 A 
HETATM    5  C19 UNL     1      -4.620   0.805  15.156  1.00  0.00     0.099 C 
HETATM    6  N6  UNL     1      -4.680  -0.323  15.378  1.00  0.00    -0.191 NA
HETATM    7  C20 UNL     1      -3.319   2.854  15.081  1.00  0.00     0.023 A 
HETATM    8  C21 UNL     1      -3.185   4.201  14.838  1.00  0.00     0.009 A 
ENDROOT
BRANCH   1   9
HETATM    9  C14 UNL     1      -4.116   6.420  14.157  1.00  0.00     0.084 C 
BRANCH   9  10
HETATM   10  C13 UNL     1      -3.798   6.652  12.700  1.00  0.00     0.094 C 
BRANCH  10  11
HETATM   11  N5  UNL     1      -2.493   6.299  12.308  1.00  0.00    -0.147 N 
HETATM   12  C5  UNL     1      -1.330   6.834  12.566  1.00  0.00     0.127 A 
HETATM   13  N1  UNL     1      -0.378   6.072  11.922  1.00  0.00    -0.273 N 
HETATM   14  N2  UNL     1      -0.961   5.079  11.280  1.00  0.00    -0.130 N 
ATOM     15  H1  UNL     1       0.626   6.250  11.940  1.00  0.00     0.189 HD
HETATM   16  C6  UNL     1      -2.272   5.186  11.491  1.00  0.00     0.706 A 
ATOM     17  H2  UNL     1      -0.495   4.362  10.724  1.00  0.00     0.205 HD
BRANCH  12  18
HETATM   18  C2  UNL     1      -0.935   8.018  13.344  1.00  0.00     0.010 C 
HETATM   19  C1  UNL     1      -1.662   9.272  12.819  1.00  0.00     0.023 C 
HETATM   20  C3  UNL     1       0.544   8.372  13.097  1.00  0.00     0.023 C 
HETATM   21  C4  UNL     1      -1.251   7.996  14.809  1.00  0.00     0.023 C 
ENDBRANCH  12  18
BRANCH  16  22
HETATM   22  N3  UNL     1      -3.170   4.481  11.094  1.00  0.00    -0.166 N 
HETATM   23  C7  UNL     1      -3.872   3.394  10.916  1.00  0.00     0.182 C 
ATOM     24  H3  UNL     1      -3.730   5.157  10.575  1.00  0.00     0.186 HD
BRANCH  23  25
HETATM   25  O1  UNL     1      -5.117   3.546  10.468  1.00  0.00    -0.344 OA
ATOM     26  H1  UNL     1      -5.566   2.764  10.170  1.00  0.00     0.219 HD
ENDBRANCH  23  25
BRANCH  23  27
HETATM   27  C8  UNL     1      -3.528   1.979  11.122  1.00  0.00     0.084 A 
HETATM   28  C9  UNL     1      -4.525   1.080  11.385  1.00  0.00     0.034 A 
HETATM   29  C10 UNL     1      -4.212  -0.278  11.563  1.00  0.00     0.004 A 
HETATM   30  C11 UNL     1      -2.925  -0.721  11.480  1.00  0.00     0.017 A 
HETATM   31  C12 UNL     1      -1.948   0.246  11.208  1.00  0.00     0.088 A 
HETATM   32  N4  UNL     1      -2.278   1.509  11.049  1.00  0.00    -0.362 N 
ATOM     33  H4  UNL     1      -1.529   2.175  10.857  1.00  0.00     0.165 HD
ENDBRANCH  23  27
ENDBRANCH  16  22
ENDBRANCH  10  11
ENDBRANCH   9  10
ENDBRANCH   1   9
TORSDOF 7
ENDMDL
