MODEL 1
REMARK VINA RESULT: -6.794755164      0.000      0.000
REMARK  4 active torsions:
REMARK  status: ('A' for Active; 'I' for Inactive)
REMARK    1  A    between atoms: C12_15  and  C13_16 
REMARK       I    between atoms: C13_16  and  N3_18 
REMARK    2  A    between atoms: N3_18  and  C14_20 
REMARK    3  A    between atoms: C14_20  and  C15_21 
REMARK    4  A    between atoms: C15_21  and  N4_22 
ROOT
HETATM    1  C1  UNL     1      -2.963   7.110  14.006  1.00  0.00     0.052 C 
HETATM    2  C2  UNL     1      -1.645   6.938  13.328  1.00  0.00    -0.022 A 
HETATM    3  C3  UNL     1      -1.403   5.813  12.569  1.00  0.00     0.023 A 
HETATM    4  C4  UNL     1      -0.176   5.666  11.947  1.00  0.00    -0.019 A 
HETATM    5  C5  UNL     1       0.757   6.673  12.121  1.00  0.00     0.099 A 
HETATM    6  N1  UNL     1       0.486   7.771  12.877  1.00  0.00    -0.364 N 
HETATM    7  C6  UNL     1       1.481   8.832  13.056  1.00  0.00     0.155 C 
HETATM    8  C7  UNL     1      -0.698   7.935  13.492  1.00  0.00     0.014 A 
HETATM    9  C8  UNL     1      -1.006   9.142  14.327  1.00  0.00     0.069 C 
HETATM   10  C9  UNL     1       0.345   4.590  11.094  1.00  0.00     0.036 C 
HETATM   11  C10 UNL     1       1.399   5.169  10.140  1.00  0.00     0.017 C 
HETATM   12  C11 UNL     1      -0.674   3.917  10.231  1.00  0.00     0.147 C 
HETATM   13  N2  UNL     1      -1.499   2.956  10.925  1.00  0.00    -0.309 N 
HETATM   14  S1  UNL     1      -1.800   1.305  10.962  1.00  0.00    -0.003 SA
HETATM   15  C12 UNL     1      -2.874   1.848  12.159  1.00  0.00     0.123 A 
HETATM   16  C18 UNL     1      -2.411   3.133  11.893  1.00  0.00     0.107 A 
HETATM   17  S2  UNL     1      -2.817   4.758  12.579  1.00  0.00    -0.069 SA
ENDROOT
BRANCH  15  18
HETATM   18  C13 UNL     1      -3.833   1.209  13.042  1.00  0.00     0.262 C 
HETATM   19  O1  UNL     1      -4.806   0.601  12.550  1.00  0.00    -0.267 OA
HETATM   20  N3  UNL     1      -3.716   1.246  14.459  1.00  0.00    -0.355 N 
ATOM     21  H3  UNL     1      -2.925   1.738  14.874  1.00  0.00     0.162 HD
BRANCH  20  22
HETATM   22  C14 UNL     1      -4.673   0.611  15.328  1.00  0.00     0.153 C 
BRANCH  22  23
HETATM   23  C15 UNL     1      -4.806   1.388  16.597  1.00  0.00     0.291 C 
BRANCH  23  24
HETATM   24  N4  UNL     1      -6.070   2.014  16.806  1.00  0.00     0.081 N 
HETATM   25  C16 UNL     1      -6.443   2.990  15.831  1.00  0.00     0.309 C 
HETATM   26  C17 UNL     1      -7.146   1.133  17.148  1.00  0.00     0.309 C 
ENDBRANCH  23  24
ENDBRANCH  22  23
ENDBRANCH  20  22
ENDBRANCH  15  18
TORSDOF 4
ENDMDL
MODEL 2
REMARK VINA RESULT: -6.592663025      5.018      7.576
REMARK  4 active torsions:
REMARK  status: ('A' for Active; 'I' for Inactive)
REMARK    1  A    between atoms: C12_15  and  C13_16 
REMARK       I    between atoms: C13_16  and  N3_18 
REMARK    2  A    between atoms: N3_18  and  C14_20 
REMARK    3  A    between atoms: C14_20  and  C15_21 
REMARK    4  A    between atoms: C15_21  and  N4_22 
ROOT
HETATM    1  C1  UNL     1      -5.749   4.750  14.819  1.00  0.00     0.052 C 
HETATM    2  C2  UNL     1      -5.062   3.579  14.199  1.00  0.00    -0.022 A 
HETATM    3  C3  UNL     1      -4.430   3.717  12.982  1.00  0.00     0.023 A 
HETATM    4  C4  UNL     1      -3.798   2.622  12.419  1.00  0.00    -0.019 A 
HETATM    5  C5  UNL     1      -3.834   1.430  13.119  1.00  0.00     0.099 A 
HETATM    6  N1  UNL     1      -4.466   1.328  14.319  1.00  0.00    -0.364 N 
HETATM    7  C6  UNL     1      -4.499   0.060  15.053  1.00  0.00     0.155 C 
HETATM    8  C7  UNL     1      -5.088   2.376  14.886  1.00  0.00     0.014 A 
HETATM    9  C8  UNL     1      -5.788   2.273  16.208  1.00  0.00     0.069 C 
HETATM   10  C9  UNL     1      -3.061   2.485  11.156  1.00  0.00     0.036 C 
HETATM   11  C10 UNL     1      -2.021   1.364  11.301  1.00  0.00     0.017 C 
HETATM   12  C11 UNL     1      -2.305   3.703  10.728  1.00  0.00     0.147 C 
HETATM   13  N2  UNL     1      -3.124   4.729  10.128  1.00  0.00    -0.309 N 
HETATM   14  S1  UNL     1      -3.357   5.491   8.651  1.00  0.00    -0.003 SA
HETATM   15  C12 UNL     1      -4.511   6.293   9.604  1.00  0.00     0.123 A 
HETATM   16  C18 UNL     1      -4.089   5.494  10.662  1.00  0.00     0.107 A 
HETATM   17  S2  UNL     1      -4.595   5.372  12.396  1.00  0.00    -0.069 SA
ENDROOT
BRANCH  15  18
HETATM   18  C13 UNL     1      -5.484   7.344   9.368  1.00  0.00     0.262 C 
HETATM   19  O1  UNL     1      -5.096   8.453   8.950  1.00  0.00    -0.267 OA
HETATM   20  N3  UNL     1      -6.877   7.165   9.596  1.00  0.00    -0.355 N 
ATOM     21  H3  UNL     1      -7.208   6.263   9.936  1.00  0.00     0.162 HD
BRANCH  20  22
HETATM   22  C14 UNL     1      -7.836   8.214   9.362  1.00  0.00     0.153 C 
BRANCH  22  23
HETATM   23  C15 UNL     1      -8.736   7.841   8.230  1.00  0.00     0.291 C 
BRANCH  23  24
HETATM   24  N4  UNL     1      -8.917   8.843   7.232  1.00  0.00     0.081 N 
HETATM   25  C16 UNL     1     -10.011   9.738   7.447  1.00  0.00     0.309 C 
HETATM   26  C17 UNL     1      -7.725   9.516   6.810  1.00  0.00     0.309 C 
ENDBRANCH  23  24
ENDBRANCH  22  23
ENDBRANCH  20  22
ENDBRANCH  15  18
TORSDOF 4
ENDMDL
MODEL 3
REMARK VINA RESULT: -6.344493745      5.551      7.034
REMARK  4 active torsions:
REMARK  status: ('A' for Active; 'I' for Inactive)
REMARK    1  A    between atoms: C12_15  and  C13_16 
REMARK       I    between atoms: C13_16  and  N3_18 
REMARK    2  A    between atoms: N3_18  and  C14_20 
REMARK    3  A    between atoms: C14_20  and  C15_21 
REMARK    4  A    between atoms: C15_21  and  N4_22 
ROOT
HETATM    1  C1  UNL     1      -8.080   7.050   8.229  1.00  0.00     0.052 C 
HETATM    2  C2  UNL     1      -7.561   8.389   8.634  1.00  0.00    -0.022 A 
HETATM    3  C3  UNL     1      -6.472   8.479   9.474  1.00  0.00     0.023 A 
HETATM    4  C4  UNL     1      -6.001   9.728   9.842  1.00  0.00    -0.019 A 
HETATM    5  C5  UNL     1      -6.659  10.835   9.338  1.00  0.00     0.099 A 
HETATM    6  N1  UNL     1      -7.731  10.711   8.510  1.00  0.00    -0.364 N 
HETATM    7  C6  UNL     1      -8.422  11.891   7.982  1.00  0.00     0.155 C 
HETATM    8  C7  UNL     1      -8.207   9.510   8.139  1.00  0.00     0.014 A 
HETATM    9  C8  UNL     1      -9.388   9.363   7.227  1.00  0.00     0.069 C 
HETATM   10  C9  UNL     1      -4.881  10.113  10.709  1.00  0.00     0.036 C 
HETATM   11  C10 UNL     1      -4.357  11.489  10.271  1.00  0.00     0.017 C 
HETATM   12  C11 UNL     1      -3.705   9.189  10.673  1.00  0.00     0.147 C 
HETATM   13  N2  UNL     1      -3.876   7.981  11.446  1.00  0.00    -0.309 N 
HETATM   14  S1  UNL     1      -3.251   7.225  12.807  1.00  0.00    -0.003 SA
HETATM   15  C12 UNL     1      -4.417   6.090  12.324  1.00  0.00     0.123 A 
HETATM   16  C18 UNL     1      -4.715   6.949  11.271  1.00  0.00     0.107 A 
HETATM   17  S2  UNL     1      -5.904   6.867   9.908  1.00  0.00    -0.069 SA
ENDROOT
BRANCH  15  18
HETATM   18  C13 UNL     1      -4.865   4.803  12.824  1.00  0.00     0.262 C 
HETATM   19  O1  UNL     1      -5.852   4.753  13.585  1.00  0.00    -0.267 OA
HETATM   20  N3  UNL     1      -4.222   3.581  12.483  1.00  0.00    -0.355 N 
ATOM     21  H3  UNL     1      -3.415   3.606  11.861  1.00  0.00     0.162 HD
BRANCH  20  22
HETATM   22  C14 UNL     1      -4.672   2.307  12.986  1.00  0.00     0.153 C 
BRANCH  22  23
HETATM   23  C15 UNL     1      -4.707   1.304  11.880  1.00  0.00     0.291 C 
BRANCH  23  24
HETATM   24  N4  UNL     1      -3.677   0.319  11.910  1.00  0.00     0.081 N 
HETATM   25  C16 UNL     1      -4.107  -1.030  11.716  1.00  0.00     0.309 C 
HETATM   26  C17 UNL     1      -2.496   0.637  11.165  1.00  0.00     0.309 C 
ENDBRANCH  23  24
ENDBRANCH  22  23
ENDBRANCH  20  22
ENDBRANCH  15  18
TORSDOF 4
ENDMDL
MODEL 4
REMARK VINA RESULT: -6.324885920      1.344      1.488
REMARK  4 active torsions:
REMARK  status: ('A' for Active; 'I' for Inactive)
REMARK    1  A    between atoms: C12_15  and  C13_16 
REMARK       I    between atoms: C13_16  and  N3_18 
REMARK    2  A    between atoms: N3_18  and  C14_20 
REMARK    3  A    between atoms: C14_20  and  C15_21 
REMARK    4  A    between atoms: C15_21  and  N4_22 
ROOT
HETATM    1  C1  UNL     1      -2.469   8.236  14.943  1.00  0.00     0.052 C 
HETATM    2  C2  UNL     1      -1.250   8.128  14.088  1.00  0.00    -0.022 A 
HETATM    3  C3  UNL     1      -1.190   7.175  13.093  1.00  0.00     0.023 A 
HETATM    4  C4  UNL     1      -0.053   7.086  12.309  1.00  0.00    -0.019 A 
HETATM    5  C5  UNL     1       0.977   7.972  12.569  1.00  0.00     0.099 A 
HETATM    6  N1  UNL     1       0.885   8.900  13.558  1.00  0.00    -0.364 N 
HETATM    7  C6  UNL     1       1.982   9.834  13.826  1.00  0.00     0.155 C 
HETATM    8  C7  UNL     1      -0.208   9.006  14.334  1.00  0.00     0.014 A 
HETATM    9  C8  UNL     1      -0.319  10.026  15.427  1.00  0.00     0.069 C 
HETATM   10  C9  UNL     1       0.278   6.183  11.199  1.00  0.00     0.036 C 
HETATM   11  C10 UNL     1       1.271   6.883  10.261  1.00  0.00     0.017 C 
HETATM   12  C11 UNL     1      -0.882   5.774  10.348  1.00  0.00     0.147 C 
HETATM   13  N2  UNL     1      -1.709   4.742  10.929  1.00  0.00    -0.309 N 
HETATM   14  S1  UNL     1      -2.147   3.143  10.668  1.00  0.00    -0.003 SA
HETATM   15  C12 UNL     1      -3.037   3.488  12.071  1.00  0.00     0.123 A 
HETATM   16  C18 UNL     1      -2.494   4.768  12.017  1.00  0.00     0.107 A 
HETATM   17  S2  UNL     1      -2.682   6.234  13.062  1.00  0.00    -0.069 SA
ENDROOT
BRANCH  15  18
HETATM   18  C13 UNL     1      -3.949   2.739  12.917  1.00  0.00     0.262 C 
HETATM   19  O1  UNL     1      -5.178   2.921  12.802  1.00  0.00    -0.267 OA
HETATM   20  N3  UNL     1      -3.502   1.797  13.884  1.00  0.00    -0.355 N 
ATOM     21  H3  UNL     1      -2.500   1.637  13.988  1.00  0.00     0.162 HD
BRANCH  20  22
HETATM   22  C14 UNL     1      -4.414   1.059  14.720  1.00  0.00     0.153 C 
BRANCH  22  23
HETATM   23  C15 UNL     1      -4.241   1.465  16.148  1.00  0.00     0.291 C 
BRANCH  23  24
HETATM   24  N4  UNL     1      -5.447   1.651  16.884  1.00  0.00     0.081 N 
HETATM   25  C16 UNL     1      -6.411   2.517  16.282  1.00  0.00     0.309 C 
HETATM   26  C17 UNL     1      -6.032   0.459  17.422  1.00  0.00     0.309 C 
ENDBRANCH  23  24
ENDBRANCH  22  23
ENDBRANCH  20  22
ENDBRANCH  15  18
TORSDOF 4
ENDMDL
MODEL 5
REMARK VINA RESULT: -6.252173234      1.147      1.361
REMARK  4 active torsions:
REMARK  status: ('A' for Active; 'I' for Inactive)
REMARK    1  A    between atoms: C12_15  and  C13_16 
REMARK       I    between atoms: C13_16  and  N3_18 
REMARK    2  A    between atoms: N3_18  and  C14_20 
REMARK    3  A    between atoms: C14_20  and  C15_21 
REMARK    4  A    between atoms: C15_21  and  N4_22 
ROOT
HETATM    1  C1  UNL     1      -1.777   7.851  13.169  1.00  0.00     0.052 C 
HETATM    2  C2  UNL     1      -0.566   7.157  12.643  1.00  0.00    -0.022 A 
HETATM    3  C3  UNL     1      -0.675   5.885  12.120  1.00  0.00     0.023 A 
HETATM    4  C4  UNL     1       0.457   5.253  11.636  1.00  0.00    -0.019 A 
HETATM    5  C5  UNL     1       1.655   5.941  11.702  1.00  0.00     0.099 A 
HETATM    6  N1  UNL     1       1.727   7.195  12.225  1.00  0.00    -0.364 N 
HETATM    7  C6  UNL     1       3.002   7.915  12.291  1.00  0.00     0.155 C 
HETATM    8  C7  UNL     1       0.643   7.830  12.701  1.00  0.00     0.014 A 
HETATM    9  C8  UNL     1       0.713   9.212  13.279  1.00  0.00     0.069 C 
HETATM   10  C9  UNL     1       0.630   3.924  11.035  1.00  0.00     0.036 C 
HETATM   11  C10 UNL     1       1.833   3.956  10.082  1.00  0.00     0.017 C 
HETATM   12  C11 UNL     1      -0.531   3.438  10.226  1.00  0.00     0.147 C 
HETATM   13  N2  UNL     1      -1.631   2.930  11.012  1.00  0.00    -0.309 N 
HETATM   14  S1  UNL     1      -2.436   1.491  11.320  1.00  0.00    -0.003 SA
HETATM   15  C12 UNL     1      -3.310   2.558  12.309  1.00  0.00     0.123 A 
HETATM   16  C18 UNL     1      -2.461   3.562  11.855  1.00  0.00     0.107 A 
HETATM   17  S2  UNL     1      -2.349   5.336  12.203  1.00  0.00    -0.069 SA
ENDROOT
BRANCH  15  18
HETATM   18  C13 UNL     1      -4.441   2.428  13.210  1.00  0.00     0.262 C 
HETATM   19  O1  UNL     1      -5.593   2.356  12.739  1.00  0.00    -0.267 OA
HETATM   20  N3  UNL     1      -4.293   2.380  14.624  1.00  0.00    -0.355 N 
ATOM     21  H3  UNL     1      -3.356   2.437  15.023  1.00  0.00     0.162 HD
BRANCH  20  22
HETATM   22  C14 UNL     1      -5.420   2.253  15.513  1.00  0.00     0.153 C 
BRANCH  22  23
HETATM   23  C15 UNL     1      -5.062   1.383  16.673  1.00  0.00     0.291 C 
BRANCH  23  24
HETATM   24  N4  UNL     1      -6.107   1.154  17.615  1.00  0.00     0.081 N 
HETATM   25  C16 UNL     1      -6.091   1.993  18.772  1.00  0.00     0.309 C 
HETATM   26  C17 UNL     1      -7.418   1.004  17.057  1.00  0.00     0.309 C 
ENDBRANCH  23  24
ENDBRANCH  22  23
ENDBRANCH  20  22
ENDBRANCH  15  18
TORSDOF 4
ENDMDL
