MODEL 1
REMARK VINA RESULT: -5.993564718      0.000      0.000
REMARK  7 active torsions:
REMARK  status: ('A' for Active; 'I' for Inactive)
REMARK    1  A    between atoms: C1_2  and  N2_4 
REMARK    2  A    between atoms: C2_6  and  N3_7 
REMARK    3  A    between atoms: N3_7  and  N4_9 
REMARK       I    between atoms: N4_9  and  C3_11 
REMARK       I    between atoms: C3_11  and  N5_13 
REMARK    4  A    between atoms: N5_13  and  C4_15 
REMARK    5  A    between atoms: C4_15  and  C5_16 
REMARK    6  A    between atoms: C5_16  and  S2_17 
REMARK    7  A    between atoms: S2_17  and  N6_18 
ROOT
HETATM    1  N4  UNL     1      26.544  66.488   8.153  1.00  0.00    -0.251 N 
ATOM      2  H4  UNL     1      26.555  67.426   7.751  1.00  0.00     0.191 HD
HETATM    3  C3  UNL     1      27.677  66.029   8.864  1.00  0.00     0.334 C 
HETATM    4  O1  UNL     1      27.690  64.885   9.366  1.00  0.00    -0.246 OA
HETATM    5  N5  UNL     1      28.811  66.864   9.012  1.00  0.00    -0.341 N 
ATOM      6  H5  UNL     1      28.796  67.797   8.601  1.00  0.00     0.164 HD
ENDROOT
BRANCH   1   7
HETATM    7  N3  UNL     1      25.419  65.696   7.990  1.00  0.00    -0.292 N 
ATOM      8  H3  UNL     1      25.414  64.945   7.301  1.00  0.00     0.187 HD
BRANCH   7   9
HETATM    9  C2  UNL     1      24.280  65.936   8.783  1.00  0.00     0.199 C 
HETATM   10  N2  UNL     1      23.911  65.111   9.688  1.00  0.00    -0.331 N 
ATOM     11  H2  UNL     1      23.076  65.348  10.224  1.00  0.00     0.168 HD
BRANCH  10  12
HETATM   12  C1  UNL     1      24.563  63.898  10.005  1.00  0.00     0.185 C 
HETATM   13  N1  UNL     1      24.785  62.973   8.954  1.00  0.00    -0.070 NA
HETATM   14  S1  UNL     1      25.075  63.496  11.500  1.00  0.00    -0.044 SA
ENDBRANCH  10  12
ENDBRANCH   7   9
ENDBRANCH   1   7
BRANCH   5  15
HETATM   15  C4  UNL     1      29.989  66.431   9.730  1.00  0.00     0.141 C 
BRANCH  15  16
HETATM   16  C5  UNL     1      31.204  66.289   8.888  1.00  0.00     0.182 C 
BRANCH  16  17
HETATM   17  S2  UNL     1      30.952  66.368   7.159  1.00  0.00     0.226 S 
HETATM   18  O2  UNL     1      30.306  67.699   6.793  1.00  0.00    -0.206 OA
HETATM   19  O3  UNL     1      30.066  65.310   6.607  1.00  0.00    -0.206 OA
BRANCH  17  20
HETATM   20  N6  UNL     1      32.499  66.383   6.353  1.00  0.00    -0.328 N 
ATOM     21  H62 UNL     1      33.385  66.616   6.803  1.00  0.00     0.168 HD
ATOM     22  H61 UNL     1      32.371  66.125   5.374  1.00  0.00     0.168 HD
ENDBRANCH  17  20
ENDBRANCH  16  17
ENDBRANCH  15  16
ENDBRANCH   5  15
TORSDOF 7
ENDMDL
MODEL 2
REMARK VINA RESULT: -5.956320682      2.170      2.391
REMARK  7 active torsions:
REMARK  status: ('A' for Active; 'I' for Inactive)
REMARK    1  A    between atoms: C1_2  and  N2_4 
REMARK    2  A    between atoms: C2_6  and  N3_7 
REMARK    3  A    between atoms: N3_7  and  N4_9 
REMARK       I    between atoms: N4_9  and  C3_11 
REMARK       I    between atoms: C3_11  and  N5_13 
REMARK    4  A    between atoms: N5_13  and  C4_15 
REMARK    5  A    between atoms: C4_15  and  C5_16 
REMARK    6  A    between atoms: C5_16  and  S2_17 
REMARK    7  A    between atoms: S2_17  and  N6_18 
ROOT
HETATM    1  N4  UNL     1      25.970  66.467   9.266  1.00  0.00    -0.251 N 
ATOM      2  H4  UNL     1      26.240  67.138   9.986  1.00  0.00     0.191 HD
HETATM    3  C3  UNL     1      26.879  66.170   8.224  1.00  0.00     0.334 C 
HETATM    4  O1  UNL     1      26.573  65.353   7.330  1.00  0.00    -0.246 OA
HETATM    5  N5  UNL     1      28.147  66.797   8.186  1.00  0.00    -0.341 N 
ATOM      6  H5  UNL     1      28.393  67.463   8.918  1.00  0.00     0.164 HD
ENDROOT
BRANCH   1   7
HETATM    7  N3  UNL     1      24.721  65.871   9.332  1.00  0.00    -0.292 N 
ATOM      8  H3  UNL     1      24.123  65.837   8.507  1.00  0.00     0.187 HD
BRANCH   7   9
HETATM    9  C2  UNL     1      24.283  65.312  10.548  1.00  0.00     0.199 C 
HETATM   10  N2  UNL     1      24.582  64.112  10.877  1.00  0.00    -0.331 N 
ATOM     11  H2  UNL     1      24.230  63.772  11.772  1.00  0.00     0.168 HD
BRANCH  10  12
HETATM   12  C1  UNL     1      25.358  63.220  10.104  1.00  0.00     0.185 C 
HETATM   13  N1  UNL     1      26.769  63.350  10.164  1.00  0.00    -0.070 NA
HETATM   14  S1  UNL     1      24.738  62.054   9.150  1.00  0.00    -0.044 SA
ENDBRANCH  10  12
ENDBRANCH   7   9
ENDBRANCH   1   7
BRANCH   5  15
HETATM   15  C4  UNL     1      29.104  66.521   7.138  1.00  0.00     0.141 C 
BRANCH  15  16
HETATM   16  C5  UNL     1      30.497  66.325   7.613  1.00  0.00     0.182 C 
BRANCH  16  17
HETATM   17  S2  UNL     1      30.673  65.762   9.260  1.00  0.00     0.226 S 
HETATM   18  O2  UNL     1      29.959  64.427   9.427  1.00  0.00    -0.206 OA
HETATM   19  O3  UNL     1      30.108  66.668  10.294  1.00  0.00    -0.206 OA
BRANCH  17  20
HETATM   20  N6  UNL     1      32.354  65.415   9.572  1.00  0.00    -0.328 N 
ATOM     21  H62 UNL     1      32.840  64.575   9.257  1.00  0.00     0.168 HD
ATOM     22  H61 UNL     1      32.761  66.179  10.112  1.00  0.00     0.168 HD
ENDBRANCH  17  20
ENDBRANCH  16  17
ENDBRANCH  15  16
ENDBRANCH   5  15
TORSDOF 7
ENDMDL
MODEL 3
REMARK VINA RESULT: -5.936025553      2.028      2.285
REMARK  7 active torsions:
REMARK  status: ('A' for Active; 'I' for Inactive)
REMARK    1  A    between atoms: C1_2  and  N2_4 
REMARK    2  A    between atoms: C2_6  and  N3_7 
REMARK    3  A    between atoms: N3_7  and  N4_9 
REMARK       I    between atoms: N4_9  and  C3_11 
REMARK       I    between atoms: C3_11  and  N5_13 
REMARK    4  A    between atoms: N5_13  and  C4_15 
REMARK    5  A    between atoms: C4_15  and  C5_16 
REMARK    6  A    between atoms: C5_16  and  S2_17 
REMARK    7  A    between atoms: S2_17  and  N6_18 
ROOT
HETATM    1  N4  UNL     1      28.192  63.580  11.035  1.00  0.00    -0.251 N 
ATOM      2  H4  UNL     1      28.802  63.224  11.771  1.00  0.00     0.191 HD
HETATM    3  C3  UNL     1      28.597  64.712  10.291  1.00  0.00     0.334 C 
HETATM    4  O1  UNL     1      27.870  65.168   9.383  1.00  0.00    -0.246 OA
HETATM    5  N5  UNL     1      29.834  65.340  10.569  1.00  0.00    -0.341 N 
ATOM      6  H5  UNL     1      30.425  64.964  11.310  1.00  0.00     0.164 HD
ENDROOT
BRANCH   1   7
HETATM    7  N3  UNL     1      26.987  62.941  10.787  1.00  0.00    -0.292 N 
ATOM      8  H3  UNL     1      26.959  62.105  10.205  1.00  0.00     0.187 HD
BRANCH   7   9
HETATM    9  C2  UNL     1      25.802  63.456  11.346  1.00  0.00     0.199 C 
HETATM   10  N2  UNL     1      24.775  63.701  10.623  1.00  0.00    -0.331 N 
ATOM     11  H2  UNL     1      23.950  64.074  11.093  1.00  0.00     0.168 HD
BRANCH  10  12
HETATM   12  C1  UNL     1      24.689  63.499   9.227  1.00  0.00     0.185 C 
HETATM   13  N1  UNL     1      24.693  62.162   8.752  1.00  0.00    -0.070 NA
HETATM   14  S1  UNL     1      24.584  64.700   8.130  1.00  0.00    -0.044 SA
ENDBRANCH  10  12
ENDBRANCH   7   9
ENDBRANCH   1   7
BRANCH   5  15
HETATM   15  C4  UNL     1      30.284  66.500   9.832  1.00  0.00     0.141 C 
BRANCH  15  16
HETATM   16  C5  UNL     1      31.208  66.196   8.710  1.00  0.00     0.182 C 
BRANCH  16  17
HETATM   17  S2  UNL     1      30.581  66.480   7.102  1.00  0.00     0.226 S 
HETATM   18  O2  UNL     1      29.443  67.491   7.165  1.00  0.00    -0.206 OA
HETATM   19  O3  UNL     1      30.033  65.277   6.423  1.00  0.00    -0.206 OA
BRANCH  17  20
HETATM   20  N6  UNL     1      31.812  67.249   6.133  1.00  0.00    -0.328 N 
ATOM     21  H62 UNL     1      31.760  68.206   5.783  1.00  0.00     0.168 HD
ATOM     22  H61 UNL     1      32.577  66.592   5.979  1.00  0.00     0.168 HD
ENDBRANCH  17  20
ENDBRANCH  16  17
ENDBRANCH  15  16
ENDBRANCH   5  15
TORSDOF 7
ENDMDL
MODEL 4
REMARK VINA RESULT: -5.675236721      2.598      5.583
REMARK  7 active torsions:
REMARK  status: ('A' for Active; 'I' for Inactive)
REMARK    1  A    between atoms: C1_2  and  N2_4 
REMARK    2  A    between atoms: C2_6  and  N3_7 
REMARK    3  A    between atoms: N3_7  and  N4_9 
REMARK       I    between atoms: N4_9  and  C3_11 
REMARK       I    between atoms: C3_11  and  N5_13 
REMARK    4  A    between atoms: N5_13  and  C4_15 
REMARK    5  A    between atoms: C4_15  and  C5_16 
REMARK    6  A    between atoms: C5_16  and  S2_17 
REMARK    7  A    between atoms: S2_17  and  N6_18 
ROOT
HETATM    1  N4  UNL     1      27.597  66.395   8.029  1.00  0.00    -0.251 N 
ATOM      2  H4  UNL     1      26.925  65.840   7.499  1.00  0.00     0.191 HD
HETATM    3  C3  UNL     1      27.472  66.470   9.436  1.00  0.00     0.334 C 
HETATM    4  O1  UNL     1      28.281  67.143  10.109  1.00  0.00    -0.246 OA
HETATM    5  N5  UNL     1      26.427  65.780  10.095  1.00  0.00    -0.341 N 
ATOM      6  H5  UNL     1      25.769  65.231   9.541  1.00  0.00     0.164 HD
ENDROOT
BRANCH   1   7
HETATM    7  N3  UNL     1      28.609  67.059   7.354  1.00  0.00    -0.292 N 
ATOM      8  H3  UNL     1      28.784  68.047   7.532  1.00  0.00     0.187 HD
BRANCH   7   9
HETATM    9  C2  UNL     1      29.393  66.358   6.417  1.00  0.00     0.199 C 
HETATM   10  N2  UNL     1      30.486  65.787   6.757  1.00  0.00    -0.331 N 
ATOM     11  H2  UNL     1      31.004  65.298   6.028  1.00  0.00     0.168 HD
BRANCH  10  12
HETATM   12  C1  UNL     1      31.035  65.778   8.059  1.00  0.00     0.185 C 
HETATM   13  N1  UNL     1      30.386  64.992   9.044  1.00  0.00    -0.070 NA
HETATM   14  S1  UNL     1      32.365  66.611   8.500  1.00  0.00    -0.044 SA
ENDBRANCH  10  12
ENDBRANCH   7   9
ENDBRANCH   1   7
BRANCH   5  15
HETATM   15  C4  UNL     1      26.265  65.831  11.531  1.00  0.00     0.141 C 
BRANCH  15  16
HETATM   16  C5  UNL     1      26.388  64.516  12.211  1.00  0.00     0.182 C 
BRANCH  16  17
HETATM   17  S2  UNL     1      27.855  63.620  11.886  1.00  0.00     0.226 S 
HETATM   18  O2  UNL     1      27.850  63.131  10.443  1.00  0.00    -0.206 OA
HETATM   19  O3  UNL     1      28.053  62.416  12.733  1.00  0.00    -0.206 OA
BRANCH  17  20
HETATM   20  N6  UNL     1      29.222  64.700  11.990  1.00  0.00    -0.328 N 
ATOM     21  H62 UNL     1      29.320  65.564  11.457  1.00  0.00     0.168 HD
ATOM     22  H61 UNL     1      29.894  64.327  12.661  1.00  0.00     0.168 HD
ENDBRANCH  17  20
ENDBRANCH  16  17
ENDBRANCH  15  16
ENDBRANCH   5  15
TORSDOF 7
ENDMDL
MODEL 5
REMARK VINA RESULT: -5.662535133      1.652      1.832
REMARK  7 active torsions:
REMARK  status: ('A' for Active; 'I' for Inactive)
REMARK    1  A    between atoms: C1_2  and  N2_4 
REMARK    2  A    between atoms: C2_6  and  N3_7 
REMARK    3  A    between atoms: N3_7  and  N4_9 
REMARK       I    between atoms: N4_9  and  C3_11 
REMARK       I    between atoms: C3_11  and  N5_13 
REMARK    4  A    between atoms: N5_13  and  C4_15 
REMARK    5  A    between atoms: C4_15  and  C5_16 
REMARK    6  A    between atoms: C5_16  and  S2_17 
REMARK    7  A    between atoms: S2_17  and  N6_18 
ROOT
HETATM    1  N4  UNL     1      27.098  65.483  10.480  1.00  0.00    -0.251 N 
ATOM      2  H4  UNL     1      26.707  66.172   9.837  1.00  0.00     0.191 HD
HETATM    3  C3  UNL     1      28.495  65.267  10.495  1.00  0.00     0.334 C 
HETATM    4  O1  UNL     1      28.999  64.429  11.273  1.00  0.00    -0.246 OA
HETATM    5  N5  UNL     1      29.337  66.001   9.626  1.00  0.00    -0.341 N 
ATOM      6  H5  UNL     1      28.922  66.684   8.993  1.00  0.00     0.164 HD
ENDROOT
BRANCH   1   7
HETATM    7  N3  UNL     1      26.246  64.781  11.319  1.00  0.00    -0.292 N 
ATOM      8  H3  UNL     1      26.624  64.146  12.021  1.00  0.00     0.187 HD
BRANCH   7   9
HETATM    9  C2  UNL     1      24.854  64.952  11.193  1.00  0.00     0.199 C 
HETATM   10  N2  UNL     1      24.203  64.433  10.221  1.00  0.00    -0.331 N 
ATOM     11  H2  UNL     1      23.197  64.598  10.192  1.00  0.00     0.168 HD
BRANCH  10  12
HETATM   12  C1  UNL     1      24.762  63.652   9.185  1.00  0.00     0.185 C 
HETATM   13  N1  UNL     1      25.393  64.332   8.112  1.00  0.00    -0.070 NA
HETATM   14  S1  UNL     1      24.730  62.023   9.145  1.00  0.00    -0.044 SA
ENDBRANCH  10  12
ENDBRANCH   7   9
ENDBRANCH   1   7
BRANCH   5  15
HETATM   15  C4  UNL     1      30.771  65.809   9.610  1.00  0.00     0.141 C 
BRANCH  15  16
HETATM   16  C5  UNL     1      31.473  66.513   8.507  1.00  0.00     0.182 C 
BRANCH  16  17
HETATM   17  S2  UNL     1      30.620  66.591   6.982  1.00  0.00     0.226 S 
HETATM   18  O2  UNL     1      29.477  67.593   7.081  1.00  0.00    -0.206 OA
HETATM   19  O3  UNL     1      30.012  65.309   6.540  1.00  0.00    -0.206 OA
BRANCH  17  20
HETATM   20  N6  UNL     1      31.684  67.241   5.761  1.00  0.00    -0.328 N 
ATOM     21  H62 UNL     1      32.193  68.121   5.846  1.00  0.00     0.168 HD
ATOM     22  H61 UNL     1      31.709  66.606   4.964  1.00  0.00     0.168 HD
ENDBRANCH  17  20
ENDBRANCH  16  17
ENDBRANCH  15  16
ENDBRANCH   5  15
TORSDOF 7
ENDMDL
