MODEL 1
REMARK VINA RESULT: -6.415920848      0.000      0.000
REMARK  5 active torsions:
REMARK  status: ('A' for Active; 'I' for Inactive)
REMARK    1  A    between atoms: C2_2  and  C4_4 
REMARK    2  A    between atoms: C4_4  and  N1_5 
REMARK    3  A    between atoms: C4_4  and  C6_10 
REMARK       I    between atoms: C6_10  and  N4_12 
REMARK    4  A    between atoms: N4_12  and  C7_14 
REMARK    5  A    between atoms: C7_14  and  C8_15 
ROOT
HETATM    1  C6  UNL     1      27.412  65.528   9.743  1.00  0.00     0.241 C 
HETATM    2  O1  UNL     1      26.823  65.425   8.643  1.00  0.00    -0.271 OA
HETATM    3  N4  UNL     1      26.889  64.790  10.834  1.00  0.00    -0.340 N 
ATOM      4  H4  UNL     1      27.368  64.875  11.730  1.00  0.00     0.163 HD
ENDROOT
BRANCH   3   5
HETATM    5  C7  UNL     1      25.749  63.941  10.781  1.00  0.00     0.137 C 
HETATM    6  C9  UNL     1      25.422  63.447  12.174  1.00  0.00     0.070 C 
HETATM    7  C10 UNL     1      23.915  63.566  12.274  1.00  0.00     0.235 C 
HETATM    8  N6  UNL     1      23.710  64.854  11.595  1.00  0.00    -0.072 N 
HETATM    9  C11 UNL     1      24.479  64.664  10.400  1.00  0.00     0.272 C 
ATOM     10  H62 UNL     1      22.736  65.122  11.450  1.00  0.00     0.277 HD
ATOM     11  H61 UNL     1      23.949  65.679  12.143  1.00  0.00     0.277 HD
BRANCH   5  12
HETATM   12  C8  UNL     1      25.947  62.717   9.944  1.00  0.00     0.261 C 
HETATM   13  N5  UNL     1      24.960  62.289   9.026  1.00  0.00    -0.060 NA
HETATM   14  O2  UNL     1      26.988  61.999  10.000  1.00  0.00    -0.274 OA
ENDBRANCH   5  12
ENDBRANCH   3   5
BRANCH   1  15
HETATM   15  C4  UNL     1      28.597  66.408   9.799  1.00  0.00     0.179 C 
BRANCH  15  16
HETATM   16  C2  UNL     1      28.386  67.626  10.663  1.00  0.00     0.009 C 
HETATM   17  C1  UNL     1      26.937  67.970  10.838  1.00  0.00     0.012 C 
HETATM   18  C3  UNL     1      29.061  67.488  11.991  1.00  0.00     0.012 C 
ENDBRANCH  15  16
BRANCH  15  19
HETATM   19  N1  UNL     1      28.873  66.848   8.446  1.00  0.00    -0.353 N 
HETATM   20  C5  UNL     1      30.029  66.722   7.893  1.00  0.00     0.197 C 
HETATM   21  N2  UNL     1      31.054  66.121   8.670  1.00  0.00    -0.067 NA
HETATM   22  N3  UNL     1      30.292  67.151   6.581  1.00  0.00    -0.067 NA
ATOM     23  H1  UNL     1      28.119  67.277   7.909  1.00  0.00     0.162 HD
ENDBRANCH  15  19
ENDBRANCH   1  15
TORSDOF 5
ENDMDL
MODEL 2
REMARK VINA RESULT: -6.371753206      1.640      2.748
REMARK  5 active torsions:
REMARK  status: ('A' for Active; 'I' for Inactive)
REMARK    1  A    between atoms: C2_2  and  C4_4 
REMARK    2  A    between atoms: C4_4  and  N1_5 
REMARK    3  A    between atoms: C4_4  and  C6_10 
REMARK       I    between atoms: C6_10  and  N4_12 
REMARK    4  A    between atoms: N4_12  and  C7_14 
REMARK    5  A    between atoms: C7_14  and  C8_15 
ROOT
HETATM    1  C6  UNL     1      27.542  65.702   9.375  1.00  0.00     0.241 C 
HETATM    2  O1  UNL     1      26.940  65.503   8.296  1.00  0.00    -0.271 OA
HETATM    3  N4  UNL     1      27.062  65.025  10.524  1.00  0.00    -0.340 N 
ATOM      4  H4  UNL     1      27.553  65.189  11.403  1.00  0.00     0.163 HD
ENDROOT
BRANCH   3   5
HETATM    5  C7  UNL     1      25.953  64.136  10.551  1.00  0.00     0.137 C 
HETATM    6  C9  UNL     1      25.633  63.770  11.984  1.00  0.00     0.070 C 
HETATM    7  C10 UNL     1      24.123  63.845  12.066  1.00  0.00     0.235 C 
HETATM    8  N6  UNL     1      23.878  65.052  11.264  1.00  0.00    -0.072 N 
HETATM    9  C11 UNL     1      24.662  64.773  10.095  1.00  0.00     0.272 C 
ATOM     10  H62 UNL     1      22.897  65.271  11.090  1.00  0.00     0.277 HD
ATOM     11  H61 UNL     1      24.085  65.936  11.729  1.00  0.00     0.277 HD
BRANCH   5  12
HETATM   12  C8  UNL     1      26.199  62.843   9.838  1.00  0.00     0.261 C 
HETATM   13  N5  UNL     1      27.282  62.005  10.194  1.00  0.00    -0.060 NA
HETATM   14  O2  UNL     1      25.471  62.423   8.893  1.00  0.00    -0.274 OA
ENDBRANCH   5  12
ENDBRANCH   3   5
BRANCH   1  15
HETATM   15  C4  UNL     1      28.695  66.625   9.348  1.00  0.00     0.179 C 
BRANCH  15  16
HETATM   16  C2  UNL     1      29.816  66.141   8.462  1.00  0.00     0.009 C 
HETATM   17  C1  UNL     1      29.922  66.920   7.185  1.00  0.00     0.012 C 
HETATM   18  C3  UNL     1      31.126  66.126   9.182  1.00  0.00     0.012 C 
ENDBRANCH  15  16
BRANCH  15  19
HETATM   19  N1  UNL     1      29.197  66.731  10.704  1.00  0.00    -0.353 N 
HETATM   20  C5  UNL     1      28.726  67.570  11.560  1.00  0.00     0.197 C 
HETATM   21  N2  UNL     1      27.670  68.412  11.123  1.00  0.00    -0.067 NA
HETATM   22  N3  UNL     1      29.216  67.670  12.872  1.00  0.00    -0.067 NA
ATOM     23  H1  UNL     1      29.957  66.114  10.993  1.00  0.00     0.162 HD
ENDBRANCH  15  19
ENDBRANCH   1  15
TORSDOF 5
ENDMDL
MODEL 3
REMARK VINA RESULT: -6.019520284      1.756      5.667
REMARK  5 active torsions:
REMARK  status: ('A' for Active; 'I' for Inactive)
REMARK    1  A    between atoms: C2_2  and  C4_4 
REMARK    2  A    between atoms: C4_4  and  N1_5 
REMARK    3  A    between atoms: C4_4  and  C6_10 
REMARK       I    between atoms: C6_10  and  N4_12 
REMARK    4  A    between atoms: N4_12  and  C7_14 
REMARK    5  A    between atoms: C7_14  and  C8_15 
ROOT
HETATM    1  C6  UNL     1      26.312  64.166  10.216  1.00  0.00     0.241 C 
HETATM    2  O1  UNL     1      27.161  63.280   9.970  1.00  0.00    -0.271 OA
HETATM    3  N4  UNL     1      26.793  65.454  10.556  1.00  0.00    -0.340 N 
ATOM      4  H4  UNL     1      26.100  66.175  10.757  1.00  0.00     0.163 HD
ENDROOT
BRANCH   3   5
HETATM    5  C7  UNL     1      28.163  65.824  10.640  1.00  0.00     0.137 C 
HETATM    6  C9  UNL     1      28.271  67.306  10.926  1.00  0.00     0.070 C 
HETATM    7  C10 UNL     1      29.353  67.411  11.981  1.00  0.00     0.235 C 
HETATM    8  N6  UNL     1      29.013  66.252  12.819  1.00  0.00    -0.072 N 
HETATM    9  C11 UNL     1      28.875  65.224  11.829  1.00  0.00     0.272 C 
ATOM     10  H62 UNL     1      29.670  66.049  13.572  1.00  0.00     0.277 HD
ATOM     11  H61 UNL     1      28.209  66.379  13.434  1.00  0.00     0.277 HD
BRANCH   5  12
HETATM   12  C8  UNL     1      28.930  65.590   9.376  1.00  0.00     0.261 C 
HETATM   13  N5  UNL     1      28.537  66.192   8.158  1.00  0.00    -0.060 NA
HETATM   14  O2  UNL     1      29.958  64.854   9.315  1.00  0.00    -0.274 OA
ENDBRANCH   5  12
ENDBRANCH   3   5
BRANCH   1  15
HETATM   15  C4  UNL     1      24.887  63.783  10.127  1.00  0.00     0.179 C 
BRANCH  15  16
HETATM   16  C2  UNL     1      24.330  63.906   8.730  1.00  0.00     0.009 C 
HETATM   17  C1  UNL     1      25.112  64.858   7.875  1.00  0.00     0.012 C 
HETATM   18  C3  UNL     1      24.209  62.573   8.063  1.00  0.00     0.012 C 
ENDBRANCH  15  16
BRANCH  15  19
HETATM   19  N1  UNL     1      24.145  64.674  10.996  1.00  0.00    -0.353 N 
HETATM   20  C5  UNL     1      23.830  64.367  12.207  1.00  0.00     0.197 C 
HETATM   21  N2  UNL     1      24.245  63.094  12.678  1.00  0.00    -0.067 NA
HETATM   22  N3  UNL     1      23.109  65.233  13.045  1.00  0.00    -0.067 NA
ATOM     23  H1  UNL     1      23.858  65.583  10.633  1.00  0.00     0.162 HD
ENDBRANCH  15  19
ENDBRANCH   1  15
TORSDOF 5
ENDMDL
MODEL 4
REMARK VINA RESULT: -5.999517202      2.139      3.491
REMARK  5 active torsions:
REMARK  status: ('A' for Active; 'I' for Inactive)
REMARK    1  A    between atoms: C2_2  and  C4_4 
REMARK    2  A    between atoms: C4_4  and  N1_5 
REMARK    3  A    between atoms: C4_4  and  C6_10 
REMARK       I    between atoms: C6_10  and  N4_12 
REMARK    4  A    between atoms: N4_12  and  C7_14 
REMARK    5  A    between atoms: C7_14  and  C8_15 
ROOT
HETATM    1  C6  UNL     1      27.756  65.463   9.871  1.00  0.00     0.241 C 
HETATM    2  O1  UNL     1      28.149  64.279   9.969  1.00  0.00    -0.271 OA
HETATM    3  N4  UNL     1      26.365  65.701   9.992  1.00  0.00    -0.340 N 
ATOM      4  H4  UNL     1      26.046  66.666   9.910  1.00  0.00     0.163 HD
ENDROOT
BRANCH   3   5
HETATM    5  C7  UNL     1      25.377  64.704  10.216  1.00  0.00     0.137 C 
HETATM    6  C9  UNL     1      25.103  63.962   8.925  1.00  0.00     0.070 C 
HETATM    7  C10 UNL     1      25.037  62.505   9.332  1.00  0.00     0.235 C 
HETATM    8  N6  UNL     1      26.142  62.453  10.300  1.00  0.00    -0.072 N 
HETATM    9  C11 UNL     1      25.844  63.589  11.123  1.00  0.00     0.272 C 
ATOM     10  H62 UNL     1      26.248  61.569  10.797  1.00  0.00     0.277 HD
ATOM     11  H61 UNL     1      27.078  62.441   9.894  1.00  0.00     0.277 HD
BRANCH   5  12
HETATM   12  C8  UNL     1      24.059  65.251  10.666  1.00  0.00     0.261 C 
HETATM   13  N5  UNL     1      23.398  66.265   9.935  1.00  0.00    -0.060 NA
HETATM   14  O2  UNL     1      23.461  64.851  11.707  1.00  0.00    -0.274 OA
ENDBRANCH   5  12
ENDBRANCH   3   5
BRANCH   1  15
HETATM   15  C4  UNL     1      28.782  66.500   9.639  1.00  0.00     0.179 C 
BRANCH  15  16
HETATM   16  C2  UNL     1      29.861  66.059   8.681  1.00  0.00     0.009 C 
HETATM   17  C1  UNL     1      29.840  66.824   7.392  1.00  0.00     0.012 C 
HETATM   18  C3  UNL     1      31.217  66.116   9.309  1.00  0.00     0.012 C 
ENDBRANCH  15  16
BRANCH  15  19
HETATM   19  N1  UNL     1      29.397  66.795  10.918  1.00  0.00    -0.353 N 
HETATM   20  C5  UNL     1      28.944  67.694  11.721  1.00  0.00     0.197 C 
HETATM   21  N2  UNL     1      27.791  68.409  11.304  1.00  0.00    -0.067 NA
HETATM   22  N3  UNL     1      29.544  67.976  12.959  1.00  0.00    -0.067 NA
ATOM     23  H1  UNL     1      30.225  66.267  11.194  1.00  0.00     0.162 HD
ENDBRANCH  15  19
ENDBRANCH   1  15
TORSDOF 5
ENDMDL
MODEL 5
REMARK VINA RESULT: -5.928322296      1.744      5.767
REMARK  5 active torsions:
REMARK  status: ('A' for Active; 'I' for Inactive)
REMARK    1  A    between atoms: C2_2  and  C4_4 
REMARK    2  A    between atoms: C4_4  and  N1_5 
REMARK    3  A    between atoms: C4_4  and  C6_10 
REMARK       I    between atoms: C6_10  and  N4_12 
REMARK    4  A    between atoms: N4_12  and  C7_14 
REMARK    5  A    between atoms: C7_14  and  C8_15 
ROOT
HETATM    1  C6  UNL     1      26.751  64.104  10.396  1.00  0.00     0.241 C 
HETATM    2  O1  UNL     1      27.687  63.276  10.324  1.00  0.00    -0.271 OA
HETATM    3  N4  UNL     1      27.095  65.457  10.634  1.00  0.00    -0.340 N 
ATOM      4  H4  UNL     1      26.332  66.131  10.694  1.00  0.00     0.163 HD
ENDROOT
BRANCH   3   5
HETATM    5  C7  UNL     1      28.418  65.952  10.798  1.00  0.00     0.137 C 
HETATM    6  C9  UNL     1      28.371  67.443  11.058  1.00  0.00     0.070 C 
HETATM    7  C10 UNL     1      29.368  67.664  12.178  1.00  0.00     0.235 C 
HETATM    8  N6  UNL     1      29.080  66.492  13.018  1.00  0.00    -0.072 N 
HETATM    9  C11 UNL     1      29.101  65.440  12.044  1.00  0.00     0.272 C 
ATOM     10  H62 UNL     1      29.702  66.362  13.815  1.00  0.00     0.277 HD
ATOM     11  H61 UNL     1      28.229  66.554  13.576  1.00  0.00     0.277 HD
BRANCH   5  12
HETATM   12  C8  UNL     1      29.284  65.770   9.592  1.00  0.00     0.261 C 
HETATM   13  N5  UNL     1      30.586  65.225   9.700  1.00  0.00    -0.060 NA
HETATM   14  O2  UNL     1      28.919  66.084   8.422  1.00  0.00    -0.274 OA
ENDBRANCH   5  12
ENDBRANCH   3   5
BRANCH   1  15
HETATM   15  C4  UNL     1      25.376  63.591  10.224  1.00  0.00     0.179 C 
BRANCH  15  16
HETATM   16  C2  UNL     1      24.972  63.462   8.776  1.00  0.00     0.009 C 
HETATM   17  C1  UNL     1      24.181  62.218   8.503  1.00  0.00     0.012 C 
HETATM   18  C3  UNL     1      24.237  64.673   8.296  1.00  0.00     0.012 C 
ENDBRANCH  15  16
BRANCH  15  19
HETATM   19  N1  UNL     1      24.480  64.529  10.868  1.00  0.00    -0.353 N 
HETATM   20  C5  UNL     1      23.984  64.330  12.040  1.00  0.00     0.197 C 
HETATM   21  N2  UNL     1      24.351  63.128  12.700  1.00  0.00    -0.067 NA
HETATM   22  N3  UNL     1      23.114  65.242  12.660  1.00  0.00    -0.067 NA
ATOM     23  H1  UNL     1      24.231  65.385  10.372  1.00  0.00     0.162 HD
ENDBRANCH  15  19
ENDBRANCH   1  15
TORSDOF 5
ENDMDL
