MODEL 1
REMARK VINA RESULT: -6.708867798      0.000      0.000
REMARK  12 active torsions:
REMARK  status: ('A' for Active; 'I' for Inactive)
REMARK    1  A    between atoms: O1_2  and  C2_3 
REMARK    2  A    between atoms: C2_3  and  C3_4 
REMARK    3  A    between atoms: C3_4  and  C4_5 
REMARK    4  A    between atoms: C4_5  and  C5_6 
REMARK    5  A    between atoms: C4_5  and  N2_13 
REMARK    6  A    between atoms: C5_6  and  N1_7 
REMARK    7  A    between atoms: N1_7  and  C6_9 
REMARK    8  A    between atoms: N2_13  and  C10_15 
REMARK    9  A    between atoms: C10_15  and  C11_16 
REMARK   10  A    between atoms: C12_17  and  C13_18 
REMARK   11  A    between atoms: N4_21  and  C14_22 
REMARK   12  A    between atoms: C17_25  and  O2_26 
ROOT
HETATM    1  C10 UNL     1     -42.650  17.105 -22.899  1.00  0.00     0.153 C 
ENDROOT
BRANCH   1   2
HETATM    2  N2  UNL     1     -44.018  17.212 -22.825  1.00  0.00    -0.361 N 
ATOM      3  H2  UNL     1     -44.428  18.146 -22.800  1.00  0.00     0.165 HD
BRANCH   2   4
HETATM    4  C4  UNL     1     -44.892  16.094 -22.782  1.00  0.00     0.026 C 
BRANCH   4   5
HETATM    5  C3  UNL     1     -45.543  15.715 -24.025  1.00  0.00     0.084 C 
BRANCH   5   6
HETATM    6  C2  UNL     1     -44.922  16.011 -25.329  1.00  0.00     0.173 C 
BRANCH   6   7
HETATM    7  O1  UNL     1     -44.884  17.306 -25.764  1.00  0.00    -0.396 OA
HETATM    8  C1  UNL     1     -43.777  17.450 -26.590  1.00  0.00     0.201 C 
ENDBRANCH   6   7
ENDBRANCH   5   6
ENDBRANCH   4   5
BRANCH   4   9
HETATM    9  C5  UNL     1     -45.669  16.154 -21.516  1.00  0.00     0.108 C 
BRANCH   9  10
HETATM   10  N1  UNL     1     -46.216  15.032 -20.930  1.00  0.00    -0.389 N 
ATOM     11  H1  UNL     1     -45.583  14.355 -20.505  1.00  0.00     0.159 HD
BRANCH  10  12
HETATM   12  C6  UNL     1     -47.590  14.768 -20.886  1.00  0.00     0.018 C 
HETATM   13  C7  UNL     1     -48.410  15.863 -21.616  1.00  0.00     0.037 C 
HETATM   14  C8  UNL     1     -48.276  14.387 -19.645  1.00  0.00     0.037 C 
HETATM   15  C9  UNL     1     -47.790  13.547 -21.843  1.00  0.00     0.037 C 
ENDBRANCH  10  12
ENDBRANCH   9  10
ENDBRANCH   4   9
ENDBRANCH   2   4
ENDBRANCH   1   2
BRANCH   1  16
HETATM   16  C11 UNL     1     -42.019  16.573 -21.683  1.00  0.00    -0.054 C 
HETATM   17  C12 UNL     1     -41.471  16.174 -20.662  1.00  0.00    -0.040 C 
BRANCH  17  18
HETATM   18  C13 UNL     1     -40.813  15.748 -19.449  1.00  0.00     0.120 A 
HETATM   19  N3  UNL     1     -40.390  16.569 -18.443  1.00  0.00    -0.289 N 
HETATM   20  N4  UNL     1     -39.838  15.882 -17.465  1.00  0.00    -0.294 N 
ATOM     21  H3  UNL     1     -40.489  17.584 -18.450  1.00  0.00     0.188 HD
HETATM   22  C18 UNL     1     -39.872  14.561 -17.784  1.00  0.00     0.133 A 
HETATM   23  C19 UNL     1     -40.482  14.479 -19.026  1.00  0.00     0.064 A 
HETATM   24 BR1  UNL     1     -40.834  12.904 -20.024  1.00  0.00    -0.046 Br
BRANCH  20  25
HETATM   25  C14 UNL     1     -39.305  16.464 -16.253  1.00  0.00     0.136 C 
HETATM   26  C15 UNL     1     -38.703  15.436 -15.322  1.00  0.00     0.032 C 
HETATM   27  C16 UNL     1     -37.604  16.416 -15.036  1.00  0.00     0.036 C 
HETATM   28  C17 UNL     1     -37.967  17.119 -16.350  1.00  0.00     0.143 C 
BRANCH  28  29
HETATM   29  O2  UNL     1     -37.911  18.490 -16.118  1.00  0.00    -0.393 OA
ATOM     30  H2  UNL     1     -37.849  18.774 -15.214  1.00  0.00     0.210 HD
ENDBRANCH  28  29
ENDBRANCH  20  25
ENDBRANCH  17  18
ENDBRANCH   1  16
TORSDOF 12
ENDMDL
MODEL 2
REMARK VINA RESULT: -6.611559571      1.357      1.565
REMARK  12 active torsions:
REMARK  status: ('A' for Active; 'I' for Inactive)
REMARK    1  A    between atoms: O1_2  and  C2_3 
REMARK    2  A    between atoms: C2_3  and  C3_4 
REMARK    3  A    between atoms: C3_4  and  C4_5 
REMARK    4  A    between atoms: C4_5  and  C5_6 
REMARK    5  A    between atoms: C4_5  and  N2_13 
REMARK    6  A    between atoms: C5_6  and  N1_7 
REMARK    7  A    between atoms: N1_7  and  C6_9 
REMARK    8  A    between atoms: N2_13  and  C10_15 
REMARK    9  A    between atoms: C10_15  and  C11_16 
REMARK   10  A    between atoms: C12_17  and  C13_18 
REMARK   11  A    between atoms: N4_21  and  C14_22 
REMARK   12  A    between atoms: C17_25  and  O2_26 
ROOT
HETATM    1  C10 UNL     1     -42.463  17.971 -23.072  1.00  0.00     0.153 C 
ENDROOT
BRANCH   1   2
HETATM    2  N2  UNL     1     -43.783  17.595 -23.138  1.00  0.00    -0.361 N 
ATOM      3  H2  UNL     1     -44.490  18.326 -23.206  1.00  0.00     0.165 HD
BRANCH   2   4
HETATM    4  C4  UNL     1     -44.216  16.243 -23.116  1.00  0.00     0.026 C 
BRANCH   4   5
HETATM    5  C3  UNL     1     -44.187  15.518 -24.375  1.00  0.00     0.084 C 
BRANCH   5   6
HETATM    6  C2  UNL     1     -44.909  16.021 -25.558  1.00  0.00     0.173 C 
BRANCH   6   7
HETATM    7  O1  UNL     1     -44.810  17.345 -25.880  1.00  0.00    -0.396 OA
HETATM    8  C1  UNL     1     -43.773  17.489 -26.793  1.00  0.00     0.201 C 
ENDBRANCH   6   7
ENDBRANCH   5   6
ENDBRANCH   4   5
BRANCH   4   9
HETATM    9  C5  UNL     1     -45.398  16.142 -22.220  1.00  0.00     0.108 C 
BRANCH   9  10
HETATM   10  N1  UNL     1     -45.286  15.846 -20.878  1.00  0.00    -0.389 N 
ATOM     11  H1  UNL     1     -45.046  16.604 -20.238  1.00  0.00     0.159 HD
BRANCH  10  12
HETATM   12  C6  UNL     1     -45.483  14.568 -20.344  1.00  0.00     0.018 C 
HETATM   13  C7  UNL     1     -46.165  13.617 -21.361  1.00  0.00     0.037 C 
HETATM   14  C8  UNL     1     -46.060  14.356 -19.010  1.00  0.00     0.037 C 
HETATM   15  C9  UNL     1     -44.048  13.949 -20.260  1.00  0.00     0.037 C 
ENDBRANCH  10  12
ENDBRANCH   9  10
ENDBRANCH   4   9
ENDBRANCH   2   4
ENDBRANCH   1   2
BRANCH   1  16
HETATM   16  C11 UNL     1     -41.702  17.323 -21.994  1.00  0.00    -0.054 C 
HETATM   17  C12 UNL     1     -41.110  16.782 -21.069  1.00  0.00    -0.040 C 
BRANCH  17  18
HETATM   18  C13 UNL     1     -40.452  16.135 -19.957  1.00  0.00     0.120 A 
HETATM   19  N3  UNL     1     -40.462  16.574 -18.664  1.00  0.00    -0.289 N 
HETATM   20  N4  UNL     1     -39.783  15.765 -17.879  1.00  0.00    -0.294 N 
ATOM     21  H3  UNL     1     -40.935  17.420 -18.347  1.00  0.00     0.188 HD
HETATM   22  C18 UNL     1     -39.287  14.742 -18.627  1.00  0.00     0.133 A 
HETATM   23  C19 UNL     1     -39.707  14.977 -19.927  1.00  0.00     0.064 A 
HETATM   24 BR1  UNL     1     -39.348  13.908 -21.452  1.00  0.00    -0.046 Br
BRANCH  20  25
HETATM   25  C14 UNL     1     -39.619  15.949 -16.453  1.00  0.00     0.136 C 
HETATM   26  C15 UNL     1     -38.248  15.544 -15.961  1.00  0.00     0.032 C 
HETATM   27  C16 UNL     1     -38.279  16.741 -15.057  1.00  0.00     0.036 C 
HETATM   28  C17 UNL     1     -39.350  17.338 -15.978  1.00  0.00     0.143 C 
BRANCH  28  29
HETATM   29  O2  UNL     1     -40.313  17.930 -15.166  1.00  0.00    -0.393 OA
ATOM     30  H2  UNL     1     -40.640  17.418 -14.436  1.00  0.00     0.210 HD
ENDBRANCH  28  29
ENDBRANCH  20  25
ENDBRANCH  17  18
ENDBRANCH   1  16
TORSDOF 12
ENDMDL
MODEL 3
REMARK VINA RESULT: -6.569593105      1.315      1.770
REMARK  12 active torsions:
REMARK  status: ('A' for Active; 'I' for Inactive)
REMARK    1  A    between atoms: O1_2  and  C2_3 
REMARK    2  A    between atoms: C2_3  and  C3_4 
REMARK    3  A    between atoms: C3_4  and  C4_5 
REMARK    4  A    between atoms: C4_5  and  C5_6 
REMARK    5  A    between atoms: C4_5  and  N2_13 
REMARK    6  A    between atoms: C5_6  and  N1_7 
REMARK    7  A    between atoms: N1_7  and  C6_9 
REMARK    8  A    between atoms: N2_13  and  C10_15 
REMARK    9  A    between atoms: C10_15  and  C11_16 
REMARK   10  A    between atoms: C12_17  and  C13_18 
REMARK   11  A    between atoms: N4_21  and  C14_22 
REMARK   12  A    between atoms: C17_25  and  O2_26 
ROOT
HETATM    1  C10 UNL     1     -43.052  17.244 -23.152  1.00  0.00     0.153 C 
ENDROOT
BRANCH   1   2
HETATM    2  N2  UNL     1     -43.130  16.335 -24.179  1.00  0.00    -0.361 N 
ATOM      3  H2  UNL     1     -42.261  16.002 -24.595  1.00  0.00     0.165 HD
BRANCH   2   4
HETATM    4  C4  UNL     1     -44.355  15.832 -24.692  1.00  0.00     0.026 C 
BRANCH   4   5
HETATM    5  C3  UNL     1     -44.536  15.877 -26.134  1.00  0.00     0.084 C 
BRANCH   5   6
HETATM    6  C2  UNL     1     -43.941  16.957 -26.941  1.00  0.00     0.173 C 
BRANCH   6   7
HETATM    7  O1  UNL     1     -44.146  18.254 -26.565  1.00  0.00    -0.396 OA
HETATM    8  C1  UNL     1     -42.947  18.938 -26.706  1.00  0.00     0.201 C 
ENDBRANCH   6   7
ENDBRANCH   5   6
ENDBRANCH   4   5
BRANCH   4   9
HETATM    9  C5  UNL     1     -45.453  16.256 -23.785  1.00  0.00     0.108 C 
BRANCH   9  10
HETATM   10  N1  UNL     1     -46.509  15.429 -23.465  1.00  0.00    -0.389 N 
ATOM     11  H1  UNL     1     -46.911  14.855 -24.206  1.00  0.00     0.159 HD
BRANCH  10  12
HETATM   12  C6  UNL     1     -47.060  15.331 -22.182  1.00  0.00     0.018 C 
HETATM   13  C7  UNL     1     -47.049  13.870 -21.661  1.00  0.00     0.037 C 
HETATM   14  C8  UNL     1     -48.333  15.969 -21.825  1.00  0.00     0.037 C 
HETATM   15  C9  UNL     1     -46.001  15.998 -21.244  1.00  0.00     0.037 C 
ENDBRANCH  10  12
ENDBRANCH   9  10
ENDBRANCH   4   9
ENDBRANCH   2   4
ENDBRANCH   1   2
BRANCH   1  16
HETATM   16  C11 UNL     1     -42.172  16.835 -22.048  1.00  0.00    -0.054 C 
HETATM   17  C12 UNL     1     -41.458  16.449 -21.131  1.00  0.00    -0.040 C 
BRANCH  17  18
HETATM   18  C13 UNL     1     -40.626  15.949 -20.061  1.00  0.00     0.120 A 
HETATM   19  N3  UNL     1     -40.629  16.405 -18.774  1.00  0.00    -0.289 N 
HETATM   20  N4  UNL     1     -39.769  15.741 -18.030  1.00  0.00    -0.294 N 
ATOM     21  H3  UNL     1     -41.220  17.162 -18.433  1.00  0.00     0.188 HD
HETATM   22  C18 UNL     1     -39.152  14.806 -18.801  1.00  0.00     0.133 A 
HETATM   23  C19 UNL     1     -39.690  14.938 -20.072  1.00  0.00     0.064 A 
HETATM   24 BR1  UNL     1     -39.249  13.918 -21.610  1.00  0.00    -0.046 Br
BRANCH  20  25
HETATM   25  C14 UNL     1     -39.547  15.979 -16.620  1.00  0.00     0.136 C 
HETATM   26  C15 UNL     1     -38.127  15.690 -16.190  1.00  0.00     0.032 C 
HETATM   27  C16 UNL     1     -38.200  16.908 -15.318  1.00  0.00     0.036 C 
HETATM   28  C17 UNL     1     -39.358  17.398 -16.196  1.00  0.00     0.143 C 
BRANCH  28  29
HETATM   29  O2  UNL     1     -40.320  17.943 -15.350  1.00  0.00    -0.393 OA
ATOM     30  H2  UNL     1     -40.087  18.736 -14.883  1.00  0.00     0.210 HD
ENDBRANCH  28  29
ENDBRANCH  20  25
ENDBRANCH  17  18
ENDBRANCH   1  16
TORSDOF 12
ENDMDL
MODEL 4
REMARK VINA RESULT: -6.531125973      2.199      3.136
REMARK  12 active torsions:
REMARK  status: ('A' for Active; 'I' for Inactive)
REMARK    1  A    between atoms: O1_2  and  C2_3 
REMARK    2  A    between atoms: C2_3  and  C3_4 
REMARK    3  A    between atoms: C3_4  and  C4_5 
REMARK    4  A    between atoms: C4_5  and  C5_6 
REMARK    5  A    between atoms: C4_5  and  N2_13 
REMARK    6  A    between atoms: C5_6  and  N1_7 
REMARK    7  A    between atoms: N1_7  and  C6_9 
REMARK    8  A    between atoms: N2_13  and  C10_15 
REMARK    9  A    between atoms: C10_15  and  C11_16 
REMARK   10  A    between atoms: C12_17  and  C13_18 
REMARK   11  A    between atoms: N4_21  and  C14_22 
REMARK   12  A    between atoms: C17_25  and  O2_26 
ROOT
HETATM    1  C10 UNL     1     -43.796  16.547 -22.801  1.00  0.00     0.153 C 
ENDROOT
BRANCH   1   2
HETATM    2  N2  UNL     1     -44.682  15.511 -22.975  1.00  0.00    -0.361 N 
ATOM      3  H2  UNL     1     -44.607  14.951 -23.824  1.00  0.00     0.165 HD
BRANCH   2   4
HETATM    4  C4  UNL     1     -45.695  15.178 -22.039  1.00  0.00     0.026 C 
BRANCH   4   5
HETATM    5  C3  UNL     1     -45.573  13.900 -21.358  1.00  0.00     0.084 C 
BRANCH   5   6
HETATM    6  C2  UNL     1     -45.126  13.826 -19.955  1.00  0.00     0.173 C 
BRANCH   6   7
HETATM    7  O1  UNL     1     -45.702  14.655 -19.033  1.00  0.00    -0.396 OA
HETATM    8  C1  UNL     1     -46.622  13.913 -18.305  1.00  0.00     0.201 C 
ENDBRANCH   6   7
ENDBRANCH   5   6
ENDBRANCH   4   5
BRANCH   4   9
HETATM    9  C5  UNL     1     -47.006  15.611 -22.591  1.00  0.00     0.108 C 
BRANCH   9  10
HETATM   10  N1  UNL     1     -48.001  14.716 -22.923  1.00  0.00    -0.389 N 
ATOM     11  H1  UNL     1     -47.843  14.097 -23.719  1.00  0.00     0.159 HD
BRANCH  10  12
HETATM   12  C6  UNL     1     -49.213  14.607 -22.233  1.00  0.00     0.018 C 
HETATM   13  C7  UNL     1     -49.066  15.016 -20.744  1.00  0.00     0.037 C 
HETATM   14  C8  UNL     1     -50.069  13.418 -22.333  1.00  0.00     0.037 C 
HETATM   15  C9  UNL     1     -50.091  15.778 -22.787  1.00  0.00     0.037 C 
ENDBRANCH  10  12
ENDBRANCH   9  10
ENDBRANCH   4   9
ENDBRANCH   2   4
ENDBRANCH   1   2
BRANCH   1  16
HETATM   16  C11 UNL     1     -42.723  16.268 -21.835  1.00  0.00    -0.054 C 
HETATM   17  C12 UNL     1     -41.862  16.013 -21.002  1.00  0.00    -0.040 C 
BRANCH  17  18
HETATM   18  C13 UNL     1     -40.877  15.683 -19.999  1.00  0.00     0.120 A 
HETATM   19  N3  UNL     1     -40.821  16.205 -18.738  1.00  0.00    -0.289 N 
HETATM   20  N4  UNL     1     -39.816  15.699 -18.055  1.00  0.00    -0.294 N 
ATOM     21  H3  UNL     1     -41.473  16.899 -18.374  1.00  0.00     0.188 HD
HETATM   22  C18 UNL     1     -39.155  14.809 -18.842  1.00  0.00     0.133 A 
HETATM   23  C19 UNL     1     -39.820  14.801 -20.059  1.00  0.00     0.064 A 
HETATM   24 BR1  UNL     1     -39.392  13.761 -21.587  1.00  0.00    -0.046 Br
BRANCH  20  25
HETATM   25  C14 UNL     1     -39.499  16.041 -16.686  1.00  0.00     0.136 C 
HETATM   26  C15 UNL     1     -38.024  15.924 -16.376  1.00  0.00     0.032 C 
HETATM   27  C16 UNL     1     -38.150  17.178 -15.562  1.00  0.00     0.036 C 
HETATM   28  C17 UNL     1     -39.426  17.494 -16.352  1.00  0.00     0.143 C 
BRANCH  28  29
HETATM   29  O2  UNL     1     -40.362  17.987 -15.448  1.00  0.00    -0.393 OA
ATOM     30  H2  UNL     1     -40.031  18.460 -14.694  1.00  0.00     0.210 HD
ENDBRANCH  28  29
ENDBRANCH  20  25
ENDBRANCH  17  18
ENDBRANCH   1  16
TORSDOF 12
ENDMDL
MODEL 5
REMARK VINA RESULT: -6.476750015      1.592      1.931
REMARK  12 active torsions:
REMARK  status: ('A' for Active; 'I' for Inactive)
REMARK    1  A    between atoms: O1_2  and  C2_3 
REMARK    2  A    between atoms: C2_3  and  C3_4 
REMARK    3  A    between atoms: C3_4  and  C4_5 
REMARK    4  A    between atoms: C4_5  and  C5_6 
REMARK    5  A    between atoms: C4_5  and  N2_13 
REMARK    6  A    between atoms: C5_6  and  N1_7 
REMARK    7  A    between atoms: N1_7  and  C6_9 
REMARK    8  A    between atoms: N2_13  and  C10_15 
REMARK    9  A    between atoms: C10_15  and  C11_16 
REMARK   10  A    between atoms: C12_17  and  C13_18 
REMARK   11  A    between atoms: N4_21  and  C14_22 
REMARK   12  A    between atoms: C17_25  and  O2_26 
ROOT
HETATM    1  C10 UNL     1     -43.248  17.086 -23.231  1.00  0.00     0.153 C 
ENDROOT
BRANCH   1   2
HETATM    2  N2  UNL     1     -44.290  16.249 -23.550  1.00  0.00    -0.361 N 
ATOM      3  H2  UNL     1     -44.667  16.288 -24.496  1.00  0.00     0.165 HD
BRANCH   2   4
HETATM    4  C4  UNL     1     -44.869  15.332 -22.634  1.00  0.00     0.026 C 
BRANCH   4   5
HETATM    5  C3  UNL     1     -44.679  13.917 -22.904  1.00  0.00     0.084 C 
BRANCH   5   6
HETATM    6  C2  UNL     1     -44.842  13.375 -24.266  1.00  0.00     0.173 C 
BRANCH   6   7
HETATM    7  O1  UNL     1     -45.771  13.940 -25.095  1.00  0.00    -0.396 OA
HETATM    8  C1  UNL     1     -45.258  13.930 -26.385  1.00  0.00     0.201 C 
ENDBRANCH   6   7
ENDBRANCH   5   6
ENDBRANCH   4   5
BRANCH   4   9
HETATM    9  C5  UNL     1     -46.206  15.847 -22.235  1.00  0.00     0.108 C 
BRANCH   9  10
HETATM   10  N1  UNL     1     -47.356  15.527 -22.924  1.00  0.00    -0.389 N 
ATOM     11  H1  UNL     1     -47.407  15.768 -23.914  1.00  0.00     0.159 HD
BRANCH  10  12
HETATM   12  C6  UNL     1     -48.459  14.890 -22.343  1.00  0.00     0.018 C 
HETATM   13  C7  UNL     1     -48.365  13.347 -22.469  1.00  0.00     0.037 C 
HETATM   14  C8  UNL     1     -49.839  15.319 -22.602  1.00  0.00     0.037 C 
HETATM   15  C9  UNL     1     -48.263  15.085 -20.803  1.00  0.00     0.037 C 
ENDBRANCH  10  12
ENDBRANCH   9  10
ENDBRANCH   4   9
ENDBRANCH   2   4
ENDBRANCH   1   2
BRANCH   1  16
HETATM   16  C11 UNL     1     -42.417  16.619 -22.113  1.00  0.00    -0.054 C 
HETATM   17  C12 UNL     1     -41.685  16.252 -21.201  1.00  0.00    -0.040 C 
BRANCH  17  18
HETATM   18  C13 UNL     1     -40.790  15.849 -20.142  1.00  0.00     0.120 A 
HETATM   19  N3  UNL     1     -40.722  16.414 -18.901  1.00  0.00    -0.289 N 
HETATM   20  N4  UNL     1     -39.815  15.820 -18.154  1.00  0.00    -0.294 N 
ATOM     21  H3  UNL     1     -41.299  17.196 -18.592  1.00  0.00     0.188 HD
HETATM   22  C18 UNL     1     -39.237  14.823 -18.876  1.00  0.00     0.133 A 
HETATM   23  C19 UNL     1     -39.848  14.843 -20.120  1.00  0.00     0.064 A 
HETATM   24 BR1  UNL     1     -39.489  13.695 -21.587  1.00  0.00    -0.046 Br
BRANCH  20  25
HETATM   25  C14 UNL     1     -39.515  16.179 -16.785  1.00  0.00     0.136 C 
HETATM   26  C15 UNL     1     -38.067  15.945 -16.419  1.00  0.00     0.032 C 
HETATM   27  C16 UNL     1     -38.109  17.232 -15.649  1.00  0.00     0.036 C 
HETATM   28  C17 UNL     1     -39.326  17.631 -16.494  1.00  0.00     0.143 C 
BRANCH  28  29
HETATM   29  O2  UNL     1     -40.245  18.234 -15.640  1.00  0.00    -0.393 OA
ATOM     30  H2  UNL     1     -40.375  19.170 -15.734  1.00  0.00     0.210 HD
ENDBRANCH  28  29
ENDBRANCH  20  25
ENDBRANCH  17  18
ENDBRANCH   1  16
TORSDOF 12
ENDMDL
