MODEL 1
REMARK VINA RESULT: -6.273223868      0.000      0.000
REMARK  4 active torsions:
REMARK  status: ('A' for Active; 'I' for Inactive)
REMARK    1  A    between atoms: S1_2  and  C2_3 
REMARK    2  A    between atoms: C5_6  and  C6_7 
REMARK    3  A    between atoms: C8_9  and  O1_10 
REMARK    4  A    between atoms: C9_12  and  O2_13 
ROOT
HETATM    1  C6  UNL     1     -17.270  -2.946  28.780  1.00  0.00     0.195 C 
HETATM    2  C7  UNL     1     -18.344  -2.206  29.563  1.00  0.00     0.069 C 
HETATM    3  C8  UNL     1     -19.530  -3.153  29.519  1.00  0.00     0.176 C 
HETATM    4  C9  UNL     1     -19.213  -3.944  28.259  1.00  0.00     0.348 C 
HETATM    5  N1  UNL     1     -17.800  -4.247  28.473  1.00  0.00    -0.042 N 
ATOM      6  H11 UNL     1     -17.611  -4.970  29.168  1.00  0.00     0.280 HD
ATOM      7  H12 UNL     1     -17.339  -4.735  27.705  1.00  0.00     0.280 HD
ENDROOT
BRANCH   1   8
HETATM    8  C5  UNL     1     -16.039  -2.952  29.606  1.00  0.00     0.016 C 
HETATM    9  C4  UNL     1     -15.423  -1.571  29.801  1.00  0.00     0.008 C 
HETATM   10  C3  UNL     1     -13.976  -1.863  30.129  1.00  0.00     0.015 C 
HETATM   11  C2  UNL     1     -13.778  -2.816  31.247  1.00  0.00     0.047 C 
HETATM   12  C11 UNL     1     -14.848  -3.800  31.523  1.00  0.00     0.015 C 
HETATM   13  C10 UNL     1     -16.210  -3.474  31.005  1.00  0.00     0.008 C 
BRANCH  11  14
HETATM   14  S1  UNL     1     -12.278  -3.788  30.861  1.00  0.00    -0.169 SA
HETATM   15  C1  UNL     1     -12.716  -5.489  30.471  1.00  0.00     0.090 C 
ENDBRANCH  11  14
ENDBRANCH   1   8
BRANCH   3  16
HETATM   16  O1  UNL     1     -20.725  -2.463  29.412  1.00  0.00    -0.391 OA
ATOM     17  H1  UNL     1     -21.189  -2.692  28.615  1.00  0.00     0.210 HD
ENDBRANCH   3  16
BRANCH   4  18
HETATM   18  O2  UNL     1     -19.418  -3.199  27.111  1.00  0.00    -0.368 OA
ATOM     19  H2  UNL     1     -19.968  -3.653  26.483  1.00  0.00     0.212 HD
ENDBRANCH   4  18
TORSDOF 4
ENDMDL
MODEL 2
REMARK VINA RESULT: -6.228769500      1.413      2.270
REMARK  4 active torsions:
REMARK  status: ('A' for Active; 'I' for Inactive)
REMARK    1  A    between atoms: S1_2  and  C2_3 
REMARK    2  A    between atoms: C5_6  and  C6_7 
REMARK    3  A    between atoms: C8_9  and  O1_10 
REMARK    4  A    between atoms: C9_12  and  O2_13 
ROOT
HETATM    1  C6  UNL     1     -17.629  -3.237  30.279  1.00  0.00     0.195 C 
HETATM    2  C7  UNL     1     -18.066  -3.808  28.938  1.00  0.00     0.069 C 
HETATM    3  C8  UNL     1     -19.193  -2.886  28.511  1.00  0.00     0.176 C 
HETATM    4  C9  UNL     1     -19.652  -2.356  29.861  1.00  0.00     0.348 C 
HETATM    5  N1  UNL     1     -18.370  -2.019  30.475  1.00  0.00    -0.042 N 
ATOM      6  H11 UNL     1     -17.924  -1.176  30.115  1.00  0.00     0.280 HD
ATOM      7  H12 UNL     1     -18.422  -1.692  31.440  1.00  0.00     0.280 HD
ENDROOT
BRANCH   1   8
HETATM    8  C5  UNL     1     -16.156  -3.072  30.237  1.00  0.00     0.016 C 
HETATM    9  C4  UNL     1     -15.444  -4.126  29.396  1.00  0.00     0.008 C 
HETATM   10  C3  UNL     1     -14.033  -4.130  29.940  1.00  0.00     0.015 C 
HETATM   11  C2  UNL     1     -13.385  -2.797  29.981  1.00  0.00     0.047 C 
HETATM   12  C11 UNL     1     -14.251  -1.603  30.086  1.00  0.00     0.015 C 
HETATM   13  C10 UNL     1     -15.675  -1.767  29.668  1.00  0.00     0.008 C 
BRANCH  11  14
HETATM   14  S1  UNL     1     -12.303  -2.775  31.455  1.00  0.00    -0.169 SA
HETATM   15  C1  UNL     1     -13.241  -3.217  32.927  1.00  0.00     0.090 C 
ENDBRANCH  11  14
ENDBRANCH   1   8
BRANCH   3  16
HETATM   16  O1  UNL     1     -20.196  -3.581  27.858  1.00  0.00    -0.391 OA
ATOM     17  H1  UNL     1     -21.055  -3.349  28.192  1.00  0.00     0.210 HD
ENDBRANCH   3  16
BRANCH   4  18
HETATM   18  O2  UNL     1     -20.343  -3.310  30.587  1.00  0.00    -0.368 OA
ATOM     19  H2  UNL     1     -19.759  -3.882  31.073  1.00  0.00     0.212 HD
ENDBRANCH   4  18
TORSDOF 4
ENDMDL
MODEL 3
REMARK VINA RESULT: -6.144220123      1.542      1.975
REMARK  4 active torsions:
REMARK  status: ('A' for Active; 'I' for Inactive)
REMARK    1  A    between atoms: S1_2  and  C2_3 
REMARK    2  A    between atoms: C5_6  and  C6_7 
REMARK    3  A    between atoms: C8_9  and  O1_10 
REMARK    4  A    between atoms: C9_12  and  O2_13 
ROOT
HETATM    1  C6  UNL     1     -17.182  -3.035  29.265  1.00  0.00     0.195 C 
HETATM    2  C7  UNL     1     -18.347  -2.383  29.995  1.00  0.00     0.069 C 
HETATM    3  C8  UNL     1     -19.545  -3.208  29.559  1.00  0.00     0.176 C 
HETATM    4  C9  UNL     1     -19.041  -3.757  28.233  1.00  0.00     0.348 C 
HETATM    5  N1  UNL     1     -17.703  -4.205  28.611  1.00  0.00    -0.042 N 
ATOM      6  H11 UNL     1     -17.671  -5.063  29.162  1.00  0.00     0.280 HD
ATOM      7  H12 UNL     1     -17.133  -4.567  27.846  1.00  0.00     0.280 HD
ENDROOT
BRANCH   1   8
HETATM    8  C5  UNL     1     -16.119  -3.298  30.265  1.00  0.00     0.016 C 
HETATM    9  C4  UNL     1     -15.273  -4.527  29.951  1.00  0.00     0.008 C 
HETATM   10  C3  UNL     1     -14.701  -4.924  31.294  1.00  0.00     0.015 C 
HETATM   11  C2  UNL     1     -14.003  -3.831  32.013  1.00  0.00     0.047 C 
HETATM   12  C11 UNL     1     -14.405  -2.438  31.725  1.00  0.00     0.015 C 
HETATM   13  C10 UNL     1     -15.112  -2.196  30.431  1.00  0.00     0.008 C 
BRANCH  11  14
HETATM   14  S1  UNL     1     -14.303  -4.091  33.799  1.00  0.00    -0.169 SA
HETATM   15  C1  UNL     1     -12.869  -4.858  34.570  1.00  0.00     0.090 C 
ENDBRANCH  11  14
ENDBRANCH   1   8
BRANCH   3  16
HETATM   16  O1  UNL     1     -20.672  -2.421  29.400  1.00  0.00    -0.391 OA
ATOM     17  H1  UNL     1     -20.727  -1.753  30.073  1.00  0.00     0.210 HD
ENDBRANCH   3  16
BRANCH   4  18
HETATM   18  O2  UNL     1     -19.007  -2.787  27.247  1.00  0.00    -0.368 OA
ATOM     19  H2  UNL     1     -19.213  -3.142  26.389  1.00  0.00     0.212 HD
ENDBRANCH   4  18
TORSDOF 4
ENDMDL
MODEL 4
REMARK VINA RESULT: -6.060603745      1.841      2.433
REMARK  4 active torsions:
REMARK  status: ('A' for Active; 'I' for Inactive)
REMARK    1  A    between atoms: S1_2  and  C2_3 
REMARK    2  A    between atoms: C5_6  and  C6_7 
REMARK    3  A    between atoms: C8_9  and  O1_10 
REMARK    4  A    between atoms: C9_12  and  O2_13 
ROOT
HETATM    1  C6  UNL     1     -17.071  -3.703  29.046  1.00  0.00     0.195 C 
HETATM    2  C7  UNL     1     -17.645  -2.971  30.251  1.00  0.00     0.069 C 
HETATM    3  C8  UNL     1     -19.131  -3.272  30.171  1.00  0.00     0.176 C 
HETATM    4  C9  UNL     1     -19.283  -3.558  28.685  1.00  0.00     0.348 C 
HETATM    5  N1  UNL     1     -18.150  -4.453  28.460  1.00  0.00    -0.042 N 
ATOM      6  H11 UNL     1     -18.266  -5.400  28.819  1.00  0.00     0.280 HD
ATOM      7  H12 UNL     1     -18.006  -4.738  27.491  1.00  0.00     0.280 HD
ENDROOT
BRANCH   1   8
HETATM    8  C5  UNL     1     -15.928  -4.519  29.522  1.00  0.00     0.016 C 
HETATM    9  C4  UNL     1     -15.456  -5.561  28.514  1.00  0.00     0.008 C 
HETATM   10  C3  UNL     1     -14.749  -6.592  29.364  1.00  0.00     0.015 C 
HETATM   11  C2  UNL     1     -13.700  -6.041  30.255  1.00  0.00     0.047 C 
HETATM   12  C11 UNL     1     -13.822  -4.633  30.689  1.00  0.00     0.015 C 
HETATM   13  C10 UNL     1     -14.684  -3.744  29.853  1.00  0.00     0.008 C 
BRANCH  11  14
HETATM   14  S1  UNL     1     -13.712  -7.049  31.781  1.00  0.00    -0.169 SA
HETATM   15  C1  UNL     1     -12.695  -6.277  33.051  1.00  0.00     0.090 C 
ENDBRANCH  11  14
ENDBRANCH   1   8
BRANCH   3  16
HETATM   16  O1  UNL     1     -19.890  -2.185  30.570  1.00  0.00    -0.391 OA
ATOM     17  H1  UNL     1     -19.385  -1.381  30.546  1.00  0.00     0.210 HD
ENDBRANCH   3  16
BRANCH   4  18
HETATM   18  O2  UNL     1     -19.197  -2.408  27.922  1.00  0.00    -0.368 OA
ATOM     19  H2  UNL     1     -18.334  -2.011  27.967  1.00  0.00     0.212 HD
ENDBRANCH   4  18
TORSDOF 4
ENDMDL
MODEL 5
REMARK VINA RESULT: -6.019679916      1.284      1.778
REMARK  4 active torsions:
REMARK  status: ('A' for Active; 'I' for Inactive)
REMARK    1  A    between atoms: S1_2  and  C2_3 
REMARK    2  A    between atoms: C5_6  and  C6_7 
REMARK    3  A    between atoms: C8_9  and  O1_10 
REMARK    4  A    between atoms: C9_12  and  O2_13 
ROOT
HETATM    1  C6  UNL     1     -17.552  -3.195  30.480  1.00  0.00     0.195 C 
HETATM    2  C7  UNL     1     -17.874  -3.912  29.177  1.00  0.00     0.069 C 
HETATM    3  C8  UNL     1     -18.916  -3.017  28.530  1.00  0.00     0.176 C 
HETATM    4  C9  UNL     1     -19.486  -2.316  29.753  1.00  0.00     0.348 C 
HETATM    5  N1  UNL     1     -18.259  -1.943  30.453  1.00  0.00    -0.042 N 
ATOM      6  H11 UNL     1     -17.746  -1.162  30.044  1.00  0.00     0.280 HD
ATOM      7  H12 UNL     1     -18.394  -1.500  31.362  1.00  0.00     0.280 HD
ENDROOT
BRANCH   1   8
HETATM    8  C5  UNL     1     -16.076  -3.078  30.572  1.00  0.00     0.016 C 
HETATM    9  C4  UNL     1     -15.560  -1.656  30.381  1.00  0.00     0.008 C 
HETATM   10  C3  UNL     1     -14.125  -1.848  29.944  1.00  0.00     0.015 C 
HETATM   11  C2  UNL     1     -13.317  -2.707  30.843  1.00  0.00     0.047 C 
HETATM   12  C11 UNL     1     -14.021  -3.723  31.655  1.00  0.00     0.015 C 
HETATM   13  C10 UNL     1     -15.481  -3.507  31.883  1.00  0.00     0.008 C 
BRANCH  11  14
HETATM   14  S1  UNL     1     -12.138  -3.624  29.787  1.00  0.00    -0.169 SA
HETATM   15  C1  UNL     1     -13.006  -4.858  28.805  1.00  0.00     0.090 C 
ENDBRANCH  11  14
ENDBRANCH   1   8
BRANCH   3  16
HETATM   16  O1  UNL     1     -19.876  -3.758  27.862  1.00  0.00    -0.391 OA
ATOM     17  H1  UNL     1     -20.127  -3.346  27.044  1.00  0.00     0.210 HD
ENDBRANCH   3  16
BRANCH   4  18
HETATM   18  O2  UNL     1     -20.283  -3.156  30.510  1.00  0.00    -0.368 OA
ATOM     19  H2  UNL     1     -21.059  -2.714  30.837  1.00  0.00     0.212 HD
ENDBRANCH   4  18
TORSDOF 4
ENDMDL
