MODEL 1
REMARK VINA RESULT: -7.082495315      0.000      0.000
REMARK  6 active torsions:
REMARK  status: ('A' for Active; 'I' for Inactive)
REMARK    1  A    between atoms: O1_2  and  N1_3 
REMARK       I    between atoms: N1_3  and  C2_5 
REMARK    2  A    between atoms: C2_5  and  C3_7 
REMARK    3  A    between atoms: C3_7  and  C4_9 
REMARK    4  A    between atoms: C6_19  and  N6_20 
REMARK    5  A    between atoms: N6_20  and  N7_22 
REMARK    6  A    between atoms: C8_26  and  C9_27 
ROOT
HETATM    1  C4  UNL     1      29.980  42.500   2.599  1.00  0.00     0.122 A 
HETATM    2  N2  UNL     1      30.433  43.053   3.761  1.00  0.00    -0.274 N 
ATOM      3  H2  UNL     1      30.708  44.030   3.866  1.00  0.00     0.189 HD
HETATM    4  N3  UNL     1      30.468  42.165   4.726  1.00  0.00    -0.188 N 
HETATM    5  N4  UNL     1      30.840  42.284   5.997  1.00  0.00    -0.229 N 
ATOM      6  H4  UNL     1      31.163  43.186   6.347  1.00  0.00     0.194 HD
HETATM    7  C5  UNL     1      30.796  41.224   6.826  1.00  0.00     0.342 A 
HETATM    8  O4  UNL     1      31.154  41.350   8.035  1.00  0.00    -0.245 OA
HETATM    9  N5  UNL     1      30.362  40.027   6.339  1.00  0.00    -0.290 N 
ATOM     10  H5  UNL     1      30.321  39.212   6.952  1.00  0.00     0.172 HD
HETATM   11  C6  UNL     1      29.987  39.917   5.049  1.00  0.00     0.155 A 
HETATM   12  C7  UNL     1      30.034  41.006   4.203  1.00  0.00     0.137 A 
HETATM   13  C8  UNL     1      29.718  41.174   2.871  1.00  0.00     0.077 A 
ENDROOT
BRANCH  13  14
HETATM   14  C9  UNL     1      29.210  40.157   1.943  1.00  0.00     0.152 A 
HETATM   15  N8  UNL     1      27.923  39.737   1.819  1.00  0.00    -0.268 N 
HETATM   16  N9  UNL     1      27.899  38.828   0.883  1.00  0.00    -0.227 N 
ATOM     17  H8  UNL     1      27.123  40.070   2.357  1.00  0.00     0.190 HD
HETATM   18  N10 UNL     1      29.099  38.618   0.376  1.00  0.00    -0.227 N 
ATOM     19  H9  UNL     1      27.055  38.340   0.581  1.00  0.00     0.210 HD
HETATM   20  N11 UNL     1      29.894  39.441   1.035  1.00  0.00    -0.268 N 
ATOM     21  H10 UNL     1      29.355  37.963  -0.363  1.00  0.00     0.210 HD
ATOM     22  H11 UNL     1      30.899  39.522   0.876  1.00  0.00     0.190 HD
ENDBRANCH  13  14
BRANCH   1  23
HETATM   23  C3  UNL     1      29.808  43.175   1.329  1.00  0.00     0.270 C 
HETATM   24  O3  UNL     1      30.780  43.747   0.784  1.00  0.00    -0.280 OA
BRANCH  23  25
HETATM   25  C2  UNL     1      28.524  43.210   0.652  1.00  0.00     0.317 C 
HETATM   26  N1  UNL     1      28.269  42.459  -0.519  1.00  0.00    -0.228 N 
ATOM     27  H1  UNL     1      29.013  41.874  -0.899  1.00  0.00     0.198 HD
HETATM   28  O2  UNL     1      27.591  43.937   1.121  1.00  0.00    -0.262 OA
BRANCH  26  29
HETATM   29  O1  UNL     1      27.081  42.489  -1.147  1.00  0.00    -0.282 OA
HETATM   30  C1  UNL     1      26.587  41.247  -1.481  1.00  0.00     0.237 C 
ENDBRANCH  26  29
ENDBRANCH  23  25
ENDBRANCH   1  23
BRANCH  11  31
HETATM   31  N6  UNL     1      29.580  38.775   4.609  1.00  0.00    -0.290 N 
ATOM     32  H6  UNL     1      29.009  38.762   3.764  1.00  0.00     0.188 HD
BRANCH  31  33
HETATM   33  N7  UNL     1      29.871  37.571   5.217  1.00  0.00    -0.344 N 
ATOM     34  H72 UNL     1      30.677  37.550   5.842  1.00  0.00     0.176 HD
ATOM     35  H71 UNL     1      29.330  36.718   5.074  1.00  0.00     0.176 HD
ENDBRANCH  31  33
ENDBRANCH  11  31
TORSDOF 6
ENDMDL
MODEL 2
REMARK VINA RESULT: -7.054524991      1.282      1.630
REMARK  6 active torsions:
REMARK  status: ('A' for Active; 'I' for Inactive)
REMARK    1  A    between atoms: O1_2  and  N1_3 
REMARK       I    between atoms: N1_3  and  C2_5 
REMARK    2  A    between atoms: C2_5  and  C3_7 
REMARK    3  A    between atoms: C3_7  and  C4_9 
REMARK    4  A    between atoms: C6_19  and  N6_20 
REMARK    5  A    between atoms: N6_20  and  N7_22 
REMARK    6  A    between atoms: C8_26  and  C9_27 
ROOT
HETATM    1  C4  UNL     1      29.148  42.694   3.517  1.00  0.00     0.122 A 
HETATM    2  N2  UNL     1      29.609  43.166   4.712  1.00  0.00    -0.274 N 
ATOM      3  H2  UNL     1      29.589  44.147   4.990  1.00  0.00     0.189 HD
HETATM    4  N3  UNL     1      30.080  42.194   5.456  1.00  0.00    -0.188 N 
HETATM    5  N4  UNL     1      30.616  42.217   6.672  1.00  0.00    -0.229 N 
ATOM      6  H4  UNL     1      30.706  43.105   7.167  1.00  0.00     0.194 HD
HETATM    7  C5  UNL     1      31.040  41.081   7.257  1.00  0.00     0.342 A 
HETATM    8  O4  UNL     1      31.549  41.118   8.416  1.00  0.00    -0.245 OA
HETATM    9  N5  UNL     1      30.911  39.906   6.578  1.00  0.00    -0.290 N 
ATOM     10  H5  UNL     1      31.227  39.034   7.004  1.00  0.00     0.172 HD
HETATM   11  C6  UNL     1      30.366  39.893   5.345  1.00  0.00     0.155 A 
HETATM   12  C7  UNL     1      29.933  41.059   4.750  1.00  0.00     0.137 A 
HETATM   13  C8  UNL     1      29.352  41.330   3.529  1.00  0.00     0.077 A 
ENDROOT
BRANCH  13  14
HETATM   14  C9  UNL     1      29.021  40.371   2.469  1.00  0.00     0.152 A 
HETATM   15  N8  UNL     1      27.847  39.704   2.311  1.00  0.00    -0.268 N 
HETATM   16  N9  UNL     1      27.965  38.955   1.250  1.00  0.00    -0.227 N 
ATOM     17  H8  UNL     1      27.025  39.777   2.910  1.00  0.00     0.190 HD
HETATM   18  N10 UNL     1      29.154  39.084   0.691  1.00  0.00    -0.227 N 
ATOM     19  H9  UNL     1      27.229  38.344   0.896  1.00  0.00     0.210 HD
HETATM   20  N11 UNL     1      29.792  39.957   1.449  1.00  0.00    -0.268 N 
ATOM     21  H10 UNL     1      29.503  38.612  -0.144  1.00  0.00     0.210 HD
ATOM     22  H11 UNL     1      30.747  40.275   1.283  1.00  0.00     0.190 HD
ENDBRANCH  13  14
BRANCH   1  23
HETATM   23  C3  UNL     1      28.560  43.474   2.448  1.00  0.00     0.270 C 
HETATM   24  O3  UNL     1      27.472  44.069   2.627  1.00  0.00    -0.280 OA
BRANCH  23  25
HETATM   25  C2  UNL     1      29.202  43.593   1.150  1.00  0.00     0.317 C 
HETATM   26  N1  UNL     1      28.461  43.734  -0.046  1.00  0.00    -0.228 N 
ATOM     27  H1  UNL     1      27.442  43.752   0.006  1.00  0.00     0.198 HD
HETATM   28  O2  UNL     1      30.471  43.572   1.079  1.00  0.00    -0.262 OA
BRANCH  26  29
HETATM   29  O1  UNL     1      29.052  43.845  -1.248  1.00  0.00    -0.282 OA
HETATM   30  C1  UNL     1      29.007  45.114  -1.784  1.00  0.00     0.237 C 
ENDBRANCH  26  29
ENDBRANCH  23  25
ENDBRANCH   1  23
BRANCH  11  31
HETATM   31  N6  UNL     1      30.254  38.770   4.721  1.00  0.00    -0.290 N 
ATOM     32  H6  UNL     1      30.248  38.785   3.701  1.00  0.00     0.188 HD
BRANCH  31  33
HETATM   33  N7  UNL     1      30.141  37.548   5.354  1.00  0.00    -0.344 N 
ATOM     34  H72 UNL     1      29.541  37.507   6.178  1.00  0.00     0.176 HD
ATOM     35  H71 UNL     1      30.618  36.702   5.044  1.00  0.00     0.176 HD
ENDBRANCH  31  33
ENDBRANCH  11  31
TORSDOF 6
ENDMDL
MODEL 3
REMARK VINA RESULT: -6.874939385      2.479      6.734
REMARK  6 active torsions:
REMARK  status: ('A' for Active; 'I' for Inactive)
REMARK    1  A    between atoms: O1_2  and  N1_3 
REMARK       I    between atoms: N1_3  and  C2_5 
REMARK    2  A    between atoms: C2_5  and  C3_7 
REMARK    3  A    between atoms: C3_7  and  C4_9 
REMARK    4  A    between atoms: C6_19  and  N6_20 
REMARK    5  A    between atoms: N6_20  and  N7_22 
REMARK    6  A    between atoms: C8_26  and  C9_27 
ROOT
HETATM    1  C4  UNL     1      30.597  42.745   6.212  1.00  0.00     0.122 A 
HETATM    2  N2  UNL     1      30.633  43.031   4.878  1.00  0.00    -0.274 N 
ATOM      3  H2  UNL     1      30.904  43.934   4.490  1.00  0.00     0.189 HD
HETATM    4  N3  UNL     1      30.275  41.992   4.161  1.00  0.00    -0.188 N 
HETATM    5  N4  UNL     1      30.175  41.845   2.844  1.00  0.00    -0.229 N 
ATOM      6  H4  UNL     1      30.398  42.628   2.229  1.00  0.00     0.194 HD
HETATM    7  C5  UNL     1      29.782  40.672   2.313  1.00  0.00     0.342 A 
HETATM    8  O4  UNL     1      29.690  40.544   1.056  1.00  0.00    -0.245 OA
HETATM    9  N5  UNL     1      29.488  39.637   3.152  1.00  0.00    -0.290 N 
ATOM     10  H5  UNL     1      29.188  38.741   2.769  1.00  0.00     0.172 HD
HETATM   11  C6  UNL     1      29.592  39.798   4.486  1.00  0.00     0.155 A 
HETATM   12  C7  UNL     1      29.996  41.002   5.025  1.00  0.00     0.137 A 
HETATM   13  C8  UNL     1      30.186  41.433   6.321  1.00  0.00     0.077 A 
ENDROOT
BRANCH  13  14
HETATM   14  C9  UNL     1      29.991  40.660   7.553  1.00  0.00     0.152 A 
HETATM   15  N8  UNL     1      28.837  40.530   8.260  1.00  0.00    -0.268 N 
HETATM   16  N9  UNL     1      29.092  39.762   9.283  1.00  0.00    -0.227 N 
ATOM     17  H8  UNL     1      27.938  40.955   8.033  1.00  0.00     0.190 HD
HETATM   18  N10 UNL     1      30.352  39.371   9.298  1.00  0.00    -0.227 N 
ATOM     19  H9  UNL     1      28.401  39.495   9.985  1.00  0.00     0.210 HD
HETATM   20  N11 UNL     1      30.893  39.929   8.230  1.00  0.00    -0.268 N 
ATOM     21  H10 UNL     1      30.809  38.770   9.984  1.00  0.00     0.210 HD
ATOM     22  H11 UNL     1      31.870  39.820   7.955  1.00  0.00     0.190 HD
ENDBRANCH  13  14
BRANCH   1  23
HETATM   23  C3  UNL     1      30.926  43.643   7.299  1.00  0.00     0.270 C 
HETATM   24  O3  UNL     1      30.238  44.672   7.494  1.00  0.00    -0.280 OA
BRANCH  23  25
HETATM   25  C2  UNL     1      32.046  43.387   8.187  1.00  0.00     0.317 C 
HETATM   26  N1  UNL     1      33.379  43.690   7.825  1.00  0.00    -0.228 N 
ATOM     27  H1  UNL     1      33.558  44.101   6.909  1.00  0.00     0.198 HD
HETATM   28  O2  UNL     1      31.829  42.874   9.331  1.00  0.00    -0.262 OA
BRANCH  26  29
HETATM   29  O1  UNL     1      34.417  43.454   8.646  1.00  0.00    -0.282 OA
HETATM   30  C1  UNL     1      35.058  44.591   9.086  1.00  0.00     0.237 C 
ENDBRANCH  26  29
ENDBRANCH  23  25
ENDBRANCH   1  23
BRANCH  11  31
HETATM   31  N6  UNL     1      29.310  38.806   5.260  1.00  0.00    -0.290 N 
ATOM     32  H6  UNL     1      28.411  38.815   5.744  1.00  0.00     0.188 HD
BRANCH  31  33
HETATM   33  N7  UNL     1      30.151  37.733   5.472  1.00  0.00    -0.344 N 
ATOM     34  H72 UNL     1      30.969  37.894   6.060  1.00  0.00     0.176 HD
ATOM     35  H71 UNL     1      29.997  36.805   5.078  1.00  0.00     0.176 HD
ENDBRANCH  31  33
ENDBRANCH  11  31
TORSDOF 6
ENDMDL
MODEL 4
REMARK VINA RESULT: -6.847569602      4.221      9.258
REMARK  6 active torsions:
REMARK  status: ('A' for Active; 'I' for Inactive)
REMARK    1  A    between atoms: O1_2  and  N1_3 
REMARK       I    between atoms: N1_3  and  C2_5 
REMARK    2  A    between atoms: C2_5  and  C3_7 
REMARK    3  A    between atoms: C3_7  and  C4_9 
REMARK    4  A    between atoms: C6_19  and  N6_20 
REMARK    5  A    between atoms: N6_20  and  N7_22 
REMARK    6  A    between atoms: C8_26  and  C9_27 
ROOT
HETATM    1  C4  UNL     1      31.460  38.688   8.829  1.00  0.00     0.122 A 
HETATM    2  N2  UNL     1      31.064  38.031   7.701  1.00  0.00    -0.274 N 
ATOM      3  H2  UNL     1      31.078  37.018   7.589  1.00  0.00     0.189 HD
HETATM    4  N3  UNL     1      30.662  38.874   6.778  1.00  0.00    -0.188 N 
HETATM    5  N4  UNL     1      30.202  38.657   5.551  1.00  0.00    -0.229 N 
ATOM      6  H4  UNL     1      30.122  37.701   5.202  1.00  0.00     0.194 HD
HETATM    7  C5  UNL     1      29.840  39.686   4.762  1.00  0.00     0.342 A 
HETATM    8  O4  UNL     1      29.404  39.466   3.593  1.00  0.00    -0.245 OA
HETATM    9  N5  UNL     1      29.955  40.956   5.246  1.00  0.00    -0.290 N 
ATOM     10  H5  UNL     1      29.687  41.749   4.663  1.00  0.00     0.172 HD
HETATM   11  C6  UNL     1      30.423  41.165   6.493  1.00  0.00     0.155 A 
HETATM   12  C7  UNL     1      30.791  40.107   7.297  1.00  0.00     0.137 A 
HETATM   13  C8  UNL     1      31.289  40.034   8.581  1.00  0.00     0.077 A 
ENDROOT
BRANCH  13  14
HETATM   14  C9  UNL     1      31.574  41.150   9.490  1.00  0.00     0.152 A 
HETATM   15  N8  UNL     1      30.839  41.531  10.568  1.00  0.00    -0.268 N 
HETATM   16  N9  UNL     1      31.436  42.562  11.101  1.00  0.00    -0.227 N 
ATOM     17  H8  UNL     1      29.980  41.093  10.900  1.00  0.00     0.190 HD
HETATM   18  N10 UNL     1      32.529  42.890  10.438  1.00  0.00    -0.227 N 
ATOM     19  H9  UNL     1      31.100  43.054  11.929  1.00  0.00     0.210 HD
HETATM   20  N11 UNL     1      32.603  42.015   9.451  1.00  0.00    -0.268 N 
ATOM     21  H10 UNL     1      33.175  43.652  10.642  1.00  0.00     0.210 HD
ATOM     22  H11 UNL     1      33.344  41.997   8.750  1.00  0.00     0.190 HD
ENDBRANCH  13  14
BRANCH   1  23
HETATM   23  C3  UNL     1      31.962  38.088  10.048  1.00  0.00     0.270 C 
HETATM   24  O3  UNL     1      31.388  38.306  11.139  1.00  0.00    -0.280 OA
BRANCH  23  25
HETATM   25  C2  UNL     1      33.129  37.223  10.047  1.00  0.00     0.317 C 
HETATM   26  N1  UNL     1      33.629  36.632  11.230  1.00  0.00    -0.228 N 
ATOM     27  H1  UNL     1      33.154  36.820  12.113  1.00  0.00     0.198 HD
HETATM   28  O2  UNL     1      33.727  36.984   8.950  1.00  0.00    -0.262 OA
BRANCH  26  29
HETATM   29  O1  UNL     1      34.709  35.831  11.232  1.00  0.00    -0.282 OA
HETATM   30  C1  UNL     1      35.584  36.067  12.269  1.00  0.00     0.237 C 
ENDBRANCH  26  29
ENDBRANCH  23  25
ENDBRANCH   1  23
BRANCH  11  31
HETATM   31  N6  UNL     1      30.522  42.374   6.930  1.00  0.00    -0.290 N 
ATOM     32  H6  UNL     1      29.950  42.644   7.730  1.00  0.00     0.188 HD
BRANCH  31  33
HETATM   33  N7  UNL     1      31.358  43.324   6.378  1.00  0.00    -0.344 N 
ATOM     34  H72 UNL     1      31.337  43.427   5.363  1.00  0.00     0.176 HD
ATOM     35  H71 UNL     1      31.983  43.916   6.924  1.00  0.00     0.176 HD
ENDBRANCH  31  33
ENDBRANCH  11  31
TORSDOF 6
ENDMDL
MODEL 5
REMARK VINA RESULT: -6.825250364      1.590      1.625
REMARK  6 active torsions:
REMARK  status: ('A' for Active; 'I' for Inactive)
REMARK    1  A    between atoms: O1_2  and  N1_3 
REMARK       I    between atoms: N1_3  and  C2_5 
REMARK    2  A    between atoms: C2_5  and  C3_7 
REMARK    3  A    between atoms: C3_7  and  C4_9 
REMARK    4  A    between atoms: C6_19  and  N6_20 
REMARK    5  A    between atoms: N6_20  and  N7_22 
REMARK    6  A    between atoms: C8_26  and  C9_27 
ROOT
HETATM    1  C4  UNL     1      29.680  42.576   3.577  1.00  0.00     0.122 A 
HETATM    2  N2  UNL     1      30.171  42.970   4.787  1.00  0.00    -0.274 N 
ATOM      3  H2  UNL     1      30.314  43.941   5.063  1.00  0.00     0.189 HD
HETATM    4  N3  UNL     1      30.436  41.936   5.551  1.00  0.00    -0.188 N 
HETATM    5  N4  UNL     1      30.921  41.875   6.786  1.00  0.00    -0.229 N 
ATOM      6  H4  UNL     1      31.147  42.737   7.283  1.00  0.00     0.194 HD
HETATM    7  C5  UNL     1      31.116  40.687   7.389  1.00  0.00     0.342 A 
HETATM    8  O4  UNL     1      31.580  40.643   8.567  1.00  0.00    -0.245 OA
HETATM    9  N5  UNL     1      30.807  39.547   6.708  1.00  0.00    -0.290 N 
ATOM     10  H5  UNL     1      30.948  38.637   7.147  1.00  0.00     0.172 HD
HETATM   11  C6  UNL     1      30.316  39.620   5.455  1.00  0.00     0.155 A 
HETATM   12  C7  UNL     1      30.117  40.839   4.842  1.00  0.00     0.137 A 
HETATM   13  C8  UNL     1      29.639  41.198   3.599  1.00  0.00     0.077 A 
ENDROOT
BRANCH  13  14
HETATM   14  C9  UNL     1      29.185  40.303   2.528  1.00  0.00     0.152 A 
HETATM   15  N8  UNL     1      27.960  39.723   2.416  1.00  0.00    -0.268 N 
HETATM   16  N9  UNL     1      27.968  39.007   1.326  1.00  0.00    -0.227 N 
ATOM     17  H8  UNL     1      27.180  39.829   3.064  1.00  0.00     0.190 HD
HETATM   18  N10 UNL     1      29.130  39.076   0.704  1.00  0.00    -0.227 N 
ATOM     19  H9  UNL     1      27.172  38.460   0.995  1.00  0.00     0.210 HD
HETATM   20  N11 UNL     1      29.868  39.875   1.453  1.00  0.00    -0.268 N 
ATOM     21  H10 UNL     1      29.399  38.613  -0.164  1.00  0.00     0.210 HD
ATOM     22  H11 UNL     1      30.832  40.134   1.243  1.00  0.00     0.190 HD
ENDBRANCH  13  14
BRANCH   1  23
HETATM   23  C3  UNL     1      29.279  43.438   2.484  1.00  0.00     0.270 C 
HETATM   24  O3  UNL     1      30.070  43.665   1.540  1.00  0.00    -0.280 OA
BRANCH  23  25
HETATM   25  C2  UNL     1      27.966  44.058   2.444  1.00  0.00     0.317 C 
HETATM   26  N1  UNL     1      27.472  44.700   1.285  1.00  0.00    -0.228 N 
ATOM     27  H1  UNL     1      28.058  44.727   0.450  1.00  0.00     0.198 HD
HETATM   28  O2  UNL     1      27.231  44.027   3.481  1.00  0.00    -0.262 OA
BRANCH  26  29
HETATM   29  O1  UNL     1      26.257  45.274   1.245  1.00  0.00    -0.282 OA
HETATM   30  C1  UNL     1      25.580  45.081   0.061  1.00  0.00     0.237 C 
ENDBRANCH  26  29
ENDBRANCH  23  25
ENDBRANCH   1  23
BRANCH  11  31
HETATM   31  N6  UNL     1      30.030  38.528   4.830  1.00  0.00    -0.290 N 
ATOM     32  H6  UNL     1      29.647  38.601   3.887  1.00  0.00     0.188 HD
BRANCH  31  33
HETATM   33  N7  UNL     1      30.213  37.268   5.362  1.00  0.00    -0.344 N 
ATOM     34  H72 UNL     1      29.547  36.964   6.072  1.00  0.00     0.176 HD
ATOM     35  H71 UNL     1      30.967  36.639   5.085  1.00  0.00     0.176 HD
ENDBRANCH  31  33
ENDBRANCH  11  31
TORSDOF 6
ENDMDL
