MODEL 1
REMARK VINA RESULT: -6.858771018      0.000      0.000
REMARK  7 active torsions:
REMARK  status: ('A' for Active; 'I' for Inactive)
REMARK    1  A    between atoms: O1_2  and  N1_3 
REMARK    2  A    between atoms: N1_3  and  C2_5 
REMARK    3  A    between atoms: C4_9  and  C5_10 
REMARK    4  A    between atoms: C5_10  and  N3_11 
REMARK    5  A    between atoms: C6_14  and  C7_15 
REMARK    6  A    between atoms: N6_18  and  N7_19 
REMARK    7  A    between atoms: C8_22  and  N8_23 
REMARK       I    between atoms: N8_23  and  C9_25 
ROOT
HETATM    1  N3  UNL     1      30.309  39.271   8.967  1.00  0.00    -0.116 N 
HETATM    2  N4  UNL     1      29.243  40.064   8.990  1.00  0.00    -0.262 N 
ATOM      3  H4  UNL     1      28.632  40.218   8.188  1.00  0.00     0.189 HD
HETATM    4  C6  UNL     1      29.063  40.632  10.176  1.00  0.00     0.225 A 
HETATM    5  N6  UNL     1      30.043  40.197  10.952  1.00  0.00    -0.068 N 
HETATM    6  C8  UNL     1      30.837  39.332  10.195  1.00  0.00     0.724 A 
ENDROOT
BRANCH   1   7
HETATM    7  C5  UNL     1      30.782  38.542   7.821  1.00  0.00     0.212 C 
BRANCH   7   8
HETATM    8  C4  UNL     1      30.365  39.148   6.505  1.00  0.00     0.022 A 
HETATM    9  C3  UNL     1      29.355  38.585   5.757  1.00  0.00     0.118 A 
HETATM   10  N2  UNL     1      29.031  39.117   4.560  1.00  0.00    -0.199 N 
HETATM   11  C2  UNL     1      29.670  40.191   4.073  1.00  0.00     0.703 A 
ATOM     12  H2  UNL     1      28.283  38.691   4.012  1.00  0.00     0.183 HD
HETATM   13  N12 UNL     1      30.654  40.783   4.750  1.00  0.00    -0.175 N 
HETATM   14  C10 UNL     1      31.005  40.264   5.972  1.00  0.00     0.124 A 
ATOM     15  H12 UNL     1      31.133  41.600   4.369  1.00  0.00     0.186 HD
HETATM   16  N11 UNL     1      31.902  40.892   6.629  1.00  0.00    -0.385 N 
ATOM     17 2H11 UNL     1      32.163  40.507   7.537  1.00  0.00     0.157 HD
ATOM     18 1H11 UNL     1      32.371  41.710   6.239  1.00  0.00     0.157 HD
BRANCH  11  19
HETATM   19  N1  UNL     1      29.318  40.663   2.916  1.00  0.00    -0.097 N 
ATOM     20  H1  UNL     1      29.851  41.432   2.509  1.00  0.00     0.213 HD
BRANCH  19  21
HETATM   21  O1  UNL     1      28.244  40.153   2.225  1.00  0.00    -0.272 OA
HETATM   22  C1  UNL     1      27.132  40.911   1.827  1.00  0.00     0.238 C 
ENDBRANCH  19  21
ENDBRANCH  11  19
ENDBRANCH   7   8
ENDBRANCH   1   7
BRANCH   6  23
HETATM   23  N8  UNL     1      31.793  38.772  10.719  1.00  0.00    -0.160 N 
HETATM   24  C9  UNL     1      32.238  37.759  11.481  1.00  0.00     0.200 C 
HETATM   25  N9  UNL     1      32.977  36.815  10.932  1.00  0.00    -0.373 N 
HETATM   26  N10 UNL     1      31.999  37.591  12.892  1.00  0.00    -0.063 NA
ATOM     27  H92 UNL     1      33.146  36.934   9.933  1.00  0.00     0.158 HD
ATOM     28  H91 UNL     1      33.314  36.046  11.511  1.00  0.00     0.158 HD
ATOM     29  H8  UNL     1      32.617  39.317  10.461  1.00  0.00     0.187 HD
ENDBRANCH   6  23
BRANCH   4  30
HETATM   30  C7  UNL     1      28.000  41.566  10.585  1.00  0.00     0.302 C 
HETATM   31  N5  UNL     1      26.660  41.351  10.108  1.00  0.00    -0.054 NA
HETATM   32  O2  UNL     1      28.303  42.511  11.329  1.00  0.00    -0.268 OA
ENDBRANCH   4  30
BRANCH   5  33
HETATM   33  N7  UNL     1      30.295  40.497  12.273  1.00  0.00    -0.322 N 
ATOM     34  H72 UNL     1      29.760  40.107  13.049  1.00  0.00     0.178 HD
ATOM     35  H71 UNL     1      31.005  41.117  12.663  1.00  0.00     0.178 HD
ENDBRANCH   5  33
TORSDOF 7
ENDMDL
MODEL 2
REMARK VINA RESULT: -6.547493193      2.932      7.340
REMARK  7 active torsions:
REMARK  status: ('A' for Active; 'I' for Inactive)
REMARK    1  A    between atoms: O1_2  and  N1_3 
REMARK    2  A    between atoms: N1_3  and  C2_5 
REMARK    3  A    between atoms: C4_9  and  C5_10 
REMARK    4  A    between atoms: C5_10  and  N3_11 
REMARK    5  A    between atoms: C6_14  and  C7_15 
REMARK    6  A    between atoms: N6_18  and  N7_19 
REMARK    7  A    between atoms: C8_22  and  N8_23 
REMARK       I    between atoms: N8_23  and  C9_25 
ROOT
HETATM    1  N3  UNL     1      29.351  41.875   4.328  1.00  0.00    -0.116 N 
HETATM    2  N4  UNL     1      28.851  42.612   5.314  1.00  0.00    -0.262 N 
ATOM      3  H4  UNL     1      29.249  42.649   6.253  1.00  0.00     0.189 HD
HETATM    4  C6  UNL     1      27.776  43.293   4.940  1.00  0.00     0.225 A 
HETATM    5  N6  UNL     1      27.566  42.992   3.668  1.00  0.00    -0.068 N 
HETATM    6  C8  UNL     1      28.560  42.095   3.270  1.00  0.00     0.724 A 
ENDROOT
BRANCH   1   7
HETATM    7  C5  UNL     1      30.492  41.005   4.431  1.00  0.00     0.212 C 
BRANCH   7   8
HETATM    8  C4  UNL     1      30.642  40.364   5.787  1.00  0.00     0.022 A 
HETATM    9  C3  UNL     1      31.410  40.954   6.765  1.00  0.00     0.118 A 
HETATM   10  N2  UNL     1      31.569  40.337   7.955  1.00  0.00    -0.199 N 
HETATM   11  C2  UNL     1      30.992  39.155   8.215  1.00  0.00     0.703 A 
ATOM     12  H2  UNL     1      32.141  40.781   8.674  1.00  0.00     0.183 HD
HETATM   13  N12 UNL     1      30.236  38.534   7.311  1.00  0.00    -0.175 N 
HETATM   14  C10 UNL     1      30.055  39.138   6.090  1.00  0.00     0.124 A 
ATOM     15  H12 UNL     1      29.802  37.634   7.520  1.00  0.00     0.186 HD
HETATM   16  N11 UNL     1      29.270  38.556   5.269  1.00  0.00    -0.385 N 
ATOM     17 2H11 UNL     1      29.136  39.004   4.363  1.00  0.00     0.157 HD
ATOM     18 1H11 UNL     1      28.840  37.658   5.491  1.00  0.00     0.157 HD
BRANCH  11  19
HETATM   19  N1  UNL     1      31.176  38.605   9.377  1.00  0.00    -0.097 N 
ATOM     20  H1  UNL     1      30.770  39.042  10.204  1.00  0.00     0.213 HD
BRANCH  19  21
HETATM   21  O1  UNL     1      31.907  37.448   9.520  1.00  0.00    -0.272 OA
HETATM   22  C1  UNL     1      32.693  37.147  10.643  1.00  0.00     0.238 C 
ENDBRANCH  19  21
ENDBRANCH  11  19
ENDBRANCH   7   8
ENDBRANCH   1   7
BRANCH   6  23
HETATM   23  N8  UNL     1      28.593  41.701   2.111  1.00  0.00    -0.160 N 
HETATM   24  C9  UNL     1      28.429  40.678   1.254  1.00  0.00     0.200 C 
HETATM   25  N9  UNL     1      27.426  40.708   0.398  1.00  0.00    -0.373 N 
HETATM   26  N10 UNL     1      29.271  39.513   1.153  1.00  0.00    -0.063 NA
ATOM     27  H92 UNL     1      26.830  41.533   0.469  1.00  0.00     0.158 HD
ATOM     28  H91 UNL     1      27.302  39.932  -0.252  1.00  0.00     0.158 HD
ATOM     29  H8  UNL     1      28.864  42.505   1.545  1.00  0.00     0.187 HD
ENDBRANCH   6  23
BRANCH   4  30
HETATM   30  C7  UNL     1      26.952  44.208   5.748  1.00  0.00     0.302 C 
HETATM   31  N5  UNL     1      27.088  44.188   7.180  1.00  0.00    -0.054 NA
HETATM   32  O2  UNL     1      26.166  44.966   5.160  1.00  0.00    -0.268 OA
ENDBRANCH   4  30
BRANCH   5  33
HETATM   33  N7  UNL     1      26.571  43.443   2.828  1.00  0.00    -0.322 N 
ATOM     34  H72 UNL     1      26.741  44.075   2.045  1.00  0.00     0.178 HD
ATOM     35  H71 UNL     1      25.573  43.235   2.850  1.00  0.00     0.178 HD
ENDBRANCH   5  33
TORSDOF 7
ENDMDL
MODEL 3
REMARK VINA RESULT: -6.452000329      1.045      1.571
REMARK  7 active torsions:
REMARK  status: ('A' for Active; 'I' for Inactive)
REMARK    1  A    between atoms: O1_2  and  N1_3 
REMARK    2  A    between atoms: N1_3  and  C2_5 
REMARK    3  A    between atoms: C4_9  and  C5_10 
REMARK    4  A    between atoms: C5_10  and  N3_11 
REMARK    5  A    between atoms: C6_14  and  C7_15 
REMARK    6  A    between atoms: N6_18  and  N7_19 
REMARK    7  A    between atoms: C8_22  and  N8_23 
REMARK       I    between atoms: N8_23  and  C9_25 
ROOT
HETATM    1  N3  UNL     1      30.574  39.779   9.580  1.00  0.00    -0.116 N 
HETATM    2  N4  UNL     1      29.469  40.517   9.524  1.00  0.00    -0.262 N 
ATOM      3  H4  UNL     1      29.080  40.892   8.659  1.00  0.00     0.189 HD
HETATM    4  C6  UNL     1      28.931  40.709  10.721  1.00  0.00     0.225 A 
HETATM    5  N6  UNL     1      29.708  40.078  11.588  1.00  0.00    -0.068 N 
HETATM    6  C8  UNL     1      30.751  39.484  10.874  1.00  0.00     0.724 A 
ENDROOT
BRANCH   1   7
HETATM    7  C5  UNL     1      31.398  39.424   8.457  1.00  0.00     0.212 C 
BRANCH   7   8
HETATM    8  C4  UNL     1      30.683  39.505   7.132  1.00  0.00     0.022 A 
HETATM    9  C3  UNL     1      30.927  40.541   6.260  1.00  0.00     0.118 A 
HETATM   10  N2  UNL     1      30.238  40.618   5.101  1.00  0.00    -0.199 N 
HETATM   11  C2  UNL     1      29.315  39.703   4.772  1.00  0.00     0.703 A 
ATOM     12  H2  UNL     1      30.425  41.391   4.462  1.00  0.00     0.183 HD
HETATM   13  N12 UNL     1      29.035  38.675   5.572  1.00  0.00    -0.175 N 
HETATM   14  C10 UNL     1      29.720  38.570   6.758  1.00  0.00     0.124 A 
ATOM     15  H12 UNL     1      28.330  37.985   5.311  1.00  0.00     0.186 HD
HETATM   16  N11 UNL     1      29.482  37.539   7.473  1.00  0.00    -0.385 N 
ATOM     17 2H11 UNL     1      29.991  37.461   8.353  1.00  0.00     0.157 HD
ATOM     18 1H11 UNL     1      28.777  36.854   7.198  1.00  0.00     0.157 HD
BRANCH  11  19
HETATM   19  N1  UNL     1      28.682  39.823   3.644  1.00  0.00    -0.097 N 
ATOM     20  H1  UNL     1      27.662  39.818   3.643  1.00  0.00     0.213 HD
BRANCH  19  21
HETATM   21  O1  UNL     1      29.354  39.957   2.451  1.00  0.00    -0.272 OA
HETATM   22  C1  UNL     1      29.243  41.072   1.606  1.00  0.00     0.238 C 
ENDBRANCH  19  21
ENDBRANCH  11  19
ENDBRANCH   7   8
ENDBRANCH   1   7
BRANCH   6  23
HETATM   23  N8  UNL     1      31.583  38.807  11.466  1.00  0.00    -0.160 N 
HETATM   24  C9  UNL     1      31.936  37.600  11.941  1.00  0.00     0.200 C 
HETATM   25  N9  UNL     1      32.948  36.961  11.388  1.00  0.00    -0.373 N 
HETATM   26  N10 UNL     1      31.314  36.906  13.040  1.00  0.00    -0.063 NA
ATOM     27  H92 UNL     1      33.388  37.452  10.610  1.00  0.00     0.158 HD
ATOM     28  H91 UNL     1      33.216  36.045  11.748  1.00  0.00     0.158 HD
ATOM     29  H8  UNL     1      32.346  39.440  11.705  1.00  0.00     0.187 HD
ENDBRANCH   6  23
BRANCH   4  30
HETATM   30  C7  UNL     1      27.716  41.470  11.060  1.00  0.00     0.302 C 
HETATM   31  N5  UNL     1      26.596  41.434  10.158  1.00  0.00    -0.054 NA
HETATM   32  O2  UNL     1      27.704  42.118  12.117  1.00  0.00    -0.268 OA
ENDBRANCH   4  30
BRANCH   5  33
HETATM   33  N7  UNL     1      29.573  39.981  12.956  1.00  0.00    -0.322 N 
ATOM     34  H72 UNL     1      28.772  39.543  13.411  1.00  0.00     0.178 HD
ATOM     35  H71 UNL     1      30.206  40.310  13.685  1.00  0.00     0.178 HD
ENDBRANCH   5  33
TORSDOF 7
ENDMDL
MODEL 4
REMARK VINA RESULT: -6.425370992      2.072      2.579
REMARK  7 active torsions:
REMARK  status: ('A' for Active; 'I' for Inactive)
REMARK    1  A    between atoms: O1_2  and  N1_3 
REMARK    2  A    between atoms: N1_3  and  C2_5 
REMARK    3  A    between atoms: C4_9  and  C5_10 
REMARK    4  A    between atoms: C5_10  and  N3_11 
REMARK    5  A    between atoms: C6_14  and  C7_15 
REMARK    6  A    between atoms: N6_18  and  N7_19 
REMARK    7  A    between atoms: C8_22  and  N8_23 
REMARK       I    between atoms: N8_23  and  C9_25 
ROOT
HETATM    1  N3  UNL     1      30.068  40.334   9.160  1.00  0.00    -0.116 N 
HETATM    2  N4  UNL     1      28.774  40.426   9.448  1.00  0.00    -0.262 N 
ATOM      3  H4  UNL     1      28.061  39.805   9.064  1.00  0.00     0.189 HD
HETATM    4  C6  UNL     1      28.514  41.416  10.292  1.00  0.00     0.225 A 
HETATM    5  N6  UNL     1      29.675  41.990  10.564  1.00  0.00    -0.068 N 
HETATM    6  C8  UNL     1      30.667  41.310   9.853  1.00  0.00     0.724 A 
ENDROOT
BRANCH   1   7
HETATM    7  C5  UNL     1      30.656  39.385   8.254  1.00  0.00     0.212 C 
BRANCH   7   8
HETATM    8  C4  UNL     1      30.237  39.579   6.819  1.00  0.00     0.022 A 
HETATM    9  C3  UNL     1      29.228  38.820   6.269  1.00  0.00     0.118 A 
HETATM   10  N2  UNL     1      28.903  38.978   4.969  1.00  0.00    -0.199 N 
HETATM   11  C2  UNL     1      29.539  39.865   4.189  1.00  0.00     0.703 A 
ATOM     12  H2  UNL     1      28.155  38.409   4.570  1.00  0.00     0.183 HD
HETATM   13  N12 UNL     1      30.521  40.630   4.662  1.00  0.00    -0.175 N 
HETATM   14  C10 UNL     1      30.874  40.492   5.983  1.00  0.00     0.124 A 
ATOM     15  H12 UNL     1      30.999  41.301   4.060  1.00  0.00     0.186 HD
HETATM   16  N11 UNL     1      31.770  41.286   6.427  1.00  0.00    -0.385 N 
ATOM     17 2H11 UNL     1      32.032  41.184   7.407  1.00  0.00     0.157 HD
ATOM     18 1H11 UNL     1      32.237  41.955   5.814  1.00  0.00     0.157 HD
BRANCH  11  19
HETATM   19  N1  UNL     1      29.185  39.978   2.945  1.00  0.00    -0.097 N 
ATOM     20  H1  UNL     1      29.902  40.140   2.237  1.00  0.00     0.213 HD
BRANCH  19  21
HETATM   21  O1  UNL     1      27.869  39.884   2.557  1.00  0.00    -0.272 OA
HETATM   22  C1  UNL     1      27.143  40.934   1.974  1.00  0.00     0.238 C 
ENDBRANCH  19  21
ENDBRANCH  11  19
ENDBRANCH   7   8
ENDBRANCH   1   7
BRANCH   6  23
HETATM   23  N8  UNL     1      31.839  41.644   9.977  1.00  0.00    -0.160 N 
HETATM   24  C9  UNL     1      32.802  42.538   9.696  1.00  0.00     0.200 C 
HETATM   25  N9  UNL     1      33.296  43.281  10.667  1.00  0.00    -0.373 N 
HETATM   26  N10 UNL     1      33.388  42.774   8.400  1.00  0.00    -0.063 NA
ATOM     27  H92 UNL     1      32.881  43.114  11.584  1.00  0.00     0.158 HD
ATOM     28  H91 UNL     1      34.026  43.960  10.453  1.00  0.00     0.158 HD
ATOM     29  H8  UNL     1      32.280  40.922  10.548  1.00  0.00     0.187 HD
ENDBRANCH   6  23
BRANCH   4  30
HETATM   30  C7  UNL     1      27.209  41.827  10.837  1.00  0.00     0.302 C 
HETATM   31  N5  UNL     1      27.143  42.336  12.181  1.00  0.00    -0.054 NA
HETATM   32  O2  UNL     1      26.208  41.717  10.113  1.00  0.00    -0.268 OA
ENDBRANCH   4  30
BRANCH   5  33
HETATM   33  N7  UNL     1      29.934  43.063  11.389  1.00  0.00    -0.322 N 
ATOM     34  H72 UNL     1      29.487  43.194  12.297  1.00  0.00     0.178 HD
ATOM     35  H71 UNL     1      30.570  43.847  11.238  1.00  0.00     0.178 HD
ENDBRANCH   5  33
TORSDOF 7
ENDMDL
MODEL 5
REMARK VINA RESULT: -6.352888265      1.944      2.606
REMARK  7 active torsions:
REMARK  status: ('A' for Active; 'I' for Inactive)
REMARK    1  A    between atoms: O1_2  and  N1_3 
REMARK    2  A    between atoms: N1_3  and  C2_5 
REMARK    3  A    between atoms: C4_9  and  C5_10 
REMARK    4  A    between atoms: C5_10  and  N3_11 
REMARK    5  A    between atoms: C6_14  and  C7_15 
REMARK    6  A    between atoms: N6_18  and  N7_19 
REMARK    7  A    between atoms: C8_22  and  N8_23 
REMARK       I    between atoms: N8_23  and  C9_25 
ROOT
HETATM    1  N3  UNL     1      30.411  40.995  10.736  1.00  0.00    -0.116 N 
HETATM    2  N4  UNL     1      29.592  41.249  11.752  1.00  0.00    -0.262 N 
ATOM      3  H4  UNL     1      28.978  42.061  11.796  1.00  0.00     0.189 HD
HETATM    4  C6  UNL     1      29.666  40.325  12.701  1.00  0.00     0.225 A 
HETATM    5  N6  UNL     1      30.561  39.439  12.294  1.00  0.00    -0.068 N 
HETATM    6  C8  UNL     1      31.038  39.854  11.048  1.00  0.00     0.724 A 
ENDROOT
BRANCH   1   7
HETATM    7  C5  UNL     1      30.581  41.824   9.573  1.00  0.00     0.212 C 
BRANCH   7   8
HETATM    8  C4  UNL     1      30.305  41.109   8.275  1.00  0.00     0.022 A 
HETATM    9  C3  UNL     1      29.091  40.503   8.048  1.00  0.00     0.118 A 
HETATM   10  N2  UNL     1      28.883  39.827   6.898  1.00  0.00    -0.199 N 
HETATM   11  C2  UNL     1      29.837  39.731   5.959  1.00  0.00     0.703 A 
ATOM     12  H2  UNL     1      27.980  39.379   6.739  1.00  0.00     0.183 HD
HETATM   13  N12 UNL     1      31.032  40.298   6.119  1.00  0.00    -0.175 N 
HETATM   14  C10 UNL     1      31.271  40.993   7.279  1.00  0.00     0.124 A 
ATOM     15  H12 UNL     1      31.750  40.218   5.398  1.00  0.00     0.186 HD
HETATM   16  N11 UNL     1      32.399  41.584   7.375  1.00  0.00    -0.385 N 
ATOM     17 2H11 UNL     1      32.577  42.100   8.237  1.00  0.00     0.157 HD
ATOM     18 1H11 UNL     1      33.107  41.499   6.645  1.00  0.00     0.157 HD
BRANCH  11  19
HETATM   19  N1  UNL     1      29.585  39.070   4.870  1.00  0.00    -0.097 N 
ATOM     20  H1  UNL     1      29.902  38.104   4.790  1.00  0.00     0.213 HD
BRANCH  19  21
HETATM   21  O1  UNL     1      28.901  39.641   3.822  1.00  0.00    -0.272 OA
HETATM   22  C1  UNL     1      29.493  40.466   2.853  1.00  0.00     0.238 C 
ENDBRANCH  19  21
ENDBRANCH  11  19
ENDBRANCH   7   8
ENDBRANCH   1   7
BRANCH   6  23
HETATM   23  N8  UNL     1      31.856  39.164  10.451  1.00  0.00    -0.160 N 
HETATM   24  C9  UNL     1      32.126  38.002   9.832  1.00  0.00     0.200 C 
HETATM   25  N9  UNL     1      32.331  37.998   8.530  1.00  0.00    -0.373 N 
HETATM   26  N10 UNL     1      32.235  36.711  10.463  1.00  0.00    -0.063 NA
ATOM     27  H92 UNL     1      32.253  38.911   8.083  1.00  0.00     0.158 HD
ATOM     28  H91 UNL     1      32.535  37.115   8.060  1.00  0.00     0.158 HD
ATOM     29  H8  UNL     1      32.712  39.718  10.402  1.00  0.00     0.187 HD
ENDBRANCH   6  23
BRANCH   4  30
HETATM   30  C7  UNL     1      28.920  40.264  13.970  1.00  0.00     0.302 C 
HETATM   31  N5  UNL     1      28.072  39.131  14.228  1.00  0.00    -0.054 NA
HETATM   32  O2  UNL     1      29.052  41.200  14.774  1.00  0.00    -0.268 OA
ENDBRANCH   4  30
BRANCH   5  33
HETATM   33  N7  UNL     1      30.992  38.294  12.928  1.00  0.00    -0.322 N 
ATOM     34  H72 UNL     1      30.860  37.357  12.547  1.00  0.00     0.178 HD
ATOM     35  H71 UNL     1      31.478  38.202  13.820  1.00  0.00     0.178 HD
ENDBRANCH   5  33
TORSDOF 7
ENDMDL
