MODEL 1
REMARK VINA RESULT: -6.518366888      0.000      0.000
REMARK  8 active torsions:
REMARK  status: ('A' for Active; 'I' for Inactive)
REMARK    1  A    between atoms: N1_2  and  C2_4 
REMARK    2  A    between atoms: C4_11  and  C5_12 
REMARK    3  A    between atoms: C5_12  and  N5_13 
REMARK    4  A    between atoms: C5_12  and  C6_17 
REMARK    5  A    between atoms: C6_17  and  O1_18 
REMARK    6  A    between atoms: C6_17  and  C7_20 
REMARK    7  A    between atoms: C7_20  and  O2_21 
REMARK    8  A    between atoms: C7_20  and  N6_23 
ROOT
HETATM    1  C5  UNL     1      30.521  39.693   8.506  1.00  0.00     0.286 C 
ENDROOT
BRANCH   1   2
HETATM    2  C4  UNL     1      30.086  39.371   7.094  1.00  0.00     0.153 A 
HETATM    3  N4  UNL     1      29.735  40.300   6.172  1.00  0.00    -0.218 N 
HETATM    4  N3  UNL     1      29.674  41.614   6.206  1.00  0.00    -0.286 N 
HETATM    5  C11 UNL     1      29.397  39.697   5.027  1.00  0.00     0.188 A 
HETATM    6  C3  UNL     1      29.292  42.359   5.154  1.00  0.00     0.199 A 
ATOM      7  H3  UNL     1      29.929  42.090   7.071  1.00  0.00     0.188 HD
HETATM    8  N2  UNL     1      28.947  41.774   3.995  1.00  0.00    -0.335 N 
HETATM    9  C2  UNL     1      28.999  40.438   3.928  1.00  0.00     0.150 A 
ATOM     10  H2  UNL     1      28.655  42.331   3.191  1.00  0.00     0.168 HD
HETATM   11  N9  UNL     1      29.540  38.365   5.242  1.00  0.00    -0.279 N 
HETATM   12  N8  UNL     1      29.951  38.195   6.483  1.00  0.00    -0.284 N 
ATOM     13  H9  UNL     1      29.360  37.625   4.563  1.00  0.00     0.189 HD
ATOM     14  H8  UNL     1      30.140  37.290   6.914  1.00  0.00     0.188 HD
BRANCH   9  15
HETATM   15  N1  UNL     1      28.678  39.853   2.841  1.00  0.00    -0.377 N 
HETATM   16  C1  UNL     1      29.297  40.219   1.585  1.00  0.00     0.148 C 
ATOM     17  H1  UNL     1      27.974  39.115   2.857  1.00  0.00     0.160 HD
ENDBRANCH   9  15
ENDBRANCH   1   2
BRANCH   1  18
HETATM   18  N5  UNL     1      29.210  39.790   9.207  1.00  0.00    -0.065 N 
ATOM     19  H53 UNL     1      28.541  40.437   8.790  1.00  0.00     0.275 HD
ATOM     20  H52 UNL     1      28.611  38.970   9.124  1.00  0.00     0.275 HD
ATOM     21  H51 UNL     1      29.504  40.021  10.157  1.00  0.00     0.275 HD
ENDBRANCH   1  18
BRANCH   1  22
HETATM   22  C6  UNL     1      31.248  38.608   9.174  1.00  0.00     0.205 C 
BRANCH  22  23
HETATM   23  O1  UNL     1      32.100  37.931   8.281  1.00  0.00    -0.389 OA
ATOM     24  H1  UNL     1      32.373  37.091   8.630  1.00  0.00     0.210 HD
ENDBRANCH  22  23
BRANCH  22  25
HETATM   25  C7  UNL     1      31.962  38.839  10.444  1.00  0.00     0.255 C 
BRANCH  25  26
HETATM   26  O2  UNL     1      31.295  39.776  11.221  1.00  0.00    -0.374 OA
ATOM     27  H2  UNL     1      31.750  39.918  12.043  1.00  0.00     0.212 HD
ENDBRANCH  25  26
BRANCH  25  28
HETATM   28  N6  UNL     1      32.374  37.715  11.201  1.00  0.00    -0.303 N 
HETATM   29  C8  UNL     1      31.810  37.218  12.465  1.00  0.00     0.150 C 
HETATM   30  C9  UNL     1      33.091  36.940  13.228  1.00  0.00     0.144 C 
HETATM   31  N7  UNL     1      33.977  36.431  12.198  1.00  0.00    -0.341 N 
HETATM   32  C10 UNL     1      33.426  36.821  10.923  1.00  0.00     0.320 C 
ATOM     33  H7  UNL     1      34.833  35.896  12.348  1.00  0.00     0.164 HD
HETATM   34  O3  UNL     1      33.844  36.409   9.797  1.00  0.00    -0.247 OA
ENDBRANCH  25  28
ENDBRANCH  22  25
ENDBRANCH   1  22
TORSDOF 8
ENDMDL
MODEL 2
REMARK VINA RESULT: -6.481467867      3.984      7.483
REMARK  8 active torsions:
REMARK  status: ('A' for Active; 'I' for Inactive)
REMARK    1  A    between atoms: N1_2  and  C2_4 
REMARK    2  A    between atoms: C4_11  and  C5_12 
REMARK    3  A    between atoms: C5_12  and  N5_13 
REMARK    4  A    between atoms: C5_12  and  C6_17 
REMARK    5  A    between atoms: C6_17  and  O1_18 
REMARK    6  A    between atoms: C6_17  and  C7_20 
REMARK    7  A    between atoms: C7_20  and  O2_21 
REMARK    8  A    between atoms: C7_20  and  N6_23 
ROOT
HETATM    1  C5  UNL     1      30.390  39.076   5.867  1.00  0.00     0.286 C 
ENDROOT
BRANCH   1   2
HETATM    2  C4  UNL     1      30.058  39.819   7.141  1.00  0.00     0.153 A 
HETATM    3  N4  UNL     1      30.823  40.802   7.674  1.00  0.00    -0.218 N 
HETATM    4  N3  UNL     1      31.955  41.356   7.298  1.00  0.00    -0.286 N 
HETATM    5  C11 UNL     1      30.260  41.253   8.801  1.00  0.00     0.188 A 
HETATM    6  C3  UNL     1      32.557  42.339   7.989  1.00  0.00     0.199 A 
ATOM      7  H3  UNL     1      32.398  41.025   6.441  1.00  0.00     0.188 HD
HETATM    8  N2  UNL     1      32.011  42.808   9.123  1.00  0.00    -0.335 N 
HETATM    9  C2  UNL     1      30.858  42.265   9.534  1.00  0.00     0.150 A 
ATOM     10  H2  UNL     1      32.459  43.553   9.656  1.00  0.00     0.168 HD
HETATM   11  N9  UNL     1      29.122  40.536   8.972  1.00  0.00    -0.279 N 
HETATM   12  N8  UNL     1      29.022  39.686   7.969  1.00  0.00    -0.284 N 
ATOM     13  H9  UNL     1      28.459  40.636   9.741  1.00  0.00     0.189 HD
ATOM     14  H8  UNL     1      28.259  39.020   7.845  1.00  0.00     0.188 HD
BRANCH   9  15
HETATM   15  N1  UNL     1      30.313  42.687  10.607  1.00  0.00    -0.377 N 
HETATM   16  C1  UNL     1      29.432  43.836  10.594  1.00  0.00     0.148 C 
ATOM     17  H1  UNL     1      30.501  42.208  11.487  1.00  0.00     0.160 HD
ENDBRANCH   9  15
ENDBRANCH   1   2
BRANCH   1  18
HETATM   18  N5  UNL     1      29.963  37.690   6.210  1.00  0.00    -0.065 N 
ATOM     19  H53 UNL     1      30.665  37.124   6.688  1.00  0.00     0.275 HD
ATOM     20  H52 UNL     1      29.267  37.621   6.952  1.00  0.00     0.275 HD
ATOM     21  H51 UNL     1      29.666  37.337   5.301  1.00  0.00     0.275 HD
ENDBRANCH   1  18
BRANCH   1  22
HETATM   22  C6  UNL     1      29.576  39.466   4.711  1.00  0.00     0.205 C 
BRANCH  22  23
HETATM   23  O1  UNL     1      28.270  38.949   4.803  1.00  0.00    -0.389 OA
ATOM     24  H1  UNL     1      28.214  38.076   4.432  1.00  0.00     0.210 HD
ENDBRANCH  22  23
BRANCH  22  25
HETATM   25  C7  UNL     1      29.512  40.869   4.263  1.00  0.00     0.255 C 
BRANCH  25  26
HETATM   26  O2  UNL     1      30.778  41.436   4.236  1.00  0.00    -0.374 OA
ATOM     27  H2  UNL     1      30.927  41.890   3.414  1.00  0.00     0.212 HD
ENDBRANCH  25  26
BRANCH  25  28
HETATM   28  N6  UNL     1      28.767  41.173   3.097  1.00  0.00    -0.303 N 
HETATM   29  C8  UNL     1      27.673  42.144   2.949  1.00  0.00     0.150 C 
HETATM   30  C9  UNL     1      26.697  41.312   2.139  1.00  0.00     0.144 C 
HETATM   31  N7  UNL     1      27.568  40.563   1.253  1.00  0.00    -0.341 N 
HETATM   32  C10 UNL     1      28.896  40.606   1.814  1.00  0.00     0.320 C 
ATOM     33  H7  UNL     1      27.291  40.091   0.391  1.00  0.00     0.164 HD
HETATM   34  O3  UNL     1      29.945  40.200   1.225  1.00  0.00    -0.247 OA
ENDBRANCH  25  28
ENDBRANCH  22  25
ENDBRANCH   1  22
TORSDOF 8
ENDMDL
MODEL 3
REMARK VINA RESULT: -6.382962811      2.743      7.790
REMARK  8 active torsions:
REMARK  status: ('A' for Active; 'I' for Inactive)
REMARK    1  A    between atoms: N1_2  and  C2_4 
REMARK    2  A    between atoms: C4_11  and  C5_12 
REMARK    3  A    between atoms: C5_12  and  N5_13 
REMARK    4  A    between atoms: C5_12  and  C6_17 
REMARK    5  A    between atoms: C6_17  and  O1_18 
REMARK    6  A    between atoms: C6_17  and  C7_20 
REMARK    7  A    between atoms: C7_20  and  O2_21 
REMARK    8  A    between atoms: C7_20  and  N6_23 
ROOT
HETATM    1  C5  UNL     1      29.323  40.233   6.580  1.00  0.00     0.286 C 
ENDROOT
BRANCH   1   2
HETATM    2  C4  UNL     1      30.280  39.489   7.483  1.00  0.00     0.153 A 
HETATM    3  N4  UNL     1      30.321  39.624   8.830  1.00  0.00    -0.218 N 
HETATM    4  N3  UNL     1      29.624  40.352   9.677  1.00  0.00    -0.286 N 
HETATM    5  C11 UNL     1      31.276  38.836   9.336  1.00  0.00     0.188 A 
HETATM    6  C3  UNL     1      29.833  40.335  11.005  1.00  0.00     0.199 A 
ATOM      7  H3  UNL     1      28.892  40.958   9.309  1.00  0.00     0.188 HD
HETATM    8  N2  UNL     1      30.787  39.552  11.535  1.00  0.00    -0.335 N 
HETATM    9  C2  UNL     1      31.514  38.798  10.700  1.00  0.00     0.150 A 
ATOM     10  H2  UNL     1      30.954  39.532  12.541  1.00  0.00     0.168 HD
HETATM   11  N9  UNL     1      31.842  38.198   8.281  1.00  0.00    -0.279 N 
HETATM   12  N8  UNL     1      31.231  38.604   7.185  1.00  0.00    -0.284 N 
ATOM     13  H9  UNL     1      32.605  37.523   8.327  1.00  0.00     0.189 HD
ATOM     14  H8  UNL     1      31.455  38.285   6.242  1.00  0.00     0.188 HD
BRANCH   9  15
HETATM   15  N1  UNL     1      32.428  38.044  11.171  1.00  0.00    -0.377 N 
HETATM   16  C1  UNL     1      32.248  37.351  12.430  1.00  0.00     0.148 C 
ATOM     17  H1  UNL     1      33.298  37.927  10.654  1.00  0.00     0.160 HD
ENDBRANCH   9  15
ENDBRANCH   1   2
BRANCH   1  18
HETATM   18  N5  UNL     1      29.700  41.649   6.848  1.00  0.00    -0.065 N 
ATOM     19  H53 UNL     1      30.215  41.806   7.715  1.00  0.00     0.275 HD
ATOM     20  H52 UNL     1      30.426  42.028   6.240  1.00  0.00     0.275 HD
ATOM     21  H51 UNL     1      28.796  42.116   6.789  1.00  0.00     0.275 HD
ENDBRANCH   1  18
BRANCH   1  22
HETATM   22  C6  UNL     1      29.561  40.025   5.147  1.00  0.00     0.205 C 
BRANCH  22  23
HETATM   23  O1  UNL     1      28.633  39.120   4.598  1.00  0.00    -0.389 OA
ATOM     24  H1  UNL     1      29.045  38.535   3.972  1.00  0.00     0.210 HD
ENDBRANCH  22  23
BRANCH  22  25
HETATM   25  C7  UNL     1      29.728  41.166   4.229  1.00  0.00     0.255 C 
BRANCH  25  26
HETATM   26  O2  UNL     1      31.065  41.345   3.904  1.00  0.00    -0.374 OA
ATOM     27  H2  UNL     1      31.156  41.936   3.165  1.00  0.00     0.212 HD
ENDBRANCH  25  26
BRANCH  25  28
HETATM   28  N6  UNL     1      28.888  41.246   3.091  1.00  0.00    -0.303 N 
HETATM   29  C8  UNL     1      27.706  42.100   2.896  1.00  0.00     0.150 C 
HETATM   30  C9  UNL     1      26.757  41.092   2.280  1.00  0.00     0.144 C 
HETATM   31  N7  UNL     1      27.630  40.294   1.440  1.00  0.00    -0.341 N 
HETATM   32  C10 UNL     1      28.983  40.518   1.890  1.00  0.00     0.320 C 
ATOM     33  H7  UNL     1      27.342  39.688   0.672  1.00  0.00     0.164 HD
HETATM   34  O3  UNL     1      30.023  40.114   1.284  1.00  0.00    -0.247 OA
ENDBRANCH  25  28
ENDBRANCH  22  25
ENDBRANCH   1  22
TORSDOF 8
ENDMDL
MODEL 4
REMARK VINA RESULT: -6.346544317      3.871      8.560
REMARK  8 active torsions:
REMARK  status: ('A' for Active; 'I' for Inactive)
REMARK    1  A    between atoms: N1_2  and  C2_4 
REMARK    2  A    between atoms: C4_11  and  C5_12 
REMARK    3  A    between atoms: C5_12  and  N5_13 
REMARK    4  A    between atoms: C5_12  and  C6_17 
REMARK    5  A    between atoms: C6_17  and  O1_18 
REMARK    6  A    between atoms: C6_17  and  C7_20 
REMARK    7  A    between atoms: C7_20  and  O2_21 
REMARK    8  A    between atoms: C7_20  and  N6_23 
ROOT
HETATM    1  C5  UNL     1      29.296  40.918   3.562  1.00  0.00     0.286 C 
ENDROOT
BRANCH   1   2
HETATM    2  C4  UNL     1      29.515  39.973   4.723  1.00  0.00     0.153 A 
HETATM    3  N4  UNL     1      30.263  40.264   5.814  1.00  0.00    -0.218 N 
HETATM    4  N3  UNL     1      30.948  41.330   6.170  1.00  0.00    -0.286 N 
HETATM    5  C11 UNL     1      30.263  39.223   6.654  1.00  0.00     0.188 A 
HETATM    6  C3  UNL     1      31.634  41.411   7.323  1.00  0.00     0.199 A 
ATOM      7  H3  UNL     1      30.958  42.133   5.542  1.00  0.00     0.188 HD
HETATM    8  N2  UNL     1      31.649  40.377   8.181  1.00  0.00    -0.335 N 
HETATM    9  C2  UNL     1      30.962  39.277   7.848  1.00  0.00     0.150 A 
ATOM     10  H2  UNL     1      32.168  40.428   9.058  1.00  0.00     0.168 HD
HETATM   11  N9  UNL     1      29.500  38.265   6.072  1.00  0.00    -0.279 N 
HETATM   12  N8  UNL     1      29.064  38.735   4.920  1.00  0.00    -0.284 N 
ATOM     13  H9  UNL     1      29.298  37.342   6.457  1.00  0.00     0.189 HD
ATOM     14  H8  UNL     1      28.466  38.223   4.271  1.00  0.00     0.188 HD
BRANCH   9  15
HETATM   15  N1  UNL     1      30.956  38.279   8.641  1.00  0.00    -0.377 N 
HETATM   16  C1  UNL     1      32.162  37.858   9.321  1.00  0.00     0.148 C 
ATOM     17  H1  UNL     1      30.087  37.768   8.798  1.00  0.00     0.160 HD
ENDBRANCH   9  15
ENDBRANCH   1   2
BRANCH   1  18
HETATM   18  N5  UNL     1      30.694  41.166   3.111  1.00  0.00    -0.065 N 
ATOM     19  H53 UNL     1      30.790  41.814   2.329  1.00  0.00     0.275 HD
ATOM     20  H52 UNL     1      31.268  41.711   3.754  1.00  0.00     0.275 HD
ATOM     21  H51 UNL     1      31.022  40.217   2.933  1.00  0.00     0.275 HD
ENDBRANCH   1  18
BRANCH   1  22
HETATM   22  C6  UNL     1      28.611  40.314   2.414  1.00  0.00     0.205 C 
BRANCH  22  23
HETATM   23  O1  UNL     1      27.344  39.816   2.774  1.00  0.00    -0.389 OA
ATOM     24  H1  UNL     1      27.314  38.868   2.718  1.00  0.00     0.210 HD
ENDBRANCH  22  23
BRANCH  22  25
HETATM   25  C7  UNL     1      28.504  41.029   1.129  1.00  0.00     0.255 C 
BRANCH  25  26
HETATM   26  O2  UNL     1      27.776  40.285   0.211  1.00  0.00    -0.374 OA
ATOM     27  H2  UNL     1      28.230  39.479  -0.005  1.00  0.00     0.212 HD
ENDBRANCH  25  26
BRANCH  25  28
HETATM   28  N6  UNL     1      28.111  42.390   1.144  1.00  0.00    -0.303 N 
HETATM   29  C8  UNL     1      28.852  43.552   0.632  1.00  0.00     0.150 C 
HETATM   30  C9  UNL     1      28.640  44.520   1.779  1.00  0.00     0.144 C 
HETATM   31  N7  UNL     1      27.278  44.239   2.193  1.00  0.00    -0.341 N 
HETATM   32  C10 UNL     1      26.925  42.944   1.663  1.00  0.00     0.320 C 
ATOM     33  H7  UNL     1      26.681  44.844   2.756  1.00  0.00     0.164 HD
HETATM   34  O3  UNL     1      25.757  42.447   1.685  1.00  0.00    -0.247 OA
ENDBRANCH  25  28
ENDBRANCH  22  25
ENDBRANCH   1  22
TORSDOF 8
ENDMDL
MODEL 5
REMARK VINA RESULT: -6.334754006      2.043      2.748
REMARK  8 active torsions:
REMARK  status: ('A' for Active; 'I' for Inactive)
REMARK    1  A    between atoms: N1_2  and  C2_4 
REMARK    2  A    between atoms: C4_11  and  C5_12 
REMARK    3  A    between atoms: C5_12  and  N5_13 
REMARK    4  A    between atoms: C5_12  and  C6_17 
REMARK    5  A    between atoms: C6_17  and  O1_18 
REMARK    6  A    between atoms: C6_17  and  C7_20 
REMARK    7  A    between atoms: C7_20  and  O2_21 
REMARK    8  A    between atoms: C7_20  and  N6_23 
ROOT
HETATM    1  C5  UNL     1      31.085  39.220   9.790  1.00  0.00     0.286 C 
ENDROOT
BRANCH   1   2
HETATM    2  C4  UNL     1      31.248  39.912   8.456  1.00  0.00     0.153 A 
HETATM    3  N4  UNL     1      30.537  39.606   7.344  1.00  0.00    -0.218 N 
HETATM    4  N3  UNL     1      29.591  38.723   7.103  1.00  0.00    -0.286 N 
HETATM    5  C11 UNL     1      30.918  40.393   6.331  1.00  0.00     0.188 A 
HETATM    6  C3  UNL     1      29.006  38.583   5.901  1.00  0.00     0.199 A 
ATOM      7  H3  UNL     1      29.288  38.116   7.864  1.00  0.00     0.188 HD
HETATM    8  N2  UNL     1      29.374  39.362   4.870  1.00  0.00    -0.335 N 
HETATM    9  C2  UNL     1      30.333  40.271   5.082  1.00  0.00     0.150 A 
ATOM     10  H2  UNL     1      28.936  39.263   3.953  1.00  0.00     0.168 HD
HETATM   11  N9  UNL     1      31.887  41.204   6.824  1.00  0.00    -0.279 N 
HETATM   12  N8  UNL     1      32.068  40.898   8.093  1.00  0.00    -0.284 N 
ATOM     13  H9  UNL     1      32.389  41.924   6.303  1.00  0.00     0.189 HD
ATOM     14  H8  UNL     1      32.740  41.353   8.711  1.00  0.00     0.188 HD
BRANCH   9  15
HETATM   15  N1  UNL     1      30.705  41.025   4.124  1.00  0.00    -0.377 N 
HETATM   16  C1  UNL     1      29.947  41.095   2.892  1.00  0.00     0.148 C 
ATOM     17  H1  UNL     1      31.549  41.588   4.226  1.00  0.00     0.160 HD
ENDBRANCH   9  15
ENDBRANCH   1   2
BRANCH   1  18
HETATM   18  N5  UNL     1      31.989  38.046   9.630  1.00  0.00    -0.065 N 
ATOM     19  H53 UNL     1      31.519  37.153   9.477  1.00  0.00     0.275 HD
ATOM     20  H52 UNL     1      32.519  38.022   8.760  1.00  0.00     0.275 HD
ATOM     21  H51 UNL     1      32.549  38.102  10.480  1.00  0.00     0.275 HD
ENDBRANCH   1  18
BRANCH   1  22
HETATM   22  C6  UNL     1      31.616  39.976  10.930  1.00  0.00     0.205 C 
BRANCH  22  23
HETATM   23  O1  UNL     1      31.370  41.355  10.793  1.00  0.00    -0.389 OA
ATOM     24  H1  UNL     1      30.508  41.588  11.120  1.00  0.00     0.210 HD
ENDBRANCH  22  23
BRANCH  22  25
HETATM   25  C7  UNL     1      31.326  39.566  12.316  1.00  0.00     0.255 C 
BRANCH  25  26
HETATM   26  O2  UNL     1      29.964  39.368  12.497  1.00  0.00    -0.374 OA
ATOM     27  H2  UNL     1      29.639  38.701  11.904  1.00  0.00     0.212 HD
ENDBRANCH  25  26
BRANCH  25  28
HETATM   28  N6  UNL     1      32.096  38.523  12.887  1.00  0.00    -0.303 N 
HETATM   29  C8  UNL     1      33.486  38.582  13.366  1.00  0.00     0.150 C 
HETATM   30  C9  UNL     1      34.018  37.291  12.775  1.00  0.00     0.144 C 
HETATM   31  N7  UNL     1      32.894  36.384  12.913  1.00  0.00    -0.341 N 
HETATM   32  C10 UNL     1      31.713  37.188  13.118  1.00  0.00     0.320 C 
ATOM     33  H7  UNL     1      32.931  35.365  12.872  1.00  0.00     0.164 HD
HETATM   34  O3  UNL     1      30.573  36.731  13.442  1.00  0.00    -0.247 OA
ENDBRANCH  25  28
ENDBRANCH  22  25
ENDBRANCH   1  22
TORSDOF 8
ENDMDL
