MODEL 1
REMARK VINA RESULT: -5.877681493      0.000      0.000
REMARK  11 active torsions:
REMARK  status: ('A' for Active; 'I' for Inactive)
REMARK    1  A    between atoms: N1_1  and  C1_4 
REMARK    2  A    between atoms: C2_9  and  C3_10 
REMARK    3  A    between atoms: C3_10  and  S1_11 
REMARK    4  A    between atoms: S1_11  and  C4_12 
REMARK    5  A    between atoms: N5_16  and  C6_18 
REMARK    6  A    between atoms: C6_18  and  O1_19 
REMARK    7  A    between atoms: C6_18  and  N6_21 
REMARK    8  A    between atoms: N6_21  and  N7_22 
REMARK    9  A    between atoms: C9_25  and  O2_26 
REMARK   10  A    between atoms: C10_28  and  O3_29 
REMARK   11  A    between atoms: N8_33  and  N9_34 
ROOT
HETATM    1  C4  UNL     1      31.184  40.725   9.143  1.00  0.00     0.170 C 
HETATM    2  N4  UNL     1      31.381  41.971   8.704  1.00  0.00    -0.319 N 
ATOM      3  H4  UNL     1      31.146  42.133   7.725  1.00  0.00     0.169 HD
HETATM    4  C5  UNL     1      31.848  43.042   9.373  1.00  0.00     0.143 C 
HETATM    5  N5  UNL     1      31.885  44.100   8.716  1.00  0.00    -0.333 N 
ATOM      6  H5  UNL     1      32.232  44.911   9.228  1.00  0.00     0.165 HD
HETATM    7  C9  UNL     1      32.326  43.115  10.685  1.00  0.00     0.149 C 
HETATM    8  C10 UNL     1      32.483  42.035  11.535  1.00  0.00     0.173 C 
HETATM    9  C11 UNL     1      32.590  40.673  11.139  1.00  0.00     0.304 C 
HETATM   10  O4  UNL     1      33.346  39.983  11.825  1.00  0.00    -0.263 OA
HETATM   11  N8  UNL     1      31.911  40.105  10.087  1.00  0.00    -0.201 N 
ENDROOT
BRANCH   1  12
HETATM   12  S1  UNL     1      29.699  39.846   8.580  1.00  0.00    -0.086 SA
BRANCH  12  13
HETATM   13  C3  UNL     1      30.411  38.801   7.211  1.00  0.00     0.146 C 
BRANCH  13  14
HETATM   14  C2  UNL     1      30.379  39.534   5.950  1.00  0.00     0.104 A 
HETATM   15  N3  UNL     1      31.221  40.496   5.589  1.00  0.00    -0.284 N 
HETATM   16  N2  UNL     1      31.044  41.167   4.465  1.00  0.00    -0.132 N 
ATOM     17  H3  UNL     1      32.016  40.719   6.188  1.00  0.00     0.187 HD
HETATM   18  C1  UNL     1      30.034  40.911   3.638  1.00  0.00     0.693 A 
ATOM     19  H2  UNL     1      31.704  41.906   4.223  1.00  0.00     0.205 HD
HETATM   20  N10 UNL     1      29.147  39.915   3.997  1.00  0.00    -0.153 N 
HETATM   21  C12 UNL     1      29.298  39.233   5.124  1.00  0.00     0.284 A 
ATOM     22  H10 UNL     1      28.361  39.701   3.384  1.00  0.00     0.187 HD
HETATM   23  O5  UNL     1      28.487  38.319   5.458  1.00  0.00    -0.265 OA
BRANCH  18  24
HETATM   24  N1  UNL     1      29.802  41.495   2.532  1.00  0.00    -0.233 N 
ATOM     25  H12 UNL     1      30.423  42.268   2.294  1.00  0.00     0.174 HD
ATOM     26  H11 UNL     1      29.058  41.265   1.874  1.00  0.00     0.174 HD
ENDBRANCH  18  24
ENDBRANCH  13  14
ENDBRANCH  12  13
ENDBRANCH   1  12
BRANCH  11  27
HETATM   27  N9  UNL     1      31.950  38.738  10.034  1.00  0.00    -0.334 N 
ATOM     28  H92 UNL     1      32.177  38.342   9.122  1.00  0.00     0.177 HD
ATOM     29  H91 UNL     1      31.786  38.240  10.909  1.00  0.00     0.177 HD
ENDBRANCH  11  27
BRANCH   5  30
HETATM   30  C6  UNL     1      31.516  44.357   7.350  1.00  0.00     0.333 C 
BRANCH  30  31
HETATM   31  O1  UNL     1      31.828  43.241   6.588  1.00  0.00    -0.362 OA
ATOM     32  H1  UNL     1      32.307  42.627   7.132  1.00  0.00     0.213 HD
ENDBRANCH  30  31
BRANCH  30  33
HETATM   33  N6  UNL     1      30.001  44.298   7.453  1.00  0.00    -0.112 NA
BRANCH  33  34
HETATM   34  N7  UNL     1      29.690  43.433   6.388  1.00  0.00    -0.228 NA
HETATM   35  C7  UNL     1      28.717  43.913   5.402  1.00  0.00     0.125 A 
HETATM   36  C8  UNL     1      28.465  42.730   6.308  1.00  0.00     0.125 A 
ENDBRANCH  33  34
ENDBRANCH  30  33
ENDBRANCH   5  30
BRANCH   7  37
HETATM   37  O2  UNL     1      32.656  44.331  11.165  1.00  0.00    -0.355 OA
ATOM     38  H2  UNL     1      32.869  44.398  12.088  1.00  0.00     0.218 HD
ENDBRANCH   7  37
BRANCH   8  39
HETATM   39  O3  UNL     1      32.541  42.253  12.884  1.00  0.00    -0.353 OA
ATOM     40  H3  UNL     1      33.353  42.560  13.268  1.00  0.00     0.218 HD
ENDBRANCH   8  39
TORSDOF 11
ENDMDL
MODEL 2
REMARK VINA RESULT: -5.837475870      2.199      4.757
REMARK  11 active torsions:
REMARK  status: ('A' for Active; 'I' for Inactive)
REMARK    1  A    between atoms: N1_1  and  C1_4 
REMARK    2  A    between atoms: C2_9  and  C3_10 
REMARK    3  A    between atoms: C3_10  and  S1_11 
REMARK    4  A    between atoms: S1_11  and  C4_12 
REMARK    5  A    between atoms: N5_16  and  C6_18 
REMARK    6  A    between atoms: C6_18  and  O1_19 
REMARK    7  A    between atoms: C6_18  and  N6_21 
REMARK    8  A    between atoms: N6_21  and  N7_22 
REMARK    9  A    between atoms: C9_25  and  O2_26 
REMARK   10  A    between atoms: C10_28  and  O3_29 
REMARK   11  A    between atoms: N8_33  and  N9_34 
ROOT
HETATM    1  C4  UNL     1      29.201  40.627   9.036  1.00  0.00     0.170 C 
HETATM    2  N4  UNL     1      29.529  39.804   8.035  1.00  0.00    -0.319 N 
ATOM      3  H4  UNL     1      28.904  39.824   7.229  1.00  0.00     0.169 HD
HETATM    4  C5  UNL     1      30.568  38.954   7.942  1.00  0.00     0.143 C 
HETATM    5  N5  UNL     1      30.652  38.338   6.863  1.00  0.00    -0.333 N 
ATOM      6  H5  UNL     1      31.444  37.700   6.793  1.00  0.00     0.165 HD
HETATM    7  C9  UNL     1      31.536  38.645   8.904  1.00  0.00     0.149 C 
HETATM    8  C10 UNL     1      31.548  39.125  10.201  1.00  0.00     0.173 C 
HETATM    9  C11 UNL     1      30.429  39.648  10.906  1.00  0.00     0.304 C 
HETATM   10  O4  UNL     1      30.403  39.399  12.113  1.00  0.00    -0.263 OA
HETATM   11  N8  UNL     1      29.425  40.398  10.340  1.00  0.00    -0.201 N 
ENDROOT
BRANCH   1  12
HETATM   12  S1  UNL     1      28.582  42.281   8.615  1.00  0.00    -0.086 SA
BRANCH  12  13
HETATM   13  C3  UNL     1      29.397  42.546   6.960  1.00  0.00     0.146 C 
BRANCH  13  14
HETATM   14  C2  UNL     1      30.817  42.834   7.139  1.00  0.00     0.104 A 
HETATM   15  N3  UNL     1      31.811  41.966   6.985  1.00  0.00    -0.284 N 
HETATM   16  N2  UNL     1      33.056  42.304   7.269  1.00  0.00    -0.132 N 
ATOM     17  H3  UNL     1      31.610  41.026   6.643  1.00  0.00     0.187 HD
HETATM   18  C1  UNL     1      33.381  43.518   7.705  1.00  0.00     0.693 A 
ATOM     19  H2  UNL     1      33.794  41.610   7.149  1.00  0.00     0.205 HD
HETATM   20  N10 UNL     1      32.360  44.433   7.873  1.00  0.00    -0.153 N 
HETATM   21  C12 UNL     1      31.101  44.117   7.602  1.00  0.00     0.284 A 
ATOM     22  H10 UNL     1      32.578  45.370   8.210  1.00  0.00     0.187 HD
HETATM   23  O5  UNL     1      30.161  44.953   7.755  1.00  0.00    -0.265 OA
BRANCH  18  24
HETATM   24  N1  UNL     1      34.551  43.928   7.983  1.00  0.00    -0.233 N 
ATOM     25  H12 UNL     1      34.934  43.621   8.877  1.00  0.00     0.174 HD
ATOM     26  H11 UNL     1      35.132  44.533   7.403  1.00  0.00     0.174 HD
ENDBRANCH  18  24
ENDBRANCH  13  14
ENDBRANCH  12  13
ENDBRANCH   1  12
BRANCH  11  27
HETATM   27  N9  UNL     1      28.587  41.020  11.226  1.00  0.00    -0.334 N 
ATOM     28  H92 UNL     1      28.476  42.025  11.091  1.00  0.00     0.177 HD
ATOM     29  H91 UNL     1      28.125  40.426  11.915  1.00  0.00     0.177 HD
ENDBRANCH  11  27
BRANCH   5  30
HETATM   30  C6  UNL     1      29.807  38.387   5.700  1.00  0.00     0.333 C 
BRANCH  30  31
HETATM   31  O1  UNL     1      28.486  38.473   6.113  1.00  0.00    -0.362 OA
ATOM     32  H1  UNL     1      28.420  39.147   6.779  1.00  0.00     0.213 HD
ENDBRANCH  30  31
BRANCH  30  33
HETATM   33  N6  UNL     1      30.107  39.787   5.192  1.00  0.00    -0.112 NA
BRANCH  33  34
HETATM   34  N7  UNL     1      29.367  39.806   3.996  1.00  0.00    -0.228 NA
HETATM   35  C7  UNL     1      29.905  40.607   2.893  1.00  0.00     0.125 A 
HETATM   36  C8  UNL     1      28.603  40.925   3.590  1.00  0.00     0.125 A 
ENDBRANCH  33  34
ENDBRANCH  30  33
ENDBRANCH   5  30
BRANCH   7  37
HETATM   37  O2  UNL     1      32.539  37.823   8.540  1.00  0.00    -0.355 OA
ATOM     38  H2  UNL     1      32.311  37.027   8.075  1.00  0.00     0.218 HD
ENDBRANCH   7  37
BRANCH   8  39
HETATM   39  O3  UNL     1      32.722  39.115  10.903  1.00  0.00    -0.353 OA
ATOM     40  H3  UNL     1      32.694  39.183  11.850  1.00  0.00     0.218 HD
ENDBRANCH   8  39
TORSDOF 11
ENDMDL
MODEL 3
REMARK VINA RESULT: -5.836109153      2.316      6.304
REMARK  11 active torsions:
REMARK  status: ('A' for Active; 'I' for Inactive)
REMARK    1  A    between atoms: N1_1  and  C1_4 
REMARK    2  A    between atoms: C2_9  and  C3_10 
REMARK    3  A    between atoms: C3_10  and  S1_11 
REMARK    4  A    between atoms: S1_11  and  C4_12 
REMARK    5  A    between atoms: N5_16  and  C6_18 
REMARK    6  A    between atoms: C6_18  and  O1_19 
REMARK    7  A    between atoms: C6_18  and  N6_21 
REMARK    8  A    between atoms: N6_21  and  N7_22 
REMARK    9  A    between atoms: C9_25  and  O2_26 
REMARK   10  A    between atoms: C10_28  and  O3_29 
REMARK   11  A    between atoms: N8_33  and  N9_34 
ROOT
HETATM    1  C4  UNL     1      30.687  39.473   7.746  1.00  0.00     0.170 C 
HETATM    2  N4  UNL     1      30.949  40.777   7.613  1.00  0.00    -0.319 N 
ATOM      3  H4  UNL     1      31.264  41.249   8.460  1.00  0.00     0.169 HD
HETATM    4  C5  UNL     1      30.855  41.552   6.517  1.00  0.00     0.143 C 
HETATM    5  N5  UNL     1      31.210  42.735   6.675  1.00  0.00    -0.333 N 
ATOM      6  H5  UNL     1      31.144  43.318   5.841  1.00  0.00     0.165 HD
HETATM    7  C9  UNL     1      30.380  41.217   5.244  1.00  0.00     0.149 C 
HETATM    8  C10 UNL     1      29.828  39.996   4.898  1.00  0.00     0.173 C 
HETATM    9  C11 UNL     1      29.273  39.048   5.802  1.00  0.00     0.304 C 
HETATM   10  O4  UNL     1      28.299  38.424   5.377  1.00  0.00    -0.263 OA
HETATM   11  N8  UNL     1      29.755  38.789   7.063  1.00  0.00    -0.201 N 
ENDROOT
BRANCH   1  12
HETATM   12  S1  UNL     1      31.799  38.480   8.783  1.00  0.00    -0.086 SA
BRANCH  12  13
HETATM   13  C3  UNL     1      31.225  38.978  10.484  1.00  0.00     0.146 C 
BRANCH  13  14
HETATM   14  C2  UNL     1      32.154  39.941  11.067  1.00  0.00     0.104 A 
HETATM   15  N3  UNL     1      32.241  41.228  10.747  1.00  0.00    -0.284 N 
HETATM   16  N2  UNL     1      33.185  41.993  11.263  1.00  0.00    -0.132 N 
ATOM     17  H3  UNL     1      31.568  41.630  10.093  1.00  0.00     0.187 HD
HETATM   18  C1  UNL     1      34.081  41.528  12.130  1.00  0.00     0.693 A 
ATOM     19  H2  UNL     1      33.230  42.974  10.988  1.00  0.00     0.205 HD
HETATM   20  N10 UNL     1      34.007  40.192  12.473  1.00  0.00    -0.153 N 
HETATM   21  C12 UNL     1      33.073  39.401  11.963  1.00  0.00     0.284 A 
ATOM     22  H10 UNL     1      34.684  39.807  13.132  1.00  0.00     0.187 HD
HETATM   23  O5  UNL     1      33.002  38.175  12.275  1.00  0.00    -0.265 OA
BRANCH  18  24
HETATM   24  N1  UNL     1      35.008  42.198  12.685  1.00  0.00    -0.233 N 
ATOM     25  H12 UNL     1      35.837  41.673  12.961  1.00  0.00     0.174 HD
ATOM     26  H11 UNL     1      34.994  43.199  12.881  1.00  0.00     0.174 HD
ENDBRANCH  18  24
ENDBRANCH  13  14
ENDBRANCH  12  13
ENDBRANCH   1  12
BRANCH  11  27
HETATM   27  N9  UNL     1      29.249  37.669   7.666  1.00  0.00    -0.334 N 
ATOM     28  H92 UNL     1      29.809  36.824   7.557  1.00  0.00     0.177 HD
ATOM     29  H91 UNL     1      28.385  37.783   8.194  1.00  0.00     0.177 HD
ENDBRANCH  11  27
BRANCH   5  30
HETATM   30  C6  UNL     1      31.698  43.408   7.848  1.00  0.00     0.333 C 
BRANCH  30  31
HETATM   31  O1  UNL     1      30.977  42.965   8.947  1.00  0.00    -0.362 OA
ATOM     32  H1  UNL     1      30.051  43.077   8.767  1.00  0.00     0.213 HD
ENDBRANCH  30  31
BRANCH  30  33
HETATM   33  N6  UNL     1      33.048  42.731   8.020  1.00  0.00    -0.112 NA
BRANCH  33  34
HETATM   34  N7  UNL     1      33.682  43.613   8.913  1.00  0.00    -0.228 NA
HETATM   35  C7  UNL     1      33.667  45.037   8.567  1.00  0.00     0.125 A 
HETATM   36  C8  UNL     1      34.932  44.214   8.633  1.00  0.00     0.125 A 
ENDBRANCH  33  34
ENDBRANCH  30  33
ENDBRANCH   5  30
BRANCH   7  37
HETATM   37  O2  UNL     1      30.471  42.150   4.276  1.00  0.00    -0.355 OA
ATOM     38  H2  UNL     1      30.226  41.896   3.394  1.00  0.00     0.218 HD
ENDBRANCH   7  37
BRANCH   8  39
HETATM   39  O3  UNL     1      29.795  39.630   3.581  1.00  0.00    -0.353 OA
ATOM     40  H3  UNL     1      30.470  39.052   3.246  1.00  0.00     0.218 HD
ENDBRANCH   8  39
TORSDOF 11
ENDMDL
MODEL 4
REMARK VINA RESULT: -5.689941305      3.403      8.003
REMARK  11 active torsions:
REMARK  status: ('A' for Active; 'I' for Inactive)
REMARK    1  A    between atoms: N1_1  and  C1_4 
REMARK    2  A    between atoms: C2_9  and  C3_10 
REMARK    3  A    between atoms: C3_10  and  S1_11 
REMARK    4  A    between atoms: S1_11  and  C4_12 
REMARK    5  A    between atoms: N5_16  and  C6_18 
REMARK    6  A    between atoms: C6_18  and  O1_19 
REMARK    7  A    between atoms: C6_18  and  N6_21 
REMARK    8  A    between atoms: N6_21  and  N7_22 
REMARK    9  A    between atoms: C9_25  and  O2_26 
REMARK   10  A    between atoms: C10_28  and  O3_29 
REMARK   11  A    between atoms: N8_33  and  N9_34 
ROOT
HETATM    1  C4  UNL     1      28.308  43.390   2.902  1.00  0.00     0.170 C 
HETATM    2  N4  UNL     1      28.963  42.322   3.366  1.00  0.00    -0.319 N 
ATOM      3  H4  UNL     1      29.366  42.426   4.297  1.00  0.00     0.169 HD
HETATM    4  C5  UNL     1      29.164  41.129   2.777  1.00  0.00     0.143 C 
HETATM    5  N5  UNL     1      29.778  40.295   3.468  1.00  0.00    -0.333 N 
ATOM      6  H5  UNL     1      29.923  39.390   3.022  1.00  0.00     0.165 HD
HETATM    7  C9  UNL     1      28.811  40.718   1.487  1.00  0.00     0.149 C 
HETATM    8  C10 UNL     1      28.236  41.528   0.524  1.00  0.00     0.173 C 
HETATM    9  C11 UNL     1      28.278  42.950   0.500  1.00  0.00     0.304 C 
HETATM   10  O4  UNL     1      28.352  43.455  -0.621  1.00  0.00    -0.263 OA
HETATM   11  N8  UNL     1      28.225  43.757   1.612  1.00  0.00    -0.201 N 
ENDROOT
BRANCH   1  12
HETATM   12  S1  UNL     1      27.272  44.328   4.061  1.00  0.00    -0.086 SA
BRANCH  12  13
HETATM   13  C3  UNL     1      28.571  45.034   5.195  1.00  0.00     0.146 C 
BRANCH  13  14
HETATM   14  C2  UNL     1      28.838  44.110   6.292  1.00  0.00     0.104 A 
HETATM   15  N3  UNL     1      28.020  43.154   6.719  1.00  0.00    -0.284 N 
HETATM   16  N2  UNL     1      28.315  42.435   7.787  1.00  0.00    -0.132 N 
ATOM     17  H3  UNL     1      27.152  42.973   6.214  1.00  0.00     0.187 HD
HETATM   18  C1  UNL     1      29.437  42.617   8.477  1.00  0.00     0.693 A 
ATOM     19  H2  UNL     1      27.660  41.716   8.093  1.00  0.00     0.205 HD
HETATM   20  N10 UNL     1      30.300  43.607   8.049  1.00  0.00    -0.153 N 
HETATM   21  C12 UNL     1      30.023  44.348   6.985  1.00  0.00     0.284 A 
ATOM     22  H10 UNL     1      31.166  43.772   8.561  1.00  0.00     0.187 HD
HETATM   23  O5  UNL     1      30.811  45.258   6.589  1.00  0.00    -0.265 OA
BRANCH  18  24
HETATM   24  N1  UNL     1      29.805  41.959   9.501  1.00  0.00    -0.233 N 
ATOM     25  H12 UNL     1      29.211  41.174   9.767  1.00  0.00     0.174 HD
ATOM     26  H11 UNL     1      30.626  42.148  10.076  1.00  0.00     0.174 HD
ENDBRANCH  18  24
ENDBRANCH  13  14
ENDBRANCH  12  13
ENDBRANCH   1  12
BRANCH  11  27
HETATM   27  N9  UNL     1      28.016  45.086   1.363  1.00  0.00    -0.334 N 
ATOM     28  H92 UNL     1      28.188  45.383   0.402  1.00  0.00     0.177 HD
ATOM     29  H91 UNL     1      27.676  45.651   2.141  1.00  0.00     0.177 HD
ENDBRANCH  11  27
BRANCH   5  30
HETATM   30  C6  UNL     1      30.315  40.408   4.798  1.00  0.00     0.333 C 
BRANCH  30  31
HETATM   31  O1  UNL     1      30.958  41.632   4.915  1.00  0.00    -0.362 OA
ATOM     32  H1  UNL     1      31.815  41.563   4.513  1.00  0.00     0.213 HD
ENDBRANCH  30  31
BRANCH  30  33
HETATM   33  N6  UNL     1      29.040  40.605   5.600  1.00  0.00    -0.112 NA
BRANCH  33  34
HETATM   34  N7  UNL     1      29.065  39.471   6.432  1.00  0.00    -0.228 NA
HETATM   35  C7  UNL     1      30.308  39.210   7.165  1.00  0.00     0.125 A 
HETATM   36  C8  UNL     1      29.769  38.291   6.093  1.00  0.00     0.125 A 
ENDBRANCH  33  34
ENDBRANCH  30  33
ENDBRANCH   5  30
BRANCH   7  37
HETATM   37  O2  UNL     1      29.040  39.432   1.155  1.00  0.00    -0.355 OA
ATOM     38  H2  UNL     1      28.395  38.787   1.417  1.00  0.00     0.218 HD
ENDBRANCH   7  37
BRANCH   8  39
HETATM   39  O3  UNL     1      27.555  40.951  -0.512  1.00  0.00    -0.353 OA
ATOM     40  H3  UNL     1      26.895  41.457  -0.970  1.00  0.00     0.218 HD
ENDBRANCH   8  39
TORSDOF 11
ENDMDL
MODEL 5
REMARK VINA RESULT: -5.679222142      2.516      5.488
REMARK  11 active torsions:
REMARK  status: ('A' for Active; 'I' for Inactive)
REMARK    1  A    between atoms: N1_1  and  C1_4 
REMARK    2  A    between atoms: C2_9  and  C3_10 
REMARK    3  A    between atoms: C3_10  and  S1_11 
REMARK    4  A    between atoms: S1_11  and  C4_12 
REMARK    5  A    between atoms: N5_16  and  C6_18 
REMARK    6  A    between atoms: C6_18  and  O1_19 
REMARK    7  A    between atoms: C6_18  and  N6_21 
REMARK    8  A    between atoms: N6_21  and  N7_22 
REMARK    9  A    between atoms: C9_25  and  O2_26 
REMARK   10  A    between atoms: C10_28  and  O3_29 
REMARK   11  A    between atoms: N8_33  and  N9_34 
ROOT
HETATM    1  C4  UNL     1      30.060  41.168   5.259  1.00  0.00     0.170 C 
HETATM    2  N4  UNL     1      31.011  41.526   6.127  1.00  0.00    -0.319 N 
ATOM      3  H4  UNL     1      31.526  42.373   5.889  1.00  0.00     0.169 HD
HETATM    4  C5  UNL     1      31.383  40.924   7.272  1.00  0.00     0.143 C 
HETATM    5  N5  UNL     1      32.278  41.510   7.910  1.00  0.00    -0.333 N 
ATOM      6  H5  UNL     1      32.553  41.055   8.780  1.00  0.00     0.165 HD
HETATM    7  C9  UNL     1      30.928  39.718   7.816  1.00  0.00     0.149 C 
HETATM    8  C10 UNL     1      30.032  38.859   7.206  1.00  0.00     0.173 C 
HETATM    9  C11 UNL     1      29.740  38.812   5.814  1.00  0.00     0.304 C 
HETATM   10  O4  UNL     1      29.511  37.689   5.362  1.00  0.00    -0.263 OA
HETATM   11  N8  UNL     1      29.685  39.908   4.986  1.00  0.00    -0.201 N 
ENDROOT
BRANCH   1  12
HETATM   12  S1  UNL     1      29.039  42.477   4.523  1.00  0.00    -0.086 SA
BRANCH  12  13
HETATM   13  C3  UNL     1      28.002  42.975   5.989  1.00  0.00     0.146 C 
BRANCH  13  14
HETATM   14  C2  UNL     1      28.747  43.892   6.845  1.00  0.00     0.104 A 
HETATM   15  N3  UNL     1      29.311  45.032   6.457  1.00  0.00    -0.284 N 
HETATM   16  N2  UNL     1      30.050  45.741   7.290  1.00  0.00    -0.132 N 
ATOM     17  H3  UNL     1      29.170  45.362   5.502  1.00  0.00     0.187 HD
HETATM   18  C1  UNL     1      30.257  45.367   8.550  1.00  0.00     0.693 A 
ATOM     19  H2  UNL     1      30.476  46.606   6.957  1.00  0.00     0.205 HD
HETATM   20  N10 UNL     1      29.680  44.185   8.971  1.00  0.00    -0.153 N 
HETATM   21  C12 UNL     1      28.940  43.450   8.152  1.00  0.00     0.284 A 
ATOM     22  H10 UNL     1      29.826  43.871   9.930  1.00  0.00     0.187 HD
HETATM   23  O5  UNL     1      28.409  42.365   8.533  1.00  0.00    -0.265 OA
BRANCH  18  24
HETATM   24  N1  UNL     1      30.937  45.998   9.419  1.00  0.00    -0.233 N 
ATOM     25  H12 UNL     1      31.879  46.273   9.139  1.00  0.00     0.174 HD
ATOM     26  H11 UNL     1      30.632  46.246  10.360  1.00  0.00     0.174 HD
ENDBRANCH  18  24
ENDBRANCH  13  14
ENDBRANCH  12  13
ENDBRANCH   1  12
BRANCH  11  27
HETATM   27  N9  UNL     1      29.136  39.683   3.752  1.00  0.00    -0.334 N 
ATOM     28  H92 UNL     1      28.117  39.676   3.722  1.00  0.00     0.177 HD
ATOM     29  H91 UNL     1      29.786  39.579   2.973  1.00  0.00     0.177 HD
ENDBRANCH  11  27
BRANCH   5  30
HETATM   30  C6  UNL     1      32.984  42.727   7.612  1.00  0.00     0.333 C 
BRANCH  30  31
HETATM   31  O1  UNL     1      32.156  43.548   6.862  1.00  0.00    -0.362 OA
ATOM     32  H1  UNL     1      32.172  44.421   7.238  1.00  0.00     0.213 HD
ENDBRANCH  30  31
BRANCH  30  33
HETATM   33  N6  UNL     1      32.990  43.390   8.979  1.00  0.00    -0.112 NA
BRANCH  33  34
HETATM   34  N7  UNL     1      33.730  44.556   8.711  1.00  0.00    -0.228 NA
HETATM   35  C7  UNL     1      35.191  44.439   8.737  1.00  0.00     0.125 A 
HETATM   36  C8  UNL     1      34.409  45.278   9.721  1.00  0.00     0.125 A 
ENDBRANCH  33  34
ENDBRANCH  30  33
ENDBRANCH   5  30
BRANCH   7  37
HETATM   37  O2  UNL     1      31.391  39.366   9.032  1.00  0.00    -0.355 OA
ATOM     38  H2  UNL     1      31.938  38.591   9.088  1.00  0.00     0.218 HD
ENDBRANCH   7  37
BRANCH   8  39
HETATM   39  O3  UNL     1      29.343  37.960   7.973  1.00  0.00    -0.353 OA
ATOM     40  H3  UNL     1      28.767  37.337   7.549  1.00  0.00     0.218 HD
ENDBRANCH   8  39
TORSDOF 11
ENDMDL
