MODEL 1
REMARK VINA RESULT: -6.733512286      0.000      0.000
REMARK  11 active torsions:
REMARK  status: ('A' for Active; 'I' for Inactive)
REMARK    1  A    between atoms: C2_3  and  N2_4 
REMARK    2  A    between atoms: N2_4  and  O1_6 
REMARK    3  A    between atoms: O1_6  and  C3_7 
REMARK    4  A    between atoms: C3_7  and  O2_8 
REMARK    5  A    between atoms: N3_10  and  O3_11 
REMARK    6  A    between atoms: C4_13  and  O4_14 
REMARK    7  A    between atoms: C5_16  and  C6_17 
REMARK    8  A    between atoms: C6_17  and  N4_18 
REMARK    9  A    between atoms: N4_18  and  N5_20 
REMARK   10  A    between atoms: N5_20  and  C7_22 
REMARK   11  A    between atoms: C8_27  and  N8_28 
ROOT
HETATM    1  C1  UNL     1      32.021  37.919  13.437  1.00  0.00     0.179 C 
HETATM    2  N1  UNL     1      31.960  38.189  12.002  1.00  0.00    -0.147 N 
HETATM    3  C2  UNL     1      32.746  37.513  11.155  1.00  0.00     0.735 A 
HETATM    4  N3  UNL     1      32.708  37.745   9.833  1.00  0.00    -0.026 N 
HETATM    5  C4  UNL     1      31.871  38.669   9.334  1.00  0.00     0.203 A 
HETATM    6  C5  UNL     1      31.046  39.389  10.162  1.00  0.00     0.103 A 
HETATM    7  C9  UNL     1      31.120  39.117  11.508  1.00  0.00     0.277 A 
HETATM    8  O5  UNL     1      30.382  39.751  12.310  1.00  0.00    -0.266 OA
ENDROOT
BRANCH   6   9
HETATM    9  C6  UNL     1      30.153  40.380   9.598  1.00  0.00     0.129 C 
BRANCH   9  10
HETATM   10  N4  UNL     1      29.337  40.119   8.633  1.00  0.00    -0.296 N 
ATOM     11  H4  UNL     1      28.665  39.357   8.725  1.00  0.00     0.186 HD
BRANCH  10  12
HETATM   12  N5  UNL     1      29.372  40.879   7.464  1.00  0.00    -0.131 N 
ATOM     13  H5  UNL     1      29.383  41.898   7.490  1.00  0.00     0.205 HD
BRANCH  12  14
HETATM   14  C7  UNL     1      29.391  40.220   6.331  1.00  0.00     0.726 A 
HETATM   15  N6  UNL     1      29.207  38.898   6.206  1.00  0.00    -0.116 N 
HETATM   16  N7  UNL     1      29.293  38.579   4.907  1.00  0.00    -0.117 N 
ATOM     17  H6  UNL     1      29.030  38.245   6.969  1.00  0.00     0.206 HD
HETATM   18  C8  UNL     1      29.533  39.694   4.193  1.00  0.00     0.705 A 
ATOM     19  H7  UNL     1      29.194  37.641   4.521  1.00  0.00     0.206 HD
HETATM   20  N9  UNL     1      29.588  40.691   5.094  1.00  0.00    -0.019 N 
ATOM     21  H9  UNL     1      29.756  41.672   4.866  1.00  0.00     0.203 HD
BRANCH  18  22
HETATM   22  N8  UNL     1      29.686  39.849   2.922  1.00  0.00    -0.233 N 
ATOM     23  H82 UNL     1      30.571  40.083   2.470  1.00  0.00     0.174 HD
ATOM     24  H81 UNL     1      29.007  39.776   2.164  1.00  0.00     0.174 HD
ENDBRANCH  18  22
ENDBRANCH  12  14
ENDBRANCH  10  12
ENDBRANCH   9  10
ENDBRANCH   6   9
BRANCH   5  25
HETATM   25  O4  UNL     1      31.852  38.890   7.964  1.00  0.00    -0.343 OA
ATOM     26  H4  UNL     1      31.032  39.129   7.547  1.00  0.00     0.219 HD
ENDBRANCH   5  25
BRANCH   4  27
HETATM   27  O3  UNL     1      33.531  37.027   9.007  1.00  0.00    -0.267 OA
ATOM     28  H3  UNL     1      34.345  36.681   9.353  1.00  0.00     0.246 HD
ENDBRANCH   4  27
BRANCH   3  29
HETATM   29  N2  UNL     1      33.635  36.529  11.700  1.00  0.00    -0.092 N 
ATOM     30  H2  UNL     1      33.275  35.811  12.330  1.00  0.00     0.213 HD
BRANCH  29  31
HETATM   31  O1  UNL     1      34.932  36.548  11.385  1.00  0.00    -0.240 OA
BRANCH  31  32
HETATM   32  C3  UNL     1      35.467  35.280  11.222  1.00  0.00     0.367 C 
BRANCH  32  33
HETATM   33  O2  UNL     1      34.900  34.569  10.183  1.00  0.00    -0.375 OA
ATOM     34  H2  UNL     1      34.905  33.628  10.317  1.00  0.00     0.212 HD
ENDBRANCH  32  33
ENDBRANCH  31  32
ENDBRANCH  29  31
ENDBRANCH   3  29
TORSDOF 11
ENDMDL
MODEL 2
REMARK VINA RESULT: -6.502223686      2.798      7.541
REMARK  11 active torsions:
REMARK  status: ('A' for Active; 'I' for Inactive)
REMARK    1  A    between atoms: C2_3  and  N2_4 
REMARK    2  A    between atoms: N2_4  and  O1_6 
REMARK    3  A    between atoms: O1_6  and  C3_7 
REMARK    4  A    between atoms: C3_7  and  O2_8 
REMARK    5  A    between atoms: N3_10  and  O3_11 
REMARK    6  A    between atoms: C4_13  and  O4_14 
REMARK    7  A    between atoms: C5_16  and  C6_17 
REMARK    8  A    between atoms: C6_17  and  N4_18 
REMARK    9  A    between atoms: N4_18  and  N5_20 
REMARK   10  A    between atoms: N5_20  and  C7_22 
REMARK   11  A    between atoms: C8_27  and  N8_28 
ROOT
HETATM    1  C1  UNL     1      30.603  42.729   5.687  1.00  0.00     0.179 C 
HETATM    2  N1  UNL     1      30.414  41.359   6.156  1.00  0.00    -0.147 N 
HETATM    3  C2  UNL     1      29.804  40.458   5.376  1.00  0.00     0.735 A 
HETATM    4  N3  UNL     1      29.618  39.192   5.786  1.00  0.00    -0.026 N 
HETATM    5  C4  UNL     1      30.047  38.807   7.000  1.00  0.00     0.203 A 
HETATM    6  C5  UNL     1      30.678  39.695   7.836  1.00  0.00     0.103 A 
HETATM    7  C9  UNL     1      30.846  40.979   7.372  1.00  0.00     0.277 A 
HETATM    8  O5  UNL     1      31.419  41.831   8.103  1.00  0.00    -0.266 OA
ENDROOT
BRANCH   6   9
HETATM    9  C6  UNL     1      31.130  39.254   9.139  1.00  0.00     0.129 C 
BRANCH   9  10
HETATM   10  N4  UNL     1      32.332  38.842   9.361  1.00  0.00    -0.296 N 
ATOM     11  H4  UNL     1      33.048  39.501   9.670  1.00  0.00     0.186 HD
BRANCH  10  12
HETATM   12  N5  UNL     1      32.655  37.498   9.179  1.00  0.00    -0.131 N 
ATOM     13  H5  UNL     1      32.438  37.009   8.311  1.00  0.00     0.205 HD
BRANCH  12  14
HETATM   14  C7  UNL     1      33.253  36.893  10.176  1.00  0.00     0.726 A 
HETATM   15  N6  UNL     1      32.813  36.877  11.443  1.00  0.00    -0.116 N 
HETATM   16  N7  UNL     1      33.674  36.166  12.182  1.00  0.00    -0.117 N 
ATOM     17  H6  UNL     1      31.966  37.329  11.786  1.00  0.00     0.206 HD
HETATM   18  C8  UNL     1      34.671  35.721  11.395  1.00  0.00     0.705 A 
ATOM     19  H7  UNL     1      33.589  35.989  13.183  1.00  0.00     0.206 HD
HETATM   20  N9  UNL     1      34.387  36.183  10.164  1.00  0.00    -0.019 N 
ATOM     21  H9  UNL     1      34.958  36.014   9.335  1.00  0.00     0.203 HD
BRANCH  18  22
HETATM   22  N8  UNL     1      35.703  35.005  11.687  1.00  0.00    -0.233 N 
ATOM     23  H82 UNL     1      36.026  34.816  12.636  1.00  0.00     0.174 HD
ATOM     24  H81 UNL     1      36.359  34.517  11.076  1.00  0.00     0.174 HD
ENDBRANCH  18  22
ENDBRANCH  12  14
ENDBRANCH  10  12
ENDBRANCH   9  10
ENDBRANCH   6   9
BRANCH   5  25
HETATM   25  O4  UNL     1      29.842  37.494   7.400  1.00  0.00    -0.343 OA
ATOM     26  H4  UNL     1      29.247  36.948   6.899  1.00  0.00     0.219 HD
ENDBRANCH   5  25
BRANCH   4  27
HETATM   27  O3  UNL     1      28.989  38.307   4.953  1.00  0.00    -0.267 OA
ATOM     28  H3  UNL     1      29.203  37.384   5.013  1.00  0.00     0.246 HD
ENDBRANCH   4  27
BRANCH   3  29
HETATM   29  N2  UNL     1      29.352  40.881   4.083  1.00  0.00    -0.092 N 
ATOM     30  H2  UNL     1      28.580  41.544   4.005  1.00  0.00     0.213 HD
BRANCH  29  31
HETATM   31  O1  UNL     1      29.938  40.411   2.980  1.00  0.00    -0.240 OA
BRANCH  31  32
HETATM   32  C3  UNL     1      29.039  40.165   1.954  1.00  0.00     0.367 C 
BRANCH  32  33
HETATM   33  O2  UNL     1      27.859  39.588   2.377  1.00  0.00    -0.375 OA
ATOM     34  H2  UNL     1      27.107  39.822   1.845  1.00  0.00     0.212 HD
ENDBRANCH  32  33
ENDBRANCH  31  32
ENDBRANCH  29  31
ENDBRANCH   3  29
TORSDOF 11
ENDMDL
MODEL 3
REMARK VINA RESULT: -6.471262410      3.506      8.165
REMARK  11 active torsions:
REMARK  status: ('A' for Active; 'I' for Inactive)
REMARK    1  A    between atoms: C2_3  and  N2_4 
REMARK    2  A    between atoms: N2_4  and  O1_6 
REMARK    3  A    between atoms: O1_6  and  C3_7 
REMARK    4  A    between atoms: C3_7  and  O2_8 
REMARK    5  A    between atoms: N3_10  and  O3_11 
REMARK    6  A    between atoms: C4_13  and  O4_14 
REMARK    7  A    between atoms: C5_16  and  C6_17 
REMARK    8  A    between atoms: C6_17  and  N4_18 
REMARK    9  A    between atoms: N4_18  and  N5_20 
REMARK   10  A    between atoms: N5_20  and  C7_22 
REMARK   11  A    between atoms: C8_27  and  N8_28 
ROOT
HETATM    1  C1  UNL     1      30.637  43.462   5.314  1.00  0.00     0.179 C 
HETATM    2  N1  UNL     1      30.267  42.056   5.168  1.00  0.00    -0.147 N 
HETATM    3  C2  UNL     1      29.733  41.615   4.023  1.00  0.00     0.735 A 
HETATM    4  N3  UNL     1      29.384  40.327   3.866  1.00  0.00    -0.026 N 
HETATM    5  C4  UNL     1      29.570  39.451   4.867  1.00  0.00     0.203 A 
HETATM    6  C5  UNL     1      30.115  39.856   6.061  1.00  0.00     0.103 A 
HETATM    7  C9  UNL     1      30.456  41.183   6.175  1.00  0.00     0.277 A 
HETATM    8  O5  UNL     1      30.960  41.603   7.252  1.00  0.00    -0.266 OA
ENDROOT
BRANCH   6   9
HETATM    9  C6  UNL     1      30.305  38.891   7.125  1.00  0.00     0.129 C 
BRANCH   9  10
HETATM   10  N4  UNL     1      31.468  38.567   7.578  1.00  0.00    -0.296 N 
ATOM     11  H4  UNL     1      32.065  37.935   7.044  1.00  0.00     0.186 HD
BRANCH  10  12
HETATM   12  N5  UNL     1      31.911  39.079   8.797  1.00  0.00    -0.131 N 
ATOM     13  H5  UNL     1      31.791  40.062   9.038  1.00  0.00     0.205 HD
BRANCH  12  14
HETATM   14  C7  UNL     1      32.489  38.236   9.618  1.00  0.00     0.726 A 
HETATM   15  N6  UNL     1      32.293  38.194  10.943  1.00  0.00    -0.116 N 
HETATM   16  N7  UNL     1      33.046  37.209  11.452  1.00  0.00    -0.117 N 
ATOM     17  H6  UNL     1      31.676  38.807  11.475  1.00  0.00     0.206 HD
HETATM   18  C8  UNL     1      33.728  36.614  10.457  1.00  0.00     0.705 A 
ATOM     19  H7  UNL     1      33.094  36.951  12.438  1.00  0.00     0.206 HD
HETATM   20  N9  UNL     1      33.367  37.265   9.337  1.00  0.00    -0.019 N 
ATOM     21  H9  UNL     1      33.713  37.048   8.402  1.00  0.00     0.203 HD
BRANCH  18  22
HETATM   22  N8  UNL     1      34.561  35.630  10.493  1.00  0.00    -0.233 N 
ATOM     23  H82 UNL     1      34.846  35.083   9.681  1.00  0.00     0.174 HD
ATOM     24  H81 UNL     1      35.067  35.227  11.282  1.00  0.00     0.174 HD
ENDBRANCH  18  22
ENDBRANCH  12  14
ENDBRANCH  10  12
ENDBRANCH   9  10
ENDBRANCH   6   9
BRANCH   5  25
HETATM   25  O4  UNL     1      29.202  38.127   4.680  1.00  0.00    -0.343 OA
ATOM     26  H4  UNL     1      29.701  37.444   5.113  1.00  0.00     0.219 HD
ENDBRANCH   5  25
BRANCH   4  27
HETATM   27  O3  UNL     1      28.841  39.924   2.676  1.00  0.00    -0.267 OA
ATOM     28  H3  UNL     1      28.177  40.464   2.265  1.00  0.00     0.246 HD
ENDBRANCH   4  27
BRANCH   3  29
HETATM   29  N2  UNL     1      29.540  42.559   2.961  1.00  0.00    -0.092 N 
ATOM     30  H2  UNL     1      29.087  43.454   3.151  1.00  0.00     0.213 HD
BRANCH  29  31
HETATM   31  O1  UNL     1      29.952  42.271   1.725  1.00  0.00    -0.240 OA
BRANCH  31  32
HETATM   32  C3  UNL     1      29.272  42.986   0.749  1.00  0.00     0.367 C 
BRANCH  32  33
HETATM   33  O2  UNL     1      28.488  42.198  -0.070  1.00  0.00    -0.375 OA
ATOM     34  H2  UNL     1      27.556  42.314   0.069  1.00  0.00     0.212 HD
ENDBRANCH  32  33
ENDBRANCH  31  32
ENDBRANCH  29  31
ENDBRANCH   3  29
TORSDOF 11
ENDMDL
MODEL 4
REMARK VINA RESULT: -6.398392808      3.115      5.066
REMARK  11 active torsions:
REMARK  status: ('A' for Active; 'I' for Inactive)
REMARK    1  A    between atoms: C2_3  and  N2_4 
REMARK    2  A    between atoms: N2_4  and  O1_6 
REMARK    3  A    between atoms: O1_6  and  C3_7 
REMARK    4  A    between atoms: C3_7  and  O2_8 
REMARK    5  A    between atoms: N3_10  and  O3_11 
REMARK    6  A    between atoms: C4_13  and  O4_14 
REMARK    7  A    between atoms: C5_16  and  C6_17 
REMARK    8  A    between atoms: C6_17  and  N4_18 
REMARK    9  A    between atoms: N4_18  and  N5_20 
REMARK   10  A    between atoms: N5_20  and  C7_22 
REMARK   11  A    between atoms: C8_27  and  N8_28 
ROOT
HETATM    1  C1  UNL     1      31.735  41.406   8.587  1.00  0.00     0.179 C 
HETATM    2  N1  UNL     1      31.024  40.552   7.639  1.00  0.00    -0.147 N 
HETATM    3  C2  UNL     1      30.669  39.309   7.986  1.00  0.00     0.735 A 
HETATM    4  N3  UNL     1      30.016  38.505   7.130  1.00  0.00    -0.026 N 
HETATM    5  C4  UNL     1      29.706  38.941   5.899  1.00  0.00     0.203 A 
HETATM    6  C5  UNL     1      30.049  40.209   5.496  1.00  0.00     0.103 A 
HETATM    7  C9  UNL     1      30.716  40.994   6.406  1.00  0.00     0.277 A 
HETATM    8  O5  UNL     1      31.053  42.166   6.083  1.00  0.00    -0.266 OA
ENDROOT
BRANCH   6   9
HETATM    9  C6  UNL     1      29.703  40.654   4.162  1.00  0.00     0.129 C 
BRANCH   9  10
HETATM   10  N4  UNL     1      29.231  41.829   3.916  1.00  0.00    -0.296 N 
ATOM     11  H4  UNL     1      28.325  42.105   4.295  1.00  0.00     0.186 HD
BRANCH  10  12
HETATM   12  N5  UNL     1      29.959  42.724   3.132  1.00  0.00    -0.131 N 
ATOM     13  H5  UNL     1      30.844  43.117   3.452  1.00  0.00     0.205 HD
BRANCH  12  14
HETATM   14  C7  UNL     1      29.450  43.036   1.965  1.00  0.00     0.726 A 
HETATM   15  N6  UNL     1      29.408  42.222   0.900  1.00  0.00    -0.116 N 
HETATM   16  N7  UNL     1      28.820  42.876  -0.111  1.00  0.00    -0.117 N 
ATOM     17  H6  UNL     1      29.763  41.266   0.866  1.00  0.00     0.206 HD
HETATM   18  C8  UNL     1      28.483  44.112   0.299  1.00  0.00     0.705 A 
ATOM     19  H7  UNL     1      28.655  42.497  -1.043  1.00  0.00     0.206 HD
HETATM   20  N9  UNL     1      28.881  44.185   1.582  1.00  0.00    -0.019 N 
ATOM     21  H9  UNL     1      28.765  45.004   2.180  1.00  0.00     0.203 HD
BRANCH  18  22
HETATM   22  N8  UNL     1      27.901  45.070  -0.341  1.00  0.00    -0.233 N 
ATOM     23  H82 UNL     1      28.387  45.763  -0.910  1.00  0.00     0.174 HD
ATOM     24  H81 UNL     1      26.913  45.312  -0.405  1.00  0.00     0.174 HD
ENDBRANCH  18  22
ENDBRANCH  12  14
ENDBRANCH  10  12
ENDBRANCH   9  10
ENDBRANCH   6   9
BRANCH   5  25
HETATM   25  O4  UNL     1      29.031  38.091   5.034  1.00  0.00    -0.343 OA
ATOM     26  H4  UNL     1      28.706  38.435   4.210  1.00  0.00     0.219 HD
ENDBRANCH   5  25
BRANCH   4  27
HETATM   27  O3  UNL     1      29.674  37.242   7.533  1.00  0.00    -0.267 OA
ATOM     28  H3  UNL     1      29.170  36.691   6.945  1.00  0.00     0.246 HD
ENDBRANCH   4  27
BRANCH   3  29
HETATM   29  N2  UNL     1      31.006  38.855   9.304  1.00  0.00    -0.092 N 
ATOM     30  H2  UNL     1      30.816  39.450  10.111  1.00  0.00     0.213 HD
BRANCH  29  31
HETATM   31  O1  UNL     1      31.566  37.656   9.478  1.00  0.00    -0.240 OA
BRANCH  31  32
HETATM   32  C3  UNL     1      32.912  37.732   9.803  1.00  0.00     0.367 C 
BRANCH  32  33
HETATM   33  O2  UNL     1      33.730  37.018   8.950  1.00  0.00    -0.375 OA
ATOM     34  H2  UNL     1      34.521  37.481   8.704  1.00  0.00     0.212 HD
ENDBRANCH  32  33
ENDBRANCH  31  32
ENDBRANCH  29  31
ENDBRANCH   3  29
TORSDOF 11
ENDMDL
MODEL 5
REMARK VINA RESULT: -6.367781104      3.617      8.543
REMARK  11 active torsions:
REMARK  status: ('A' for Active; 'I' for Inactive)
REMARK    1  A    between atoms: C2_3  and  N2_4 
REMARK    2  A    between atoms: N2_4  and  O1_6 
REMARK    3  A    between atoms: O1_6  and  C3_7 
REMARK    4  A    between atoms: C3_7  and  O2_8 
REMARK    5  A    between atoms: N3_10  and  O3_11 
REMARK    6  A    between atoms: C4_13  and  O4_14 
REMARK    7  A    between atoms: C5_16  and  C6_17 
REMARK    8  A    between atoms: C6_17  and  N4_18 
REMARK    9  A    between atoms: N4_18  and  N5_20 
REMARK   10  A    between atoms: N5_20  and  C7_22 
REMARK   11  A    between atoms: C8_27  and  N8_28 
ROOT
HETATM    1  C1  UNL     1      28.708  39.798   2.141  1.00  0.00     0.179 C 
HETATM    2  N1  UNL     1      29.371  40.339   3.325  1.00  0.00    -0.147 N 
HETATM    3  C2  UNL     1      29.901  41.568   3.299  1.00  0.00     0.735 A 
HETATM    4  N3  UNL     1      30.515  42.087   4.375  1.00  0.00    -0.026 N 
HETATM    5  C4  UNL     1      30.607  41.372   5.508  1.00  0.00     0.203 A 
HETATM    6  C5  UNL     1      30.079  40.107   5.585  1.00  0.00     0.103 A 
HETATM    7  C9  UNL     1      29.460  39.618   4.458  1.00  0.00     0.277 A 
HETATM    8  O5  UNL     1      28.959  38.461   4.479  1.00  0.00    -0.266 OA
ENDROOT
BRANCH   6   9
HETATM    9  C6  UNL     1      30.193  39.357   6.819  1.00  0.00     0.129 C 
BRANCH   9  10
HETATM   10  N4  UNL     1      31.327  38.986   7.311  1.00  0.00    -0.296 N 
ATOM     11  H4  UNL     1      31.908  38.317   6.804  1.00  0.00     0.186 HD
BRANCH  10  12
HETATM   12  N5  UNL     1      31.758  39.497   8.534  1.00  0.00    -0.131 N 
ATOM     13  H5  UNL     1      31.727  40.496   8.736  1.00  0.00     0.205 HD
BRANCH  12  14
HETATM   14  C7  UNL     1      32.205  38.632   9.412  1.00  0.00     0.726 A 
HETATM   15  N6  UNL     1      31.871  38.609  10.711  1.00  0.00    -0.116 N 
HETATM   16  N7  UNL     1      32.518  37.592  11.296  1.00  0.00    -0.117 N 
ATOM     17  H6  UNL     1      31.234  39.256  11.174  1.00  0.00     0.206 HD
HETATM   18  C8  UNL     1      33.268  36.957  10.378  1.00  0.00     0.705 A 
ATOM     19  H7  UNL     1      32.451  37.339  12.282  1.00  0.00     0.206 HD
HETATM   20  N9  UNL     1      33.058  37.617   9.225  1.00  0.00    -0.019 N 
ATOM     21  H9  UNL     1      33.488  37.377   8.332  1.00  0.00     0.203 HD
BRANCH  18  22
HETATM   22  N8  UNL     1      34.043  35.933  10.503  1.00  0.00    -0.233 N 
ATOM     23  H82 UNL     1      35.062  35.971  10.459  1.00  0.00     0.174 HD
ATOM     24  H81 UNL     1      33.815  34.951  10.658  1.00  0.00     0.174 HD
ENDBRANCH  18  22
ENDBRANCH  12  14
ENDBRANCH  10  12
ENDBRANCH   9  10
ENDBRANCH   6   9
BRANCH   5  25
HETATM   25  O4  UNL     1      31.247  41.931   6.605  1.00  0.00    -0.343 OA
ATOM     26  H4  UNL     1      30.801  41.940   7.444  1.00  0.00     0.219 HD
ENDBRANCH   5  25
BRANCH   4  27
HETATM   27  O3  UNL     1      31.041  43.348   4.298  1.00  0.00    -0.267 OA
ATOM     28  H3  UNL     1      30.558  44.074   4.675  1.00  0.00     0.246 HD
ENDBRANCH   4  27
BRANCH   3  29
HETATM   29  N2  UNL     1      29.795  42.321   2.083  1.00  0.00    -0.092 N 
ATOM     30  H2  UNL     1      30.422  42.121   1.303  1.00  0.00     0.213 HD
BRANCH  29  31
HETATM   31  O1  UNL     1      28.878  43.284   1.968  1.00  0.00    -0.240 OA
BRANCH  31  32
HETATM   32  C3  UNL     1      28.701  43.708   0.660  1.00  0.00     0.367 C 
BRANCH  32  33
HETATM   33  O2  UNL     1      28.791  42.691  -0.269  1.00  0.00    -0.375 OA
ATOM     34  H2  UNL     1      28.610  42.970  -1.159  1.00  0.00     0.212 HD
ENDBRANCH  32  33
ENDBRANCH  31  32
ENDBRANCH  29  31
ENDBRANCH   3  29
TORSDOF 11
ENDMDL
