MODEL 1
REMARK VINA RESULT: -10.292620201      0.000      0.000
REMARK  12 active torsions:
REMARK  status: ('A' for Active; 'I' for Inactive)
REMARK    1  A    between atoms: C6_8  and  C7_9 
REMARK    2  A    between atoms: C7_9  and  O2_10 
REMARK    3  A    between atoms: O2_10  and  C8_11 
REMARK    4  A    between atoms: C9_12  and  N2_13 
REMARK    5  A    between atoms: N4_23  and  C17_25 
REMARK    6  A    between atoms: C17_25  and  C18_26 
REMARK    7  A    between atoms: C17_25  and  C25_33 
REMARK    8  A    between atoms: C18_26  and  C19_27 
REMARK       I    between atoms: C25_33  and  N5_35 
REMARK    9  A    between atoms: N5_35  and  C26_37 
REMARK   10  A    between atoms: C26_37  and  C27_38 
REMARK   11  A    between atoms: C27_38  and  C28_39 
REMARK   12  A    between atoms: C28_39  and  N6_40 
ROOT
HETATM    1  N1  UNL     1      23.850  26.523  15.663  1.00  0.00    -0.197 NA
HETATM    2  C1  UNL     1      22.735  26.790  15.620  1.00  0.00     0.066 C 
HETATM    3  C2  UNL     1      21.310  27.151  15.556  1.00  0.00     0.122 C 
HETATM    4  C3  UNL     1      20.904  27.477  14.133  1.00  0.00     0.187 C 
HETATM    5  O1  UNL     1      19.571  27.874  14.147  1.00  0.00    -0.390 OA
HETATM    6  C4  UNL     1      18.749  26.806  14.508  1.00  0.00     0.168 C 
HETATM    7  C5  UNL     1      19.029  26.364  15.932  1.00  0.00     0.034 C 
HETATM    8  C6  UNL     1      20.472  25.987  16.036  1.00  0.00     0.032 C 
ENDROOT
BRANCH   8   9
HETATM    9  C7  UNL     1      20.854  25.586  17.442  1.00  0.00     0.182 C 
BRANCH   9  10
HETATM   10  O2  UNL     1      19.640  25.461  18.175  1.00  0.00    -0.345 OA
BRANCH  10  11
HETATM   11  C8  UNL     1      19.445  24.426  19.085  1.00  0.00     0.139 A 
HETATM   12  C9  UNL     1      20.165  24.423  20.246  1.00  0.00     0.069 A 
HETATM   13  C14 UNL     1      19.918  23.358  21.122  1.00  0.00     0.049 A 
HETATM   14  C15 UNL     1      19.016  22.394  20.826  1.00  0.00     0.092 A 
HETATM   15  N3  UNL     1      18.331  22.433  19.676  1.00  0.00    -0.350 N 
HETATM   16  C16 UNL     1      18.518  23.413  18.803  1.00  0.00     0.138 A 
ATOM     17  H3  UNL     1      17.656  21.697  19.468  1.00  0.00     0.166 HD
HETATM   18  N4  UNL     1      17.914  23.506  17.711  1.00  0.00    -0.361 N 
ATOM     19  H4  UNL     1      18.199  24.329  17.182  1.00  0.00     0.162 HD
BRANCH  12  20
HETATM   20  N2  UNL     1      21.162  25.347  20.616  1.00  0.00    -0.379 N 
HETATM   21  C10 UNL     1      22.602  25.027  20.678  1.00  0.00     0.123 C 
HETATM   22  C11 UNL     1      23.000  25.721  21.968  1.00  0.00     0.021 C 
HETATM   23  C12 UNL     1      21.905  26.738  22.268  1.00  0.00     0.021 C 
HETATM   24  C13 UNL     1      21.124  26.746  20.965  1.00  0.00     0.123 C 
ENDBRANCH  12  20
BRANCH  18  25
HETATM   25  C17 UNL     1      16.944  22.758  17.039  1.00  0.00     0.175 C 
BRANCH  25  26
HETATM   26  C18 UNL     1      17.206  22.584  15.541  1.00  0.00     0.039 C 
BRANCH  26  27
HETATM   27  C19 UNL     1      15.994  23.101  14.798  1.00  0.00    -0.012 C 
HETATM   28  C20 UNL     1      14.998  23.593  15.801  1.00  0.00     0.005 C 
HETATM   29  C21 UNL     1      13.574  23.506  15.295  1.00  0.00     0.000 C 
HETATM   30  C22 UNL     1      13.172  22.129  14.869  1.00  0.00     0.000 C 
HETATM   31  C23 UNL     1      14.406  21.253  14.783  1.00  0.00     0.000 C 
HETATM   32  C24 UNL     1      15.417  22.002  13.923  1.00  0.00     0.005 C 
ENDBRANCH  26  27
ENDBRANCH  25  26
BRANCH  25  33
HETATM   33  C25 UNL     1      16.509  21.490  17.669  1.00  0.00     0.240 C 
HETATM   34  O3  UNL     1      17.287  20.473  17.615  1.00  0.00    -0.271 OA
HETATM   35  N5  UNL     1      15.285  21.292  18.341  1.00  0.00    -0.359 N 
ATOM     36  H5  UNL     1      14.629  22.070  18.410  1.00  0.00     0.162 HD
BRANCH  35  37
HETATM   37  C26 UNL     1      14.929  20.028  18.935  1.00  0.00     0.124 C 
BRANCH  37  38
HETATM   38  C27 UNL     1      14.203  19.129  17.950  1.00  0.00     0.050 C 
BRANCH  38  39
HETATM   39  C28 UNL     1      14.278  17.682  18.378  1.00  0.00     0.274 C 
BRANCH  39  40
HETATM   40  N6  UNL     1      12.944  17.151  18.631  1.00  0.00     0.092 N 
HETATM   41  C29 UNL     1      12.643  17.141  20.034  1.00  0.00     0.298 C 
HETATM   42  C30 UNL     1      12.065  18.453  20.527  1.00  0.00     0.198 C 
HETATM   43  O4  UNL     1      10.812  18.678  19.946  1.00  0.00    -0.388 OA
HETATM   44  C31 UNL     1      10.686  17.954  18.750  1.00  0.00     0.198 C 
HETATM   45  C32 UNL     1      11.975  18.007  17.964  1.00  0.00     0.298 C 
ENDBRANCH  39  40
ENDBRANCH  38  39
ENDBRANCH  37  38
ENDBRANCH  35  37
ENDBRANCH  25  33
ENDBRANCH  18  25
ENDBRANCH  10  11
ENDBRANCH   9  10
ENDBRANCH   8   9
TORSDOF 12
ENDMDL
MODEL 2
REMARK VINA RESULT: -10.289932644      1.060      1.675
REMARK  12 active torsions:
REMARK  status: ('A' for Active; 'I' for Inactive)
REMARK    1  A    between atoms: C6_8  and  C7_9 
REMARK    2  A    between atoms: C7_9  and  O2_10 
REMARK    3  A    between atoms: O2_10  and  C8_11 
REMARK    4  A    between atoms: C9_12  and  N2_13 
REMARK    5  A    between atoms: N4_23  and  C17_25 
REMARK    6  A    between atoms: C17_25  and  C18_26 
REMARK    7  A    between atoms: C17_25  and  C25_33 
REMARK    8  A    between atoms: C18_26  and  C19_27 
REMARK       I    between atoms: C25_33  and  N5_35 
REMARK    9  A    between atoms: N5_35  and  C26_37 
REMARK   10  A    between atoms: C26_37  and  C27_38 
REMARK   11  A    between atoms: C27_38  and  C28_39 
REMARK   12  A    between atoms: C28_39  and  N6_40 
ROOT
HETATM    1  N1  UNL     1      17.457  26.014  15.223  1.00  0.00    -0.197 NA
HETATM    2  C1  UNL     1      18.543  26.375  15.147  1.00  0.00     0.066 C 
HETATM    3  C2  UNL     1      19.934  26.842  15.028  1.00  0.00     0.122 C 
HETATM    4  C3  UNL     1      19.978  28.259  14.492  1.00  0.00     0.187 C 
HETATM    5  O1  UNL     1      21.313  28.618  14.339  1.00  0.00    -0.390 OA
HETATM    6  C4  UNL     1      21.942  28.696  15.582  1.00  0.00     0.168 C 
HETATM    7  C5  UNL     1      21.988  27.336  16.251  1.00  0.00     0.034 C 
HETATM    8  C6  UNL     1      20.589  26.827  16.391  1.00  0.00     0.032 C 
ENDROOT
BRANCH   8   9
HETATM    9  C7  UNL     1      20.546  25.445  17.000  1.00  0.00     0.182 C 
BRANCH   9  10
HETATM   10  O2  UNL     1      19.617  25.502  18.077  1.00  0.00    -0.345 OA
BRANCH  10  11
HETATM   11  C8  UNL     1      19.475  24.443  18.969  1.00  0.00     0.139 A 
HETATM   12  C9  UNL     1      20.237  24.428  20.103  1.00  0.00     0.069 A 
HETATM   13  C14 UNL     1      20.041  23.339  20.962  1.00  0.00     0.049 A 
HETATM   14  C15 UNL     1      19.148  22.364  20.677  1.00  0.00     0.092 A 
HETATM   15  N3  UNL     1      18.421  22.416  19.553  1.00  0.00    -0.350 N 
HETATM   16  C16 UNL     1      18.557  23.419  18.697  1.00  0.00     0.138 A 
ATOM     17  H3  UNL     1      17.752  21.672  19.352  1.00  0.00     0.166 HD
HETATM   18  N4  UNL     1      17.912  23.525  17.630  1.00  0.00    -0.361 N 
ATOM     19  H4  UNL     1      18.162  24.366  17.111  1.00  0.00     0.162 HD
BRANCH  12  20
HETATM   20  N2  UNL     1      21.229  25.362  20.459  1.00  0.00    -0.379 N 
HETATM   21  C10 UNL     1      20.966  26.592  21.229  1.00  0.00     0.123 C 
HETATM   22  C11 UNL     1      21.820  27.597  20.475  1.00  0.00     0.021 C 
HETATM   23  C12 UNL     1      22.828  26.789  19.668  1.00  0.00     0.021 C 
HETATM   24  C13 UNL     1      22.658  25.400  20.261  1.00  0.00     0.123 C 
ENDBRANCH  12  20
BRANCH  18  25
HETATM   25  C17 UNL     1      16.932  22.774  16.976  1.00  0.00     0.175 C 
BRANCH  25  26
HETATM   26  C18 UNL     1      17.178  22.584  15.477  1.00  0.00     0.039 C 
BRANCH  26  27
HETATM   27  C19 UNL     1      15.943  23.058  14.743  1.00  0.00    -0.012 C 
HETATM   28  C20 UNL     1      14.935  23.507  15.755  1.00  0.00     0.005 C 
HETATM   29  C21 UNL     1      13.512  23.369  15.256  1.00  0.00     0.000 C 
HETATM   30  C22 UNL     1      13.160  21.980  14.825  1.00  0.00     0.000 C 
HETATM   31  C23 UNL     1      14.426  21.152  14.727  1.00  0.00     0.000 C 
HETATM   32  C24 UNL     1      15.404  21.943  13.865  1.00  0.00     0.005 C 
ENDBRANCH  26  27
ENDBRANCH  25  26
BRANCH  25  33
HETATM   33  C25 UNL     1      16.499  21.514  17.623  1.00  0.00     0.240 C 
HETATM   34  O3  UNL     1      17.265  20.489  17.558  1.00  0.00    -0.271 OA
HETATM   35  N5  UNL     1      15.289  21.333  18.325  1.00  0.00    -0.359 N 
ATOM     36  H5  UNL     1      14.643  22.118  18.404  1.00  0.00     0.162 HD
BRANCH  35  37
HETATM   37  C26 UNL     1      14.934  20.076  18.935  1.00  0.00     0.124 C 
BRANCH  37  38
HETATM   38  C27 UNL     1      14.171  19.182  17.974  1.00  0.00     0.050 C 
BRANCH  38  39
HETATM   39  C28 UNL     1      14.269  17.732  18.388  1.00  0.00     0.274 C 
BRANCH  39  40
HETATM   40  N6  UNL     1      12.946  17.185  18.665  1.00  0.00     0.092 N 
HETATM   41  C29 UNL     1      12.670  17.174  20.073  1.00  0.00     0.298 C 
HETATM   42  C30 UNL     1      12.084  18.480  20.574  1.00  0.00     0.198 C 
HETATM   43  O4  UNL     1      10.818  18.688  20.014  1.00  0.00    -0.388 OA
HETATM   44  C31 UNL     1      10.681  17.962  18.822  1.00  0.00     0.198 C 
HETATM   45  C32 UNL     1      11.955  18.028  18.014  1.00  0.00     0.298 C 
ENDBRANCH  39  40
ENDBRANCH  38  39
ENDBRANCH  37  38
ENDBRANCH  35  37
ENDBRANCH  25  33
ENDBRANCH  18  25
ENDBRANCH  10  11
ENDBRANCH   9  10
ENDBRANCH   8   9
TORSDOF 12
ENDMDL
MODEL 3
REMARK VINA RESULT: -10.155463852      2.114      9.556
REMARK  12 active torsions:
REMARK  status: ('A' for Active; 'I' for Inactive)
REMARK    1  A    between atoms: C6_8  and  C7_9 
REMARK    2  A    between atoms: C7_9  and  O2_10 
REMARK    3  A    between atoms: O2_10  and  C8_11 
REMARK    4  A    between atoms: C9_12  and  N2_13 
REMARK    5  A    between atoms: N4_23  and  C17_25 
REMARK    6  A    between atoms: C17_25  and  C18_26 
REMARK    7  A    between atoms: C17_25  and  C25_33 
REMARK    8  A    between atoms: C18_26  and  C19_27 
REMARK       I    between atoms: C25_33  and  N5_35 
REMARK    9  A    between atoms: N5_35  and  C26_37 
REMARK   10  A    between atoms: C26_37  and  C27_38 
REMARK   11  A    between atoms: C27_38  and  C28_39 
REMARK   12  A    between atoms: C28_39  and  N6_40 
ROOT
HETATM    1  N1  UNL     1      14.111  22.903  18.853  1.00  0.00    -0.197 NA
HETATM    2  C1  UNL     1      14.294  21.775  18.959  1.00  0.00     0.066 C 
HETATM    3  C2  UNL     1      14.524  20.330  19.117  1.00  0.00     0.122 C 
HETATM    4  C3  UNL     1      13.302  19.655  19.708  1.00  0.00     0.187 C 
HETATM    5  O1  UNL     1      13.603  18.311  19.896  1.00  0.00    -0.390 OA
HETATM    6  C4  UNL     1      13.790  17.678  18.666  1.00  0.00     0.168 C 
HETATM    7  C5  UNL     1      15.000  18.242  17.946  1.00  0.00     0.034 C 
HETATM    8  C6  UNL     1      14.802  19.713  17.765  1.00  0.00     0.032 C 
ENDROOT
BRANCH   8   9
HETATM    9  C7  UNL     1      15.992  20.369  17.102  1.00  0.00     0.182 C 
BRANCH   9  10
HETATM   10  O2  UNL     1      15.581  20.727  15.788  1.00  0.00    -0.345 OA
BRANCH  10  11
HETATM   11  C8  UNL     1      14.777  21.839  15.557  1.00  0.00     0.139 A 
HETATM   12  C9  UNL     1      13.525  21.654  15.043  1.00  0.00     0.069 A 
HETATM   13  C14 UNL     1      12.764  22.813  14.841  1.00  0.00     0.049 A 
HETATM   14  C15 UNL     1      13.249  24.039  15.141  1.00  0.00     0.092 A 
HETATM   15  N3  UNL     1      14.484  24.178  15.643  1.00  0.00    -0.350 N 
HETATM   16  C16 UNL     1      15.256  23.122  15.858  1.00  0.00     0.138 A 
ATOM     17  H3  UNL     1      14.835  25.110  15.862  1.00  0.00     0.166 HD
HETATM   18  N4  UNL     1      16.417  23.184  16.321  1.00  0.00    -0.361 N 
ATOM     19  H4  UNL     1      16.845  22.263  16.409  1.00  0.00     0.162 HD
BRANCH  12  20
HETATM   20  N2  UNL     1      12.954  20.429  14.648  1.00  0.00    -0.379 N 
HETATM   21  C10 UNL     1      13.295  19.725  13.396  1.00  0.00     0.123 C 
HETATM   22  C11 UNL     1      11.921  19.278  12.929  1.00  0.00     0.021 C 
HETATM   23  C12 UNL     1      11.007  19.345  14.146  1.00  0.00     0.021 C 
HETATM   24  C13 UNL     1      12.006  19.539  15.274  1.00  0.00     0.123 C 
ENDBRANCH  12  20
BRANCH  18  25
HETATM   25  C17 UNL     1      17.270  24.204  16.745  1.00  0.00     0.175 C 
BRANCH  25  26
HETATM   26  C18 UNL     1      17.226  25.467  15.881  1.00  0.00     0.039 C 
BRANCH  26  27
HETATM   27  C19 UNL     1      18.268  25.319  14.795  1.00  0.00    -0.012 C 
HETATM   28  C20 UNL     1      19.540  24.842  15.422  1.00  0.00     0.005 C 
HETATM   29  C21 UNL     1      20.767  25.273  14.646  1.00  0.00     0.000 C 
HETATM   30  C22 UNL     1      20.864  26.755  14.453  1.00  0.00     0.000 C 
HETATM   31  C23 UNL     1      19.544  27.395  14.834  1.00  0.00     0.000 C 
HETATM   32  C24 UNL     1      18.456  26.644  14.076  1.00  0.00     0.005 C 
ENDBRANCH  26  27
ENDBRANCH  25  26
BRANCH  25  33
HETATM   33  C25 UNL     1      17.269  24.532  18.190  1.00  0.00     0.240 C 
HETATM   34  O3  UNL     1      16.331  25.267  18.658  1.00  0.00    -0.271 OA
HETATM   35  N5  UNL     1      18.232  24.095  19.125  1.00  0.00    -0.359 N 
ATOM     36  H5  UNL     1      19.001  23.508  18.802  1.00  0.00     0.162 HD
BRANCH  35  37
HETATM   37  C26 UNL     1      18.165  24.449  20.520  1.00  0.00     0.124 C 
BRANCH  37  38
HETATM   38  C27 UNL     1      19.548  24.558  21.138  1.00  0.00     0.050 C 
BRANCH  38  39
HETATM   39  C28 UNL     1      20.621  24.206  20.134  1.00  0.00     0.274 C 
BRANCH  39  40
HETATM   40  N6  UNL     1      21.577  25.299  20.000  1.00  0.00     0.092 N 
HETATM   41  C29 UNL     1      21.638  25.775  18.647  1.00  0.00     0.298 C 
HETATM   42  C30 UNL     1      20.595  26.834  18.344  1.00  0.00     0.198 C 
HETATM   43  O4  UNL     1      20.849  27.990  19.089  1.00  0.00    -0.388 OA
HETATM   44  C31 UNL     1      21.616  27.687  20.224  1.00  0.00     0.198 C 
HETATM   45  C32 UNL     1      21.144  26.396  20.850  1.00  0.00     0.298 C 
ENDBRANCH  39  40
ENDBRANCH  38  39
ENDBRANCH  37  38
ENDBRANCH  35  37
ENDBRANCH  25  33
ENDBRANCH  18  25
ENDBRANCH  10  11
ENDBRANCH   9  10
ENDBRANCH   8   9
TORSDOF 12
ENDMDL
MODEL 4
REMARK VINA RESULT: -9.764496158      2.332     10.347
REMARK  12 active torsions:
REMARK  status: ('A' for Active; 'I' for Inactive)
REMARK    1  A    between atoms: C6_8  and  C7_9 
REMARK    2  A    between atoms: C7_9  and  O2_10 
REMARK    3  A    between atoms: O2_10  and  C8_11 
REMARK    4  A    between atoms: C9_12  and  N2_13 
REMARK    5  A    between atoms: N4_23  and  C17_25 
REMARK    6  A    between atoms: C17_25  and  C18_26 
REMARK    7  A    between atoms: C17_25  and  C25_33 
REMARK    8  A    between atoms: C18_26  and  C19_27 
REMARK       I    between atoms: C25_33  and  N5_35 
REMARK    9  A    between atoms: N5_35  and  C26_37 
REMARK   10  A    between atoms: C26_37  and  C27_38 
REMARK   11  A    between atoms: C27_38  and  C28_39 
REMARK   12  A    between atoms: C28_39  and  N6_40 
ROOT
HETATM    1  N1  UNL     1      14.078  22.878  18.799  1.00  0.00    -0.197 NA
HETATM    2  C1  UNL     1      14.258  21.754  18.945  1.00  0.00     0.066 C 
HETATM    3  C2  UNL     1      14.485  20.315  19.154  1.00  0.00     0.122 C 
HETATM    4  C3  UNL     1      13.257  19.661  19.755  1.00  0.00     0.187 C 
HETATM    5  O1  UNL     1      13.555  18.323  19.990  1.00  0.00    -0.390 OA
HETATM    6  C4  UNL     1      13.754  17.649  18.785  1.00  0.00     0.168 C 
HETATM    7  C5  UNL     1      14.972  18.188  18.058  1.00  0.00     0.034 C 
HETATM    8  C6  UNL     1      14.777  19.652  17.826  1.00  0.00     0.032 C 
ENDROOT
BRANCH   8   9
HETATM    9  C7  UNL     1      15.974  20.285  17.155  1.00  0.00     0.182 C 
BRANCH   9  10
HETATM   10  O2  UNL     1      15.568  20.629  15.835  1.00  0.00    -0.345 OA
BRANCH  10  11
HETATM   11  C8  UNL     1      14.809  21.769  15.584  1.00  0.00     0.139 A 
HETATM   12  C9  UNL     1      13.558  21.626  15.057  1.00  0.00     0.069 A 
HETATM   13  C14 UNL     1      12.843  22.811  14.835  1.00  0.00     0.049 A 
HETATM   14  C15 UNL     1      13.372  24.021  15.129  1.00  0.00     0.092 A 
HETATM   15  N3  UNL     1      14.605  24.118  15.643  1.00  0.00    -0.350 N 
HETATM   16  C16 UNL     1      15.334  23.035  15.878  1.00  0.00     0.138 A 
ATOM     17  H3  UNL     1      14.989  25.038  15.858  1.00  0.00     0.166 HD
HETATM   18  N4  UNL     1      16.491  23.058  16.353  1.00  0.00    -0.361 N 
ATOM     19  H4  UNL     1      16.883  22.122  16.456  1.00  0.00     0.162 HD
BRANCH  12  20
HETATM   20  N2  UNL     1      12.944  20.419  14.668  1.00  0.00    -0.379 N 
HETATM   21  C10 UNL     1      13.168  19.763  13.365  1.00  0.00     0.123 C 
HETATM   22  C11 UNL     1      11.755  19.340  13.005  1.00  0.00     0.021 C 
HETATM   23  C12 UNL     1      10.952  19.364  14.300  1.00  0.00     0.021 C 
HETATM   24  C13 UNL     1      12.049  19.510  15.342  1.00  0.00     0.123 C 
ENDBRANCH  12  20
BRANCH  18  25
HETATM   25  C17 UNL     1      17.378  24.049  16.778  1.00  0.00     0.175 C 
BRANCH  25  26
HETATM   26  C18 UNL     1      18.676  23.517  17.391  1.00  0.00     0.039 C 
BRANCH  26  27
HETATM   27  C19 UNL     1      18.678  23.885  18.858  1.00  0.00    -0.012 C 
HETATM   28  C20 UNL     1      20.067  23.707  19.388  1.00  0.00     0.005 C 
HETATM   29  C21 UNL     1      20.086  23.393  20.869  1.00  0.00     0.000 C 
HETATM   30  C22 UNL     1      19.283  22.184  21.236  1.00  0.00     0.000 C 
HETATM   31  C23 UNL     1      18.424  21.778  20.055  1.00  0.00     0.000 C 
HETATM   32  C24 UNL     1      17.674  23.027  19.607  1.00  0.00     0.005 C 
ENDBRANCH  26  27
ENDBRANCH  25  26
BRANCH  25  33
HETATM   33  C25 UNL     1      17.635  25.173  15.847  1.00  0.00     0.240 C 
HETATM   34  O3  UNL     1      16.715  26.044  15.658  1.00  0.00    -0.271 OA
HETATM   35  N5  UNL     1      18.833  25.380  15.131  1.00  0.00    -0.359 N 
ATOM     36  H5  UNL     1      19.596  24.713  15.246  1.00  0.00     0.162 HD
BRANCH  35  37
HETATM   37  C26 UNL     1      19.016  26.500  14.244  1.00  0.00     0.124 C 
BRANCH  37  38
HETATM   38  C27 UNL     1      20.209  27.347  14.648  1.00  0.00     0.050 C 
BRANCH  38  39
HETATM   39  C28 UNL     1      20.534  27.165  16.112  1.00  0.00     0.274 C 
BRANCH  39  40
HETATM   40  N6  UNL     1      21.589  28.084  16.523  1.00  0.00     0.092 N 
HETATM   41  C29 UNL     1      22.693  27.381  17.112  1.00  0.00     0.298 C 
HETATM   42  C30 UNL     1      23.702  26.896  16.089  1.00  0.00     0.198 C 
HETATM   43  O4  UNL     1      24.326  27.986  15.472  1.00  0.00    -0.388 OA
HETATM   44  C31 UNL     1      23.525  29.133  15.571  1.00  0.00     0.198 C 
HETATM   45  C32 UNL     1      22.073  28.784  15.344  1.00  0.00     0.298 C 
ENDBRANCH  39  40
ENDBRANCH  38  39
ENDBRANCH  37  38
ENDBRANCH  35  37
ENDBRANCH  25  33
ENDBRANCH  18  25
ENDBRANCH  10  11
ENDBRANCH   9  10
ENDBRANCH   8   9
TORSDOF 12
ENDMDL
MODEL 5
REMARK VINA RESULT: -9.747654444      2.185      9.591
REMARK  12 active torsions:
REMARK  status: ('A' for Active; 'I' for Inactive)
REMARK    1  A    between atoms: C6_8  and  C7_9 
REMARK    2  A    between atoms: C7_9  and  O2_10 
REMARK    3  A    between atoms: O2_10  and  C8_11 
REMARK    4  A    between atoms: C9_12  and  N2_13 
REMARK    5  A    between atoms: N4_23  and  C17_25 
REMARK    6  A    between atoms: C17_25  and  C18_26 
REMARK    7  A    between atoms: C17_25  and  C25_33 
REMARK    8  A    between atoms: C18_26  and  C19_27 
REMARK       I    between atoms: C25_33  and  N5_35 
REMARK    9  A    between atoms: N5_35  and  C26_37 
REMARK   10  A    between atoms: C26_37  and  C27_38 
REMARK   11  A    between atoms: C27_38  and  C28_39 
REMARK   12  A    between atoms: C28_39  and  N6_40 
ROOT
HETATM    1  N1  UNL     1      17.559  20.864  18.220  1.00  0.00    -0.197 NA
HETATM    2  C1  UNL     1      16.478  20.525  18.041  1.00  0.00     0.066 C 
HETATM    3  C2  UNL     1      15.099  20.072  17.800  1.00  0.00     0.122 C 
HETATM    4  C3  UNL     1      14.915  18.642  18.269  1.00  0.00     0.187 C 
HETATM    5  O1  UNL     1      13.618  18.251  17.954  1.00  0.00    -0.390 OA
HETATM    6  C4  UNL     1      12.694  18.983  18.700  1.00  0.00     0.168 C 
HETATM    7  C5  UNL     1      12.747  20.454  18.333  1.00  0.00     0.034 C 
HETATM    8  C6  UNL     1      14.137  20.952  18.567  1.00  0.00     0.032 C 
ENDROOT
BRANCH   8   9
HETATM    9  C7  UNL     1      14.295  22.402  18.171  1.00  0.00     0.182 C 
BRANCH   9  10
HETATM   10  O2  UNL     1      13.618  22.563  16.930  1.00  0.00    -0.345 OA
BRANCH  10  11
HETATM   11  C8  UNL     1      14.280  22.403  15.716  1.00  0.00     0.139 A 
HETATM   12  C9  UNL     1      13.657  21.723  14.709  1.00  0.00     0.069 A 
HETATM   13  C14 UNL     1      14.374  21.604  13.511  1.00  0.00     0.049 A 
HETATM   14  C15 UNL     1      15.611  22.134  13.371  1.00  0.00     0.092 A 
HETATM   15  N3  UNL     1      16.187  22.793  14.385  1.00  0.00    -0.350 N 
HETATM   16  C16 UNL     1      15.563  22.942  15.545  1.00  0.00     0.138 A 
ATOM     17  H3  UNL     1      17.120  23.186  14.262  1.00  0.00     0.166 HD
HETATM   18  N4  UNL     1      16.046  23.543  16.530  1.00  0.00    -0.361 N 
ATOM     19  H4  UNL     1      15.411  23.547  17.328  1.00  0.00     0.162 HD
BRANCH  12  20
HETATM   20  N2  UNL     1      12.401  21.089  14.776  1.00  0.00    -0.379 N 
HETATM   21  C10 UNL     1      12.219  19.633  14.927  1.00  0.00     0.123 C 
HETATM   22  C11 UNL     1      11.088  19.377  13.947  1.00  0.00     0.021 C 
HETATM   23  C12 UNL     1      10.426  20.726  13.688  1.00  0.00     0.021 C 
HETATM   24  C13 UNL     1      11.047  21.589  14.773  1.00  0.00     0.123 C 
ENDBRANCH  12  20
BRANCH  18  25
HETATM   25  C17 UNL     1      17.242  24.209  16.806  1.00  0.00     0.175 C 
BRANCH  25  26
HETATM   26  C18 UNL     1      17.388  25.563  16.106  1.00  0.00     0.039 C 
BRANCH  26  27
HETATM   27  C19 UNL     1      18.355  25.386  14.956  1.00  0.00    -0.012 C 
HETATM   28  C20 UNL     1      19.694  25.020  15.517  1.00  0.00     0.005 C 
HETATM   29  C21 UNL     1      20.835  25.452  14.620  1.00  0.00     0.000 C 
HETATM   30  C22 UNL     1      20.837  26.918  14.315  1.00  0.00     0.000 C 
HETATM   31  C23 UNL     1      19.515  27.519  14.750  1.00  0.00     0.000 C 
HETATM   32  C24 UNL     1      18.417  26.660  14.132  1.00  0.00     0.005 C 
ENDBRANCH  26  27
ENDBRANCH  25  26
BRANCH  25  33
HETATM   33  C25 UNL     1      17.668  24.280  18.223  1.00  0.00     0.240 C 
HETATM   34  O3  UNL     1      16.937  24.919  19.058  1.00  0.00    -0.271 OA
HETATM   35  N5  UNL     1      18.835  23.689  18.753  1.00  0.00    -0.359 N 
ATOM     36  H5  UNL     1      19.451  23.170  18.128  1.00  0.00     0.162 HD
BRANCH  35  37
HETATM   37  C26 UNL     1      19.185  23.795  20.147  1.00  0.00     0.124 C 
BRANCH  37  38
HETATM   38  C27 UNL     1      20.674  24.021  20.336  1.00  0.00     0.050 C 
BRANCH  38  39
HETATM   39  C28 UNL     1      21.202  25.024  19.337  1.00  0.00     0.274 C 
BRANCH  39  40
HETATM   40  N6  UNL     1      22.249  25.844  19.935  1.00  0.00     0.092 N 
HETATM   41  C29 UNL     1      21.910  27.238  19.889  1.00  0.00     0.298 C 
HETATM   42  C30 UNL     1      21.074  27.685  21.072  1.00  0.00     0.198 C 
HETATM   43  O4  UNL     1      21.818  27.588  22.254  1.00  0.00    -0.388 OA
HETATM   44  C31 UNL     1      22.864  26.666  22.103  1.00  0.00     0.198 C 
HETATM   45  C32 UNL     1      22.395  25.457  21.329  1.00  0.00     0.298 C 
ENDBRANCH  39  40
ENDBRANCH  38  39
ENDBRANCH  37  38
ENDBRANCH  35  37
ENDBRANCH  25  33
ENDBRANCH  18  25
ENDBRANCH  10  11
ENDBRANCH   9  10
ENDBRANCH   8   9
TORSDOF 12
ENDMDL
