MODEL 1
REMARK VINA RESULT: -5.714273967      0.000      0.000
REMARK  2 active torsions:
REMARK  status: ('A' for Active; 'I' for Inactive)
REMARK    1  A    between atoms: O1_2  and  N1_3 
REMARK    2  A    between atoms: N1_3  and  C2_4 
ROOT
HETATM    1  C2  UNL     1       7.588   9.493   3.158  1.00  0.00     0.141 C 
HETATM    2  C3  UNL     1       6.912  10.039   4.387  1.00  0.00     0.027 C 
HETATM    3  C4  UNL     1       7.619  11.351   4.757  1.00  0.00     0.002 C 
HETATM    4  C5  UNL     1       8.980  10.900   5.246  1.00  0.00     0.003 C 
HETATM    5  C6  UNL     1       9.743  10.500   3.992  1.00  0.00     0.040 C 
HETATM    6  C7  UNL     1       9.053   9.442   3.204  1.00  0.00     0.080 C 
HETATM    7  C8  UNL     1       9.547   8.087   3.723  1.00  0.00     0.042 C 
HETATM    8  C9  UNL     1      10.935   8.015   3.135  1.00  0.00     0.029 C 
HETATM    9  C10 UNL     1      10.916   9.112   2.104  1.00  0.00     0.169 C 
HETATM   10  O2  UNL     1       9.573   9.430   1.915  1.00  0.00    -0.378 OA
ENDROOT
BRANCH   1  11
HETATM   11  N1  UNL     1       7.053  10.241   2.038  1.00  0.00    -0.094 NA
BRANCH  11  12
HETATM   12  O1  UNL     1       5.809   9.914   1.696  1.00  0.00    -0.291 OA
HETATM   13  C1  UNL     1       5.162  11.107   1.303  1.00  0.00     0.231 C 
ENDBRANCH  11  12
ENDBRANCH   1  11
TORSDOF 2
ENDMDL
MODEL 2
REMARK VINA RESULT: -5.688802414      1.438      1.705
REMARK  2 active torsions:
REMARK  status: ('A' for Active; 'I' for Inactive)
REMARK    1  A    between atoms: O1_2  and  N1_3 
REMARK    2  A    between atoms: N1_3  and  C2_4 
ROOT
HETATM    1  C2  UNL     1       6.831  10.261   2.619  1.00  0.00     0.141 C 
HETATM    2  C3  UNL     1       5.585  10.405   3.451  1.00  0.00     0.027 C 
HETATM    3  C4  UNL     1       5.826  11.548   4.447  1.00  0.00     0.002 C 
HETATM    4  C5  UNL     1       6.854  10.979   5.404  1.00  0.00     0.003 C 
HETATM    5  C6  UNL     1       8.164  10.981   4.633  1.00  0.00     0.040 C 
HETATM    6  C7  UNL     1       8.094  10.207   3.363  1.00  0.00     0.080 C 
HETATM    7  C8  UNL     1       8.490   8.762   3.685  1.00  0.00     0.042 C 
HETATM    8  C9  UNL     1       9.985   8.879   3.858  1.00  0.00     0.029 C 
HETATM    9  C10 UNL     1      10.280  10.237   3.277  1.00  0.00     0.169 C 
HETATM   10  O2  UNL     1       9.150  10.589   2.544  1.00  0.00    -0.378 OA
ENDROOT
BRANCH   1  11
HETATM   11  N1  UNL     1       6.773  11.309   1.620  1.00  0.00    -0.094 NA
BRANCH  11  12
HETATM   12  O1  UNL     1       6.446  10.893   0.398  1.00  0.00    -0.291 OA
HETATM   13  C1  UNL     1       7.219  11.647  -0.514  1.00  0.00     0.231 C 
ENDBRANCH  11  12
ENDBRANCH   1  11
TORSDOF 2
ENDMDL
MODEL 3
REMARK VINA RESULT: -5.455894369      1.843      2.433
REMARK  2 active torsions:
REMARK  status: ('A' for Active; 'I' for Inactive)
REMARK    1  A    between atoms: O1_2  and  N1_3 
REMARK    2  A    between atoms: N1_3  and  C2_4 
ROOT
HETATM    1  C2  UNL     1       7.251  10.073   2.506  1.00  0.00     0.141 C 
HETATM    2  C3  UNL     1       5.750   9.966   2.558  1.00  0.00     0.027 C 
HETATM    3  C4  UNL     1       5.228  11.174   3.347  1.00  0.00     0.002 C 
HETATM    4  C5  UNL     1       5.674  10.894   4.768  1.00  0.00     0.003 C 
HETATM    5  C6  UNL     1       7.171  11.162   4.778  1.00  0.00     0.040 C 
HETATM    6  C7  UNL     1       7.916  10.339   3.786  1.00  0.00     0.080 C 
HETATM    7  C8  UNL     1       8.323   9.037   4.483  1.00  0.00     0.042 C 
HETATM    8  C9  UNL     1       9.454   9.498   5.370  1.00  0.00     0.029 C 
HETATM    9  C10 UNL     1       9.774  10.861   4.817  1.00  0.00     0.169 C 
HETATM   10  O2  UNL     1       9.162  10.916   3.568  1.00  0.00    -0.378 OA
ENDROOT
BRANCH   1  11
HETATM   11  N1  UNL     1       7.551  11.038   1.467  1.00  0.00    -0.094 NA
BRANCH  11  12
HETATM   12  O1  UNL     1       6.933  10.815   0.309  1.00  0.00    -0.291 OA
HETATM   13  C1  UNL     1       7.154  11.952  -0.501  1.00  0.00     0.231 C 
ENDBRANCH  11  12
ENDBRANCH   1  11
TORSDOF 2
ENDMDL
MODEL 4
REMARK VINA RESULT: -5.420008652      1.499      3.387
REMARK  2 active torsions:
REMARK  status: ('A' for Active; 'I' for Inactive)
REMARK    1  A    between atoms: O1_2  and  N1_3 
REMARK    2  A    between atoms: N1_3  and  C2_4 
ROOT
HETATM    1  C2  UNL     1       9.094  10.431   1.998  1.00  0.00     0.141 C 
HETATM    2  C3  UNL     1      10.478   9.949   1.655  1.00  0.00     0.027 C 
HETATM    3  C4  UNL     1      10.541   8.452   1.993  1.00  0.00     0.002 C 
HETATM    4  C5  UNL     1      10.498   8.425   3.507  1.00  0.00     0.003 C 
HETATM    5  C6  UNL     1       9.058   8.748   3.873  1.00  0.00     0.040 C 
HETATM    6  C7  UNL     1       8.596  10.052   3.324  1.00  0.00     0.080 C 
HETATM    7  C8  UNL     1       8.916  11.128   4.368  1.00  0.00     0.042 C 
HETATM    8  C9  UNL     1       7.857  10.873   5.413  1.00  0.00     0.029 C 
HETATM    9  C10 UNL     1       6.890   9.972   4.692  1.00  0.00     0.169 C 
HETATM   10  O2  UNL     1       7.206  10.081   3.340  1.00  0.00    -0.378 OA
ENDROOT
BRANCH   1  11
HETATM   11  N1  UNL     1       8.240  10.021   0.901  1.00  0.00    -0.094 NA
BRANCH  11  12
HETATM   12  O1  UNL     1       8.305  10.802  -0.175  1.00  0.00    -0.291 OA
HETATM   13  C1  UNL     1       7.158  11.628  -0.155  1.00  0.00     0.231 C 
ENDBRANCH  11  12
ENDBRANCH   1  11
TORSDOF 2
ENDMDL
MODEL 5
REMARK VINA RESULT: -5.404880892      1.704      2.157
REMARK  2 active torsions:
REMARK  status: ('A' for Active; 'I' for Inactive)
REMARK    1  A    between atoms: O1_2  and  N1_3 
REMARK    2  A    between atoms: N1_3  and  C2_4 
ROOT
HETATM    1  C2  UNL     1       8.701   9.819   2.520  1.00  0.00     0.141 C 
HETATM    2  C3  UNL     1       7.354   9.657   3.173  1.00  0.00     0.027 C 
HETATM    3  C4  UNL     1       7.069  10.939   3.968  1.00  0.00     0.002 C 
HETATM    4  C5  UNL     1       8.054  10.874   5.117  1.00  0.00     0.003 C 
HETATM    5  C6  UNL     1       9.406  11.204   4.505  1.00  0.00     0.040 C 
HETATM    6  C7  UNL     1       9.782  10.286   3.395  1.00  0.00     0.080 C 
HETATM    7  C8  UNL     1      10.546   9.109   4.012  1.00  0.00     0.042 C 
HETATM    8  C9  UNL     1      11.884   9.735   4.323  1.00  0.00     0.029 C 
HETATM    9  C10 UNL     1      11.837  11.022   3.543  1.00  0.00     0.169 C 
HETATM   10  O2  UNL     1      10.787  10.880   2.640  1.00  0.00    -0.378 OA
ENDROOT
BRANCH   1  11
HETATM   11  N1  UNL     1       8.484  10.644   1.349  1.00  0.00    -0.094 NA
BRANCH  11  12
HETATM   12  O1  UNL     1       8.387   9.970   0.206  1.00  0.00    -0.291 OA
HETATM   13  C1  UNL     1       9.524  10.301  -0.567  1.00  0.00     0.231 C 
ENDBRANCH  11  12
ENDBRANCH   1  11
TORSDOF 2
ENDMDL
