MODEL 1
REMARK VINA RESULT: -8.637482155      0.000      0.000
REMARK  15 active torsions:
REMARK  status: ('A' for Active; 'I' for Inactive)
REMARK    1  A    between atoms: N1_1  and  C1_5 
REMARK    2  A    between atoms: C1_5  and  C2_6 
REMARK    3  A    between atoms: C2_6  and  C3_7 
REMARK    4  A    between atoms: C3_7  and  C4_8 
REMARK    5  A    between atoms: C4_8  and  C5_9 
REMARK    6  A    between atoms: C5_9  and  C6_10 
REMARK    7  A    between atoms: C6_10  and  C7_11 
REMARK    8  A    between atoms: C7_11  and  C8_12 
REMARK    9  A    between atoms: C8_12  and  C9_13 
REMARK   10  A    between atoms: C9_13  and  N2_14 
REMARK   11  A    between atoms: N2_14  and  C10_16 
REMARK   12  A    between atoms: C18_26  and  O1_27 
REMARK   13  A    between atoms: O1_27  and  C19_28 
REMARK   14  A    between atoms: C19_28  and  C20_29 
REMARK   15  A    between atoms: C20_29  and  N4_30 
ROOT
HETATM    1  C10 UNL     1       5.116  26.720  21.228  1.00  0.00     0.030 A 
HETATM    2  C11 UNL     1       4.741  25.408  21.485  1.00  0.00     0.030 A 
HETATM    3  C12 UNL     1       5.318  24.689  22.512  1.00  0.00     0.017 A 
HETATM    4  C13 UNL     1       6.289  25.283  23.302  1.00  0.00     0.003 A 
HETATM    5  C14 UNL     1       6.688  26.585  23.075  1.00  0.00     0.046 A 
HETATM    6  C15 UNL     1       6.086  27.272  22.038  1.00  0.00     0.059 A 
HETATM    7  N3  UNL     1       7.631  26.914  23.970  1.00  0.00    -0.355 N 
ATOM      8  H3  UNL     1       8.096  27.820  24.025  1.00  0.00     0.166 HD
HETATM    9  C16 UNL     1       7.873  25.872  24.783  1.00  0.00     0.046 A 
HETATM   10  C17 UNL     1       8.732  25.688  25.848  1.00  0.00     0.067 A 
HETATM   11  C18 UNL     1       8.760  24.483  26.506  1.00  0.00     0.071 A 
HETATM   12  C26 UNL     1       7.912  23.456  26.081  1.00  0.00     0.038 A 
HETATM   13  C27 UNL     1       7.047  23.618  25.022  1.00  0.00     0.017 A 
HETATM   14  C28 UNL     1       7.037  24.837  24.378  1.00  0.00     0.003 A 
ENDROOT
BRANCH   1  15
HETATM   15  N2  UNL     1       4.519  27.461  20.164  1.00  0.00    -0.390 N 
ATOM     16  H2  UNL     1       3.505  27.474  20.049  1.00  0.00     0.159 HD
BRANCH  15  17
HETATM   17  C9  UNL     1       5.370  28.193  19.251  1.00  0.00     0.119 C 
BRANCH  17  18
HETATM   18  C8  UNL     1       5.561  27.405  17.973  1.00  0.00     0.020 C 
BRANCH  18  19
HETATM   19  C7  UNL     1       6.568  26.315  18.149  1.00  0.00     0.002 C 
BRANCH  19  20
HETATM   20  C6  UNL     1       7.825  26.865  18.753  1.00  0.00     0.000 C 
BRANCH  20  21
HETATM   21  C5  UNL     1       8.859  25.745  18.986  1.00  0.00     0.000 C 
BRANCH  21  22
HETATM   22  C4  UNL     1       8.907  25.338  20.399  1.00  0.00     0.000 C 
BRANCH  22  23
HETATM   23  C3  UNL     1       8.556  23.947  20.690  1.00  0.00     0.002 C 
BRANCH  23  24
HETATM   24  C2  UNL     1       7.636  23.146  19.887  1.00  0.00     0.027 C 
BRANCH  24  25
HETATM   25  C1  UNL     1       7.836  21.678  19.767  1.00  0.00     0.229 C 
BRANCH  25  26
HETATM   26  N1  UNL     1       7.470  21.236  18.383  1.00  0.00    -0.079 N 
ATOM     27  H13 UNL     1       6.809  21.872  17.937  1.00  0.00     0.274 HD
ATOM     28  H12 UNL     1       8.243  21.345  17.726  1.00  0.00     0.274 HD
ATOM     29  H11 UNL     1       7.123  20.277  18.414  1.00  0.00     0.274 HD
ENDBRANCH  25  26
ENDBRANCH  24  25
ENDBRANCH  23  24
ENDBRANCH  22  23
ENDBRANCH  21  22
ENDBRANCH  20  21
ENDBRANCH  19  20
ENDBRANCH  18  19
ENDBRANCH  17  18
ENDBRANCH  15  17
ENDBRANCH   1  15
BRANCH  11  30
HETATM   30  O1  UNL     1       9.624  24.319  27.564  1.00  0.00    -0.349 OA
BRANCH  30  31
HETATM   31  C19 UNL     1       9.828  23.046  28.138  1.00  0.00     0.206 C 
BRANCH  31  32
HETATM   32  C20 UNL     1      11.116  23.064  28.960  1.00  0.00     0.299 C 
BRANCH  32  33
HETATM   33  N4  UNL     1      12.287  23.196  28.144  1.00  0.00     0.090 N 
HETATM   34  C21 UNL     1      13.015  21.988  27.925  1.00  0.00     0.272 C 
HETATM   35  C22 UNL     1      13.871  22.164  26.692  1.00  0.00     0.030 C 
HETATM   36  C23 UNL     1      14.763  23.341  26.867  1.00  0.00     0.003 C 
HETATM   37  C24 UNL     1      14.553  24.134  28.116  1.00  0.00     0.030 C 
HETATM   38  C25 UNL     1      13.098  24.325  28.463  1.00  0.00     0.272 C 
ENDBRANCH  32  33
ENDBRANCH  31  32
ENDBRANCH  30  31
ENDBRANCH  11  30
TORSDOF 15
ENDMDL
MODEL 2
REMARK VINA RESULT: -8.428928178      1.228      1.871
REMARK  15 active torsions:
REMARK  status: ('A' for Active; 'I' for Inactive)
REMARK    1  A    between atoms: N1_1  and  C1_5 
REMARK    2  A    between atoms: C1_5  and  C2_6 
REMARK    3  A    between atoms: C2_6  and  C3_7 
REMARK    4  A    between atoms: C3_7  and  C4_8 
REMARK    5  A    between atoms: C4_8  and  C5_9 
REMARK    6  A    between atoms: C5_9  and  C6_10 
REMARK    7  A    between atoms: C6_10  and  C7_11 
REMARK    8  A    between atoms: C7_11  and  C8_12 
REMARK    9  A    between atoms: C8_12  and  C9_13 
REMARK   10  A    between atoms: C9_13  and  N2_14 
REMARK   11  A    between atoms: N2_14  and  C10_16 
REMARK   12  A    between atoms: C18_26  and  O1_27 
REMARK   13  A    between atoms: O1_27  and  C19_28 
REMARK   14  A    between atoms: C19_28  and  C20_29 
REMARK   15  A    between atoms: C20_29  and  N4_30 
ROOT
HETATM    1  C10 UNL     1       4.865  26.824  21.045  1.00  0.00     0.030 A 
HETATM    2  C11 UNL     1       5.574  27.822  21.701  1.00  0.00     0.030 A 
HETATM    3  C12 UNL     1       6.400  27.526  22.767  1.00  0.00     0.017 A 
HETATM    4  C13 UNL     1       6.525  26.214  23.192  1.00  0.00     0.003 A 
HETATM    5  C14 UNL     1       5.835  25.196  22.565  1.00  0.00     0.046 A 
HETATM    6  C15 UNL     1       5.019  25.532  21.501  1.00  0.00     0.059 A 
HETATM    7  N3  UNL     1       6.129  24.034  23.166  1.00  0.00    -0.355 N 
ATOM      8  H3  UNL     1       5.755  23.124  22.898  1.00  0.00     0.166 HD
HETATM    9  C16 UNL     1       6.993  24.247  24.174  1.00  0.00     0.046 A 
HETATM   10  C17 UNL     1       7.598  23.409  25.088  1.00  0.00     0.067 A 
HETATM   11  C18 UNL     1       8.457  23.924  26.027  1.00  0.00     0.071 A 
HETATM   12  C26 UNL     1       8.704  25.300  26.041  1.00  0.00     0.038 A 
HETATM   13  C27 UNL     1       8.111  26.155  25.139  1.00  0.00     0.017 A 
HETATM   14  C28 UNL     1       7.253  25.613  24.206  1.00  0.00     0.003 A 
ENDROOT
BRANCH   1  15
HETATM   15  N2  UNL     1       4.010  27.132  19.944  1.00  0.00    -0.390 N 
ATOM     16  H2  UNL     1       3.212  27.754  20.068  1.00  0.00     0.159 HD
BRANCH  15  17
HETATM   17  C9  UNL     1       4.291  26.549  18.650  1.00  0.00     0.119 C 
BRANCH  17  18
HETATM   18  C8  UNL     1       5.557  27.145  18.074  1.00  0.00     0.020 C 
BRANCH  18  19
HETATM   19  C7  UNL     1       6.725  26.232  18.258  1.00  0.00     0.002 C 
BRANCH  19  20
HETATM   20  C6  UNL     1       7.897  26.994  18.799  1.00  0.00     0.000 C 
BRANCH  20  21
HETATM   21  C5  UNL     1       8.504  26.276  20.021  1.00  0.00     0.000 C 
BRANCH  21  22
HETATM   22  C4  UNL     1       9.061  24.964  19.655  1.00  0.00     0.000 C 
BRANCH  22  23
HETATM   23  C3  UNL     1       8.608  23.819  20.449  1.00  0.00     0.002 C 
BRANCH  23  24
HETATM   24  C2  UNL     1       7.599  22.859  20.007  1.00  0.00     0.027 C 
BRANCH  24  25
HETATM   25  C1  UNL     1       7.983  21.732  19.118  1.00  0.00     0.229 C 
BRANCH  25  26
HETATM   26  N1  UNL     1       6.954  20.647  19.217  1.00  0.00    -0.079 N 
ATOM     27  H13 UNL     1       6.426  20.695  20.088  1.00  0.00     0.274 HD
ATOM     28  H12 UNL     1       6.180  20.789  18.568  1.00  0.00     0.274 HD
ATOM     29  H11 UNL     1       7.404  19.740  19.088  1.00  0.00     0.274 HD
ENDBRANCH  25  26
ENDBRANCH  24  25
ENDBRANCH  23  24
ENDBRANCH  22  23
ENDBRANCH  21  22
ENDBRANCH  20  21
ENDBRANCH  19  20
ENDBRANCH  18  19
ENDBRANCH  17  18
ENDBRANCH  15  17
ENDBRANCH   1  15
BRANCH  11  30
HETATM   30  O1  UNL     1       9.050  23.073  26.930  1.00  0.00    -0.349 OA
BRANCH  30  31
HETATM   31  C19 UNL     1      10.346  22.564  26.699  1.00  0.00     0.206 C 
BRANCH  31  32
HETATM   32  C20 UNL     1      10.588  21.365  27.615  1.00  0.00     0.299 C 
BRANCH  32  33
HETATM   33  N4  UNL     1      11.937  21.304  28.095  1.00  0.00     0.090 N 
HETATM   34  C21 UNL     1      12.096  21.538  29.494  1.00  0.00     0.272 C 
HETATM   35  C22 UNL     1      13.421  20.954  29.928  1.00  0.00     0.030 C 
HETATM   36  C23 UNL     1      14.518  21.556  29.124  1.00  0.00     0.003 C 
HETATM   37  C24 UNL     1      14.089  22.479  28.030  1.00  0.00     0.030 C 
HETATM   38  C25 UNL     1      12.882  21.985  27.272  1.00  0.00     0.272 C 
ENDBRANCH  32  33
ENDBRANCH  31  32
ENDBRANCH  30  31
ENDBRANCH  11  30
TORSDOF 15
ENDMDL
MODEL 3
REMARK VINA RESULT: -8.167100544      1.841      2.575
REMARK  15 active torsions:
REMARK  status: ('A' for Active; 'I' for Inactive)
REMARK    1  A    between atoms: N1_1  and  C1_5 
REMARK    2  A    between atoms: C1_5  and  C2_6 
REMARK    3  A    between atoms: C2_6  and  C3_7 
REMARK    4  A    between atoms: C3_7  and  C4_8 
REMARK    5  A    between atoms: C4_8  and  C5_9 
REMARK    6  A    between atoms: C5_9  and  C6_10 
REMARK    7  A    between atoms: C6_10  and  C7_11 
REMARK    8  A    between atoms: C7_11  and  C8_12 
REMARK    9  A    between atoms: C8_12  and  C9_13 
REMARK   10  A    between atoms: C9_13  and  N2_14 
REMARK   11  A    between atoms: N2_14  and  C10_16 
REMARK   12  A    between atoms: C18_26  and  O1_27 
REMARK   13  A    between atoms: O1_27  and  C19_28 
REMARK   14  A    between atoms: C19_28  and  C20_29 
REMARK   15  A    between atoms: C20_29  and  N4_30 
ROOT
HETATM    1  C10 UNL     1       4.920  27.101  20.841  1.00  0.00     0.030 A 
HETATM    2  C11 UNL     1       4.508  25.793  21.058  1.00  0.00     0.030 A 
HETATM    3  C12 UNL     1       5.052  25.032  22.073  1.00  0.00     0.017 A 
HETATM    4  C13 UNL     1       6.027  25.579  22.891  1.00  0.00     0.003 A 
HETATM    5  C14 UNL     1       6.463  26.876  22.705  1.00  0.00     0.046 A 
HETATM    6  C15 UNL     1       5.893  27.606  21.679  1.00  0.00     0.059 A 
HETATM    7  N3  UNL     1       7.401  27.156  23.620  1.00  0.00    -0.355 N 
ATOM      8  H3  UNL     1       7.888  28.048  23.706  1.00  0.00     0.166 HD
HETATM    9  C16 UNL     1       7.605  26.087  24.409  1.00  0.00     0.046 A 
HETATM   10  C17 UNL     1       8.444  25.852  25.479  1.00  0.00     0.067 A 
HETATM   11  C18 UNL     1       8.432  24.629  26.104  1.00  0.00     0.071 A 
HETATM   12  C26 UNL     1       7.564  23.637  25.641  1.00  0.00     0.038 A 
HETATM   13  C27 UNL     1       6.718  23.849  24.575  1.00  0.00     0.017 A 
HETATM   14  C28 UNL     1       6.749  25.085  23.965  1.00  0.00     0.003 A 
ENDROOT
BRANCH   1  15
HETATM   15  N2  UNL     1       4.357  27.885  19.791  1.00  0.00    -0.390 N 
ATOM     16  H2  UNL     1       3.373  28.155  19.818  1.00  0.00     0.159 HD
BRANCH  15  17
HETATM   17  C9  UNL     1       5.199  28.293  18.687  1.00  0.00     0.119 C 
BRANCH  17  18
HETATM   18  C8  UNL     1       5.809  27.078  18.021  1.00  0.00     0.020 C 
BRANCH  18  19
HETATM   19  C7  UNL     1       7.261  26.947  18.348  1.00  0.00     0.002 C 
BRANCH  19  20
HETATM   20  C6  UNL     1       7.567  25.546  18.785  1.00  0.00     0.000 C 
BRANCH  20  21
HETATM   21  C5  UNL     1       8.621  25.540  19.911  1.00  0.00     0.000 C 
BRANCH  21  22
HETATM   22  C4  UNL     1       8.619  24.265  20.646  1.00  0.00     0.000 C 
BRANCH  22  23
HETATM   23  C3  UNL     1       7.637  23.267  20.218  1.00  0.00     0.002 C 
BRANCH  23  24
HETATM   24  C2  UNL     1       7.566  21.905  20.741  1.00  0.00     0.027 C 
BRANCH  24  25
HETATM   25  C1  UNL     1       7.567  20.747  19.808  1.00  0.00     0.229 C 
BRANCH  25  26
HETATM   26  N1  UNL     1       7.429  21.242  18.400  1.00  0.00    -0.079 N 
ATOM     27  H13 UNL     1       8.130  21.946  18.169  1.00  0.00     0.274 HD
ATOM     28  H12 UNL     1       7.700  20.536  17.715  1.00  0.00     0.274 HD
ATOM     29  H11 UNL     1       6.479  21.580  18.251  1.00  0.00     0.274 HD
ENDBRANCH  25  26
ENDBRANCH  24  25
ENDBRANCH  23  24
ENDBRANCH  22  23
ENDBRANCH  21  22
ENDBRANCH  20  21
ENDBRANCH  19  20
ENDBRANCH  18  19
ENDBRANCH  17  18
ENDBRANCH  15  17
ENDBRANCH   1  15
BRANCH  11  30
HETATM   30  O1  UNL     1       9.277  24.415  27.168  1.00  0.00    -0.349 OA
BRANCH  30  31
HETATM   31  C19 UNL     1       8.867  23.630  28.267  1.00  0.00     0.206 C 
BRANCH  31  32
HETATM   32  C20 UNL     1       9.929  22.568  28.552  1.00  0.00     0.299 C 
BRANCH  32  33
HETATM   33  N4  UNL     1       9.627  21.310  27.937  1.00  0.00     0.090 N 
HETATM   34  C21 UNL     1       8.259  20.907  28.016  1.00  0.00     0.272 C 
HETATM   35  C22 UNL     1       7.999  19.885  26.933  1.00  0.00     0.030 C 
HETATM   36  C23 UNL     1       8.938  18.741  27.091  1.00  0.00     0.003 C 
HETATM   37  C24 UNL     1       9.968  18.891  28.163  1.00  0.00     0.030 C 
HETATM   38  C25 UNL     1      10.564  20.275  28.228  1.00  0.00     0.272 C 
ENDBRANCH  32  33
ENDBRANCH  31  32
ENDBRANCH  30  31
ENDBRANCH  11  30
TORSDOF 15
ENDMDL
MODEL 4
REMARK VINA RESULT: -8.131251857      3.991      7.997
REMARK  15 active torsions:
REMARK  status: ('A' for Active; 'I' for Inactive)
REMARK    1  A    between atoms: N1_1  and  C1_5 
REMARK    2  A    between atoms: C1_5  and  C2_6 
REMARK    3  A    between atoms: C2_6  and  C3_7 
REMARK    4  A    between atoms: C3_7  and  C4_8 
REMARK    5  A    between atoms: C4_8  and  C5_9 
REMARK    6  A    between atoms: C5_9  and  C6_10 
REMARK    7  A    between atoms: C6_10  and  C7_11 
REMARK    8  A    between atoms: C7_11  and  C8_12 
REMARK    9  A    between atoms: C8_12  and  C9_13 
REMARK   10  A    between atoms: C9_13  and  N2_14 
REMARK   11  A    between atoms: N2_14  and  C10_16 
REMARK   12  A    between atoms: C18_26  and  O1_27 
REMARK   13  A    between atoms: O1_27  and  C19_28 
REMARK   14  A    between atoms: C19_28  and  C20_29 
REMARK   15  A    between atoms: C20_29  and  N4_30 
ROOT
HETATM    1  C10 UNL     1       7.815  19.114  22.890  1.00  0.00     0.030 A 
HETATM    2  C11 UNL     1       6.461  19.355  22.704  1.00  0.00     0.030 A 
HETATM    3  C12 UNL     1       5.960  20.641  22.691  1.00  0.00     0.017 A 
HETATM    4  C13 UNL     1       6.821  21.712  22.867  1.00  0.00     0.003 A 
HETATM    5  C14 UNL     1       8.173  21.512  23.055  1.00  0.00     0.046 A 
HETATM    6  C15 UNL     1       8.636  20.209  23.061  1.00  0.00     0.059 A 
HETATM    7  N3  UNL     1       8.776  22.701  23.200  1.00  0.00    -0.355 N 
ATOM      8  H3  UNL     1       9.775  22.838  23.351  1.00  0.00     0.166 HD
HETATM    9  C16 UNL     1       7.866  23.687  23.114  1.00  0.00     0.046 A 
HETATM   10  C17 UNL     1       7.957  25.061  23.194  1.00  0.00     0.067 A 
HETATM   11  C18 UNL     1       6.827  25.832  23.066  1.00  0.00     0.071 A 
HETATM   12  C26 UNL     1       5.596  25.205  22.857  1.00  0.00     0.038 A 
HETATM   13  C27 UNL     1       5.482  23.835  22.774  1.00  0.00     0.017 A 
HETATM   14  C28 UNL     1       6.630  23.084  22.905  1.00  0.00     0.003 A 
ENDROOT
BRANCH   1  15
HETATM   15  N2  UNL     1       8.331  17.783  22.904  1.00  0.00    -0.390 N 
ATOM     16  H2  UNL     1       8.880  17.451  23.697  1.00  0.00     0.159 HD
BRANCH  15  17
HETATM   17  C9  UNL     1       8.065  16.912  21.780  1.00  0.00     0.119 C 
BRANCH  17  18
HETATM   18  C8  UNL     1       8.987  17.252  20.628  1.00  0.00     0.020 C 
BRANCH  18  19
HETATM   19  C7  UNL     1       8.242  17.894  19.503  1.00  0.00     0.002 C 
BRANCH  19  20
HETATM   20  C6  UNL     1       8.530  19.365  19.465  1.00  0.00     0.000 C 
BRANCH  20  21
HETATM   21  C5  UNL     1       7.231  20.175  19.280  1.00  0.00     0.000 C 
BRANCH  21  22
HETATM   22  C4  UNL     1       7.500  21.506  18.714  1.00  0.00     0.000 C 
BRANCH  22  23
HETATM   23  C3  UNL     1       8.236  22.441  19.567  1.00  0.00     0.002 C 
BRANCH  23  24
HETATM   24  C2  UNL     1       8.241  23.891  19.387  1.00  0.00     0.027 C 
BRANCH  24  25
HETATM   25  C1  UNL     1       9.421  24.690  19.809  1.00  0.00     0.229 C 
BRANCH  25  26
HETATM   26  N1  UNL     1      10.004  25.387  18.618  1.00  0.00    -0.079 N 
ATOM     27  H13 UNL     1       9.324  25.501  17.867  1.00  0.00     0.274 HD
ATOM     28  H12 UNL     1      10.188  26.374  18.800  1.00  0.00     0.274 HD
ATOM     29  H11 UNL     1      10.839  24.889  18.310  1.00  0.00     0.274 HD
ENDBRANCH  25  26
ENDBRANCH  24  25
ENDBRANCH  23  24
ENDBRANCH  22  23
ENDBRANCH  21  22
ENDBRANCH  20  21
ENDBRANCH  19  20
ENDBRANCH  18  19
ENDBRANCH  17  18
ENDBRANCH  15  17
ENDBRANCH   1  15
BRANCH  11  30
HETATM   30  O1  UNL     1       6.939  27.201  23.150  1.00  0.00    -0.349 OA
BRANCH  30  31
HETATM   31  C19 UNL     1       7.240  27.971  22.006  1.00  0.00     0.206 C 
BRANCH  31  32
HETATM   32  C20 UNL     1       5.971  28.669  21.519  1.00  0.00     0.299 C 
BRANCH  32  33
HETATM   33  N4  UNL     1       5.491  28.134  20.280  1.00  0.00     0.090 N 
HETATM   34  C21 UNL     1       4.347  27.286  20.386  1.00  0.00     0.272 C 
HETATM   35  C22 UNL     1       3.671  27.226  19.035  1.00  0.00     0.030 C 
HETATM   36  C23 UNL     1       4.640  26.746  18.014  1.00  0.00     0.003 C 
HETATM   37  C24 UNL     1       6.042  26.547  18.492  1.00  0.00     0.030 C 
HETATM   38  C25 UNL     1       6.515  27.638  19.421  1.00  0.00     0.272 C 
ENDBRANCH  32  33
ENDBRANCH  31  32
ENDBRANCH  30  31
ENDBRANCH  11  30
TORSDOF 15
ENDMDL
MODEL 5
REMARK VINA RESULT: -8.103910002      1.059      1.487
REMARK  15 active torsions:
REMARK  status: ('A' for Active; 'I' for Inactive)
REMARK    1  A    between atoms: N1_1  and  C1_5 
REMARK    2  A    between atoms: C1_5  and  C2_6 
REMARK    3  A    between atoms: C2_6  and  C3_7 
REMARK    4  A    between atoms: C3_7  and  C4_8 
REMARK    5  A    between atoms: C4_8  and  C5_9 
REMARK    6  A    between atoms: C5_9  and  C6_10 
REMARK    7  A    between atoms: C6_10  and  C7_11 
REMARK    8  A    between atoms: C7_11  and  C8_12 
REMARK    9  A    between atoms: C8_12  and  C9_13 
REMARK   10  A    between atoms: C9_13  and  N2_14 
REMARK   11  A    between atoms: N2_14  and  C10_16 
REMARK   12  A    between atoms: C18_26  and  O1_27 
REMARK   13  A    between atoms: O1_27  and  C19_28 
REMARK   14  A    between atoms: C19_28  and  C20_29 
REMARK   15  A    between atoms: C20_29  and  N4_30 
ROOT
HETATM    1  C10 UNL     1       5.545  27.006  21.078  1.00  0.00     0.030 A 
HETATM    2  C11 UNL     1       4.906  25.801  21.336  1.00  0.00     0.030 A 
HETATM    3  C12 UNL     1       5.268  25.017  22.412  1.00  0.00     0.017 A 
HETATM    4  C13 UNL     1       6.289  25.436  23.251  1.00  0.00     0.003 A 
HETATM    5  C14 UNL     1       6.948  26.627  23.025  1.00  0.00     0.046 A 
HETATM    6  C15 UNL     1       6.555  27.385  21.938  1.00  0.00     0.059 A 
HETATM    7  N3  UNL     1       7.883  26.795  23.972  1.00  0.00    -0.355 N 
ATOM      8  H3  UNL     1       8.512  27.595  24.039  1.00  0.00     0.166 HD
HETATM    9  C16 UNL     1       7.867  25.752  24.820  1.00  0.00     0.046 A 
HETATM   10  C17 UNL     1       8.608  25.438  25.941  1.00  0.00     0.067 A 
HETATM   11  C18 UNL     1       8.360  24.272  26.623  1.00  0.00     0.071 A 
HETATM   12  C26 UNL     1       7.354  23.417  26.164  1.00  0.00     0.038 A 
HETATM   13  C27 UNL     1       6.602  23.710  25.049  1.00  0.00     0.017 A 
HETATM   14  C28 UNL     1       6.870  24.886  24.382  1.00  0.00     0.003 A 
ENDROOT
BRANCH   1  15
HETATM   15  N2  UNL     1       5.170  27.815  19.964  1.00  0.00    -0.390 N 
ATOM     16  H2  UNL     1       4.579  28.636  20.098  1.00  0.00     0.159 HD
BRANCH  15  17
HETATM   17  C9  UNL     1       5.637  27.456  18.642  1.00  0.00     0.119 C 
BRANCH  17  18
HETATM   18  C8  UNL     1       7.105  27.090  18.691  1.00  0.00     0.020 C 
BRANCH  18  19
HETATM   19  C7  UNL     1       7.371  25.806  17.974  1.00  0.00     0.002 C 
BRANCH  19  20
HETATM   20  C6  UNL     1       7.352  24.661  18.941  1.00  0.00     0.000 C 
BRANCH  20  21
HETATM   21  C5  UNL     1       8.574  24.712  19.880  1.00  0.00     0.000 C 
BRANCH  21  22
HETATM   22  C4  UNL     1       8.450  23.746  20.983  1.00  0.00     0.000 C 
BRANCH  22  23
HETATM   23  C3  UNL     1       7.550  22.613  20.759  1.00  0.00     0.002 C 
BRANCH  23  24
HETATM   24  C2  UNL     1       7.961  21.335  20.183  1.00  0.00     0.027 C 
BRANCH  24  25
HETATM   25  C1  UNL     1       7.096  20.655  19.184  1.00  0.00     0.229 C 
BRANCH  25  26
HETATM   26  N1  UNL     1       6.399  19.499  19.834  1.00  0.00    -0.079 N 
ATOM     27  H13 UNL     1       6.020  18.844  19.150  1.00  0.00     0.274 HD
ATOM     28  H12 UNL     1       7.051  18.865  20.296  1.00  0.00     0.274 HD
ATOM     29  H11 UNL     1       5.683  19.848  20.471  1.00  0.00     0.274 HD
ENDBRANCH  25  26
ENDBRANCH  24  25
ENDBRANCH  23  24
ENDBRANCH  22  23
ENDBRANCH  21  22
ENDBRANCH  20  21
ENDBRANCH  19  20
ENDBRANCH  18  19
ENDBRANCH  17  18
ENDBRANCH  15  17
ENDBRANCH   1  15
BRANCH  11  30
HETATM   30  O1  UNL     1       9.111  23.977  27.737  1.00  0.00    -0.349 OA
BRANCH  30  31
HETATM   31  C19 UNL     1      10.482  23.667  27.621  1.00  0.00     0.206 C 
BRANCH  31  32
HETATM   32  C20 UNL     1      10.666  22.152  27.713  1.00  0.00     0.299 C 
BRANCH  32  33
HETATM   33  N4  UNL     1      11.968  21.785  28.186  1.00  0.00     0.090 N 
HETATM   34  C21 UNL     1      12.292  22.248  29.497  1.00  0.00     0.272 C 
HETATM   35  C22 UNL     1      13.413  21.394  30.042  1.00  0.00     0.030 C 
HETATM   36  C23 UNL     1      14.577  21.448  29.117  1.00  0.00     0.003 C 
HETATM   37  C24 UNL     1      14.361  22.204  27.847  1.00  0.00     0.030 C 
HETATM   38  C25 UNL     1      13.009  21.954  27.226  1.00  0.00     0.272 C 
ENDBRANCH  32  33
ENDBRANCH  31  32
ENDBRANCH  30  31
ENDBRANCH  11  30
TORSDOF 15
ENDMDL
