MODEL 1
REMARK VINA RESULT: -8.688711084      0.000      0.000
REMARK  14 active torsions:
REMARK  status: ('A' for Active; 'I' for Inactive)
REMARK    1  A    between atoms: N1_2  and  C1_4 
REMARK    2  A    between atoms: C3_6  and  C4_7 
REMARK    3  A    between atoms: C4_7  and  C5_8 
REMARK    4  A    between atoms: C5_8  and  C6_9 
REMARK    5  A    between atoms: C6_9  and  C7_10 
REMARK    6  A    between atoms: C7_10  and  C8_11 
REMARK    7  A    between atoms: C8_11  and  C9_12 
REMARK    8  A    between atoms: C9_12  and  C10_13 
REMARK    9  A    between atoms: C10_13  and  C11_14 
REMARK   10  A    between atoms: C11_14  and  C12_15 
REMARK   11  A    between atoms: C12_15  and  N2_16 
REMARK   12  A    between atoms: N2_16  and  C13_19 
REMARK   13  A    between atoms: C13_19  and  C14_20 
REMARK   14  A    between atoms: C19_25  and  C20_26 
ROOT
HETATM    1  N2  UNL     1       4.149  27.719  19.242  1.00  0.00    -0.071 N 
ATOM      2  H21 UNL     1       3.473  28.464  19.071  1.00  0.00     0.277 HD
ATOM      3  H22 UNL     1       4.960  28.296  19.460  1.00  0.00     0.277 HD
ENDROOT
BRANCH   1   4
HETATM    4  C12 UNL     1       4.370  26.899  18.045  1.00  0.00     0.232 C 
BRANCH   4   5
HETATM    5  C11 UNL     1       5.830  26.508  17.995  1.00  0.00     0.027 C 
BRANCH   5   6
HETATM    6  C10 UNL     1       6.762  27.614  18.374  1.00  0.00     0.002 C 
BRANCH   6   7
HETATM    7  C9  UNL     1       7.955  27.069  19.130  1.00  0.00     0.000 C 
BRANCH   7   8
HETATM    8  C8  UNL     1       7.846  25.590  19.393  1.00  0.00     0.000 C 
BRANCH   8   9
HETATM    9  C7  UNL     1       8.877  25.084  20.347  1.00  0.00     0.000 C 
BRANCH   9  10
HETATM   10  C6  UNL     1       8.669  23.676  20.796  1.00  0.00     0.000 C 
BRANCH  10  11
HETATM   11  C5  UNL     1       7.473  22.990  20.211  1.00  0.00     0.006 C 
BRANCH  11  12
HETATM   12  C4  UNL     1       7.840  22.058  19.077  1.00  0.00     0.059 C 
BRANCH  12  13
HETATM   13  C3  UNL     1       7.717  20.634  19.500  1.00  0.00     0.029 A 
HETATM   14  C2  UNL     1       8.713  19.697  19.513  1.00  0.00     0.082 A 
HETATM   15  C1  UNL     1       8.174  18.508  19.967  1.00  0.00     0.190 A 
HETATM   16  N5  UNL     1       6.870  18.781  20.209  1.00  0.00    -0.280 N 
HETATM   17  N4  UNL     1       6.595  20.026  19.937  1.00  0.00    -0.303 N 
ATOM     18  H5  UNL     1       6.193  18.102  20.557  1.00  0.00     0.188 HD
ATOM     19  H4  UNL     1       5.681  20.468  20.038  1.00  0.00     0.186 HD
BRANCH  15  20
HETATM   20  N1  UNL     1       8.827  17.260  20.149  1.00  0.00    -0.097 N 
HETATM   21  O1  UNL     1       8.920  16.790  21.294  1.00  0.00    -0.530 OA
HETATM   22  O2  UNL     1       9.342  16.587  19.093  1.00  0.00    -0.530 OA
ENDBRANCH  15  20
ENDBRANCH  12  13
ENDBRANCH  11  12
ENDBRANCH  10  11
ENDBRANCH   9  10
ENDBRANCH   8   9
ENDBRANCH   7   8
ENDBRANCH   6   7
ENDBRANCH   5   6
ENDBRANCH   4   5
ENDBRANCH   1   4
BRANCH   1  23
HETATM   23  C13 UNL     1       3.761  26.889  20.366  1.00  0.00     0.270 C 
BRANCH  23  24
HETATM   24  C14 UNL     1       4.838  26.787  21.355  1.00  0.00    -0.031 A 
HETATM   25  C15 UNL     1       5.549  27.935  21.662  1.00  0.00     0.010 A 
HETATM   26  C16 UNL     1       6.561  27.818  22.590  1.00  0.00     0.014 A 
HETATM   27  C17 UNL     1       6.855  26.613  23.190  1.00  0.00    -0.007 A 
HETATM   28  C18 UNL     1       7.797  26.245  24.126  1.00  0.00     0.044 A 
HETATM   29  C26 UNL     1       6.138  25.458  22.880  1.00  0.00     0.043 A 
HETATM   30  C19 UNL     1       7.640  24.901  24.363  1.00  0.00     0.043 A 
HETATM   31  N3  UNL     1       6.632  24.429  23.604  1.00  0.00    -0.355 N 
ATOM     32  H3  UNL     1       6.300  23.465  23.579  1.00  0.00     0.166 HD
HETATM   33  C27 UNL     1       5.127  25.585  21.949  1.00  0.00     0.039 A 
BRANCH  30  34
HETATM   34  C20 UNL     1       8.469  24.133  25.306  1.00  0.00    -0.009 A 
HETATM   35  C21 UNL     1       8.440  24.403  26.654  1.00  0.00     0.013 A 
HETATM   36  C22 UNL     1       9.212  23.690  27.538  1.00  0.00     0.001 A 
HETATM   37  C23 UNL     1      10.019  22.694  27.040  1.00  0.00     0.000 A 
HETATM   38  C24 UNL     1      10.074  22.394  25.679  1.00  0.00     0.001 A 
HETATM   39  C25 UNL     1       9.283  23.134  24.825  1.00  0.00     0.013 A 
ENDBRANCH  30  34
ENDBRANCH  23  24
ENDBRANCH   1  23
TORSDOF 14
ENDMDL
MODEL 2
REMARK VINA RESULT: -8.569459856      1.380      1.869
REMARK  14 active torsions:
REMARK  status: ('A' for Active; 'I' for Inactive)
REMARK    1  A    between atoms: N1_2  and  C1_4 
REMARK    2  A    between atoms: C3_6  and  C4_7 
REMARK    3  A    between atoms: C4_7  and  C5_8 
REMARK    4  A    between atoms: C5_8  and  C6_9 
REMARK    5  A    between atoms: C6_9  and  C7_10 
REMARK    6  A    between atoms: C7_10  and  C8_11 
REMARK    7  A    between atoms: C8_11  and  C9_12 
REMARK    8  A    between atoms: C9_12  and  C10_13 
REMARK    9  A    between atoms: C10_13  and  C11_14 
REMARK   10  A    between atoms: C11_14  and  C12_15 
REMARK   11  A    between atoms: C12_15  and  N2_16 
REMARK   12  A    between atoms: N2_16  and  C13_19 
REMARK   13  A    between atoms: C13_19  and  C14_20 
REMARK   14  A    between atoms: C19_25  and  C20_26 
ROOT
HETATM    1  N2  UNL     1       4.219  27.809  19.079  1.00  0.00    -0.071 N 
ATOM      2  H21 UNL     1       3.456  28.405  18.757  1.00  0.00     0.277 HD
ATOM      3  H22 UNL     1       4.871  28.537  19.368  1.00  0.00     0.277 HD
ENDROOT
BRANCH   1   4
HETATM    4  C12 UNL     1       4.765  26.989  17.990  1.00  0.00     0.232 C 
BRANCH   4   5
HETATM    5  C11 UNL     1       6.274  27.102  18.018  1.00  0.00     0.027 C 
BRANCH   5   6
HETATM    6  C10 UNL     1       6.967  25.815  18.330  1.00  0.00     0.002 C 
BRANCH   6   7
HETATM    7  C9  UNL     1       8.124  26.051  19.279  1.00  0.00     0.000 C 
BRANCH   7   8
HETATM    8  C8  UNL     1       8.992  24.832  19.447  1.00  0.00     0.000 C 
BRANCH   8   9
HETATM    9  C7  UNL     1       8.850  24.188  20.786  1.00  0.00     0.000 C 
BRANCH   9  10
HETATM   10  C6  UNL     1       8.225  22.832  20.759  1.00  0.00     0.000 C 
BRANCH  10  11
HETATM   11  C5  UNL     1       7.671  22.411  19.433  1.00  0.00     0.006 C 
BRANCH  11  12
HETATM   12  C4  UNL     1       8.311  21.140  18.918  1.00  0.00     0.059 C 
BRANCH  12  13
HETATM   13  C3  UNL     1       7.707  19.942  19.566  1.00  0.00     0.029 A 
HETATM   14  C2  UNL     1       6.375  19.703  19.759  1.00  0.00     0.082 A 
HETATM   15  C1  UNL     1       6.248  18.485  20.399  1.00  0.00     0.190 A 
HETATM   16  N5  UNL     1       7.516  18.040  20.565  1.00  0.00    -0.280 N 
HETATM   17  N4  UNL     1       8.377  18.890  20.079  1.00  0.00    -0.303 N 
ATOM     18  H5  UNL     1       7.765  17.157  21.012  1.00  0.00     0.188 HD
ATOM     19  H4  UNL     1       9.391  18.777  20.085  1.00  0.00     0.186 HD
BRANCH  15  20
HETATM   20  N1  UNL     1       5.058  17.823  20.804  1.00  0.00    -0.097 N 
HETATM   21  O1  UNL     1       4.874  16.647  20.453  1.00  0.00    -0.530 OA
HETATM   22  O2  UNL     1       4.134  18.461  21.562  1.00  0.00    -0.530 OA
ENDBRANCH  15  20
ENDBRANCH  12  13
ENDBRANCH  11  12
ENDBRANCH  10  11
ENDBRANCH   9  10
ENDBRANCH   8   9
ENDBRANCH   7   8
ENDBRANCH   6   7
ENDBRANCH   5   6
ENDBRANCH   4   5
ENDBRANCH   1   4
BRANCH   1  23
HETATM   23  C13 UNL     1       3.816  26.974  20.194  1.00  0.00     0.270 C 
BRANCH  23  24
HETATM   24  C14 UNL     1       4.876  26.874  21.201  1.00  0.00    -0.031 A 
HETATM   25  C15 UNL     1       5.606  28.015  21.490  1.00  0.00     0.010 A 
HETATM   26  C16 UNL     1       6.602  27.901  22.436  1.00  0.00     0.014 A 
HETATM   27  C17 UNL     1       6.864  26.705  23.068  1.00  0.00    -0.007 A 
HETATM   28  C18 UNL     1       7.784  26.341  24.027  1.00  0.00     0.044 A 
HETATM   29  C26 UNL     1       6.128  25.557  22.776  1.00  0.00     0.043 A 
HETATM   30  C19 UNL     1       7.597  25.006  24.293  1.00  0.00     0.043 A 
HETATM   31  N3  UNL     1       6.590  24.536  23.531  1.00  0.00    -0.355 N 
ATOM     32  H3  UNL     1       6.239  23.579  23.525  1.00  0.00     0.166 HD
HETATM   33  C27 UNL     1       5.133  25.681  21.827  1.00  0.00     0.039 A 
BRANCH  30  34
HETATM   34  C20 UNL     1       8.397  24.245  25.267  1.00  0.00    -0.009 A 
HETATM   35  C21 UNL     1       9.314  23.310  24.850  1.00  0.00     0.013 A 
HETATM   36  C22 UNL     1      10.063  22.597  25.754  1.00  0.00     0.001 A 
HETATM   37  C23 UNL     1       9.872  22.842  27.093  1.00  0.00     0.000 A 
HETATM   38  C24 UNL     1       8.950  23.783  27.552  1.00  0.00     0.001 A 
HETATM   39  C25 UNL     1       8.218  24.477  26.611  1.00  0.00     0.013 A 
ENDBRANCH  30  34
ENDBRANCH  23  24
ENDBRANCH   1  23
TORSDOF 14
ENDMDL
MODEL 3
REMARK VINA RESULT: -8.428518355      1.537      1.973
REMARK  14 active torsions:
REMARK  status: ('A' for Active; 'I' for Inactive)
REMARK    1  A    between atoms: N1_2  and  C1_4 
REMARK    2  A    between atoms: C3_6  and  C4_7 
REMARK    3  A    between atoms: C4_7  and  C5_8 
REMARK    4  A    between atoms: C5_8  and  C6_9 
REMARK    5  A    between atoms: C6_9  and  C7_10 
REMARK    6  A    between atoms: C7_10  and  C8_11 
REMARK    7  A    between atoms: C8_11  and  C9_12 
REMARK    8  A    between atoms: C9_12  and  C10_13 
REMARK    9  A    between atoms: C10_13  and  C11_14 
REMARK   10  A    between atoms: C11_14  and  C12_15 
REMARK   11  A    between atoms: C12_15  and  N2_16 
REMARK   12  A    between atoms: N2_16  and  C13_19 
REMARK   13  A    between atoms: C13_19  and  C14_20 
REMARK   14  A    between atoms: C19_25  and  C20_26 
ROOT
HETATM    1  N2  UNL     1       6.429  27.951  18.659  1.00  0.00    -0.071 N 
ATOM      2  H21 UNL     1       6.394  28.656  17.923  1.00  0.00     0.277 HD
ATOM      3  H22 UNL     1       7.442  27.888  18.761  1.00  0.00     0.277 HD
ENDROOT
BRANCH   1   4
HETATM    4  C12 UNL     1       5.846  26.677  18.222  1.00  0.00     0.232 C 
BRANCH   4   5
HETATM    5  C11 UNL     1       6.852  25.577  18.475  1.00  0.00     0.027 C 
BRANCH   5   6
HETATM    6  C10 UNL     1       8.272  26.042  18.443  1.00  0.00     0.002 C 
BRANCH   6   7
HETATM    7  C9  UNL     1       9.028  25.528  19.651  1.00  0.00     0.000 C 
BRANCH   7   8
HETATM    8  C8  UNL     1       8.818  24.055  19.881  1.00  0.00     0.000 C 
BRANCH   8   9
HETATM    9  C7  UNL     1       8.320  23.738  21.252  1.00  0.00     0.000 C 
BRANCH   9  10
HETATM   10  C6  UNL     1       6.965  23.114  21.291  1.00  0.00     0.000 C 
BRANCH  10  11
HETATM   11  C5  UNL     1       6.704  22.231  22.472  1.00  0.00     0.006 C 
BRANCH  11  12
HETATM   12  C4  UNL     1       7.847  21.278  22.745  1.00  0.00     0.059 C 
BRANCH  12  13
HETATM   13  C3  UNL     1       7.723  20.048  21.912  1.00  0.00     0.029 A 
HETATM   14  C2  UNL     1       8.746  19.333  21.355  1.00  0.00     0.082 A 
HETATM   15  C1  UNL     1       8.196  18.273  20.659  1.00  0.00     0.190 A 
HETATM   16  N5  UNL     1       6.858  18.396  20.828  1.00  0.00    -0.280 N 
HETATM   17  N4  UNL     1       6.574  19.435  21.562  1.00  0.00    -0.303 N 
ATOM     18  H5  UNL     1       6.165  17.760  20.433  1.00  0.00     0.188 HD
ATOM     19  H4  UNL     1       5.636  19.736  21.827  1.00  0.00     0.186 HD
BRANCH  15  20
HETATM   20  N1  UNL     1       8.867  17.262  19.921  1.00  0.00    -0.097 N 
HETATM   21  O1  UNL     1       8.983  17.389  18.692  1.00  0.00    -0.530 OA
HETATM   22  O2  UNL     1       9.377  16.172  20.544  1.00  0.00    -0.530 OA
ENDBRANCH  15  20
ENDBRANCH  12  13
ENDBRANCH  11  12
ENDBRANCH  10  11
ENDBRANCH   9  10
ENDBRANCH   8   9
ENDBRANCH   7   8
ENDBRANCH   6   7
ENDBRANCH   5   6
ENDBRANCH   4   5
ENDBRANCH   1   4
BRANCH   1  23
HETATM   23  C13 UNL     1       5.794  28.413  19.878  1.00  0.00     0.270 C 
BRANCH  23  24
HETATM   24  C14 UNL     1       6.478  27.901  21.068  1.00  0.00    -0.031 A 
HETATM   25  C15 UNL     1       7.714  28.439  21.388  1.00  0.00     0.010 A 
HETATM   26  C16 UNL     1       8.344  27.942  22.509  1.00  0.00     0.014 A 
HETATM   27  C17 UNL     1       7.773  26.953  23.280  1.00  0.00    -0.007 A 
HETATM   28  C18 UNL     1       8.193  26.304  24.420  1.00  0.00     0.044 A 
HETATM   29  C26 UNL     1       6.529  26.413  22.956  1.00  0.00     0.043 A 
HETATM   30  C19 UNL     1       7.218  25.398  24.762  1.00  0.00     0.043 A 
HETATM   31  N3  UNL     1       6.211  25.470  23.870  1.00  0.00    -0.355 N 
ATOM     32  H3  UNL     1       5.358  24.910  23.882  1.00  0.00     0.166 HD
HETATM   33  C27 UNL     1       5.905  26.917  21.832  1.00  0.00     0.039 A 
BRANCH  30  34
HETATM   34  C20 UNL     1       7.302  24.505  25.929  1.00  0.00    -0.009 A 
HETATM   35  C21 UNL     1       8.180  24.764  26.954  1.00  0.00     0.013 A 
HETATM   36  C22 UNL     1       8.263  23.934  28.046  1.00  0.00     0.001 A 
HETATM   37  C23 UNL     1       7.442  22.831  28.088  1.00  0.00     0.000 A 
HETATM   38  C24 UNL     1       6.540  22.538  27.065  1.00  0.00     0.001 A 
HETATM   39  C25 UNL     1       6.489  23.397  25.987  1.00  0.00     0.013 A 
ENDBRANCH  30  34
ENDBRANCH  23  24
ENDBRANCH   1  23
TORSDOF 14
ENDMDL
MODEL 4
REMARK VINA RESULT: -8.408920670      1.111      1.879
REMARK  14 active torsions:
REMARK  status: ('A' for Active; 'I' for Inactive)
REMARK    1  A    between atoms: N1_2  and  C1_4 
REMARK    2  A    between atoms: C3_6  and  C4_7 
REMARK    3  A    between atoms: C4_7  and  C5_8 
REMARK    4  A    between atoms: C5_8  and  C6_9 
REMARK    5  A    between atoms: C6_9  and  C7_10 
REMARK    6  A    between atoms: C7_10  and  C8_11 
REMARK    7  A    between atoms: C8_11  and  C9_12 
REMARK    8  A    between atoms: C9_12  and  C10_13 
REMARK    9  A    between atoms: C10_13  and  C11_14 
REMARK   10  A    between atoms: C11_14  and  C12_15 
REMARK   11  A    between atoms: C12_15  and  N2_16 
REMARK   12  A    between atoms: N2_16  and  C13_19 
REMARK   13  A    between atoms: C13_19  and  C14_20 
REMARK   14  A    between atoms: C19_25  and  C20_26 
ROOT
HETATM    1  N2  UNL     1       6.193  28.443  19.655  1.00  0.00    -0.071 N 
ATOM      2  H21 UNL     1       6.358  29.444  19.552  1.00  0.00     0.277 HD
ATOM      3  H22 UNL     1       7.104  28.176  20.028  1.00  0.00     0.277 HD
ENDROOT
BRANCH   1   4
HETATM    4  C12 UNL     1       5.923  27.799  18.364  1.00  0.00     0.232 C 
BRANCH   4   5
HETATM    5  C11 UNL     1       6.968  26.730  18.134  1.00  0.00     0.027 C 
BRANCH   5   6
HETATM    6  C10 UNL     1       8.233  26.952  18.898  1.00  0.00     0.002 C 
BRANCH   6   7
HETATM    7  C9  UNL     1       8.971  25.643  19.095  1.00  0.00     0.000 C 
BRANCH   7   8
HETATM    8  C8  UNL     1       8.886  25.139  20.512  1.00  0.00     0.000 C 
BRANCH   8   9
HETATM    9  C7  UNL     1       8.439  23.718  20.606  1.00  0.00     0.000 C 
BRANCH   9  10
HETATM   10  C6  UNL     1       7.804  23.184  19.366  1.00  0.00     0.000 C 
BRANCH  10  11
HETATM   11  C5  UNL     1       7.656  21.696  19.315  1.00  0.00     0.006 C 
BRANCH  11  12
HETATM   12  C4  UNL     1       7.097  21.127  20.602  1.00  0.00     0.059 C 
BRANCH  12  13
HETATM   13  C3  UNL     1       7.166  19.639  20.598  1.00  0.00     0.029 A 
HETATM   14  C2  UNL     1       8.292  18.873  20.729  1.00  0.00     0.082 A 
HETATM   15  C1  UNL     1       7.915  17.545  20.666  1.00  0.00     0.190 A 
HETATM   16  N5  UNL     1       6.571  17.567  20.499  1.00  0.00    -0.280 N 
HETATM   17  N4  UNL     1       6.126  18.792  20.458  1.00  0.00    -0.303 N 
ATOM     18  H5  UNL     1       5.986  16.736  20.415  1.00  0.00     0.188 HD
ATOM     19  H4  UNL     1       5.150  19.065  20.339  1.00  0.00     0.186 HD
BRANCH  15  20
HETATM   20  N1  UNL     1       8.739  16.392  20.756  1.00  0.00    -0.097 N 
HETATM   21  O1  UNL     1       9.823  16.378  20.153  1.00  0.00    -0.530 OA
HETATM   22  O2  UNL     1       8.353  15.320  21.488  1.00  0.00    -0.530 OA
ENDBRANCH  15  20
ENDBRANCH  12  13
ENDBRANCH  11  12
ENDBRANCH  10  11
ENDBRANCH   9  10
ENDBRANCH   8   9
ENDBRANCH   7   8
ENDBRANCH   6   7
ENDBRANCH   5   6
ENDBRANCH   4   5
ENDBRANCH   1   4
BRANCH   1  23
HETATM   23  C13 UNL     1       5.125  28.168  20.597  1.00  0.00     0.270 C 
BRANCH  23  24
HETATM   24  C14 UNL     1       5.468  27.056  21.488  1.00  0.00    -0.031 A 
HETATM   25  C15 UNL     1       4.850  25.836  21.271  1.00  0.00     0.010 A 
HETATM   26  C16 UNL     1       5.181  24.803  22.121  1.00  0.00     0.014 A 
HETATM   27  C17 UNL     1       6.087  24.973  23.145  1.00  0.00    -0.007 A 
HETATM   28  C18 UNL     1       6.575  24.117  24.108  1.00  0.00     0.044 A 
HETATM   29  C26 UNL     1       6.709  26.202  23.363  1.00  0.00     0.043 A 
HETATM   30  C19 UNL     1       7.464  24.826  24.879  1.00  0.00     0.043 A 
HETATM   31  N3  UNL     1       7.541  26.090  24.421  1.00  0.00    -0.355 N 
ATOM     32  H3  UNL     1       8.125  26.833  24.806  1.00  0.00     0.166 HD
HETATM   33  C27 UNL     1       6.371  27.231  22.505  1.00  0.00     0.039 A 
BRANCH  30  34
HETATM   34  C20 UNL     1       8.195  24.254  26.022  1.00  0.00    -0.009 A 
HETATM   35  C21 UNL     1       9.361  23.551  25.833  1.00  0.00     0.013 A 
HETATM   36  C22 UNL     1      10.048  23.015  26.895  1.00  0.00     0.001 A 
HETATM   37  C23 UNL     1       9.537  23.199  28.159  1.00  0.00     0.000 A 
HETATM   38  C24 UNL     1       8.356  23.907  28.387  1.00  0.00     0.001 A 
HETATM   39  C25 UNL     1       7.698  24.428  27.292  1.00  0.00     0.013 A 
ENDBRANCH  30  34
ENDBRANCH  23  24
ENDBRANCH   1  23
TORSDOF 14
ENDMDL
MODEL 5
REMARK VINA RESULT: -8.344135677      3.823      7.521
REMARK  14 active torsions:
REMARK  status: ('A' for Active; 'I' for Inactive)
REMARK    1  A    between atoms: N1_2  and  C1_4 
REMARK    2  A    between atoms: C3_6  and  C4_7 
REMARK    3  A    between atoms: C4_7  and  C5_8 
REMARK    4  A    between atoms: C5_8  and  C6_9 
REMARK    5  A    between atoms: C6_9  and  C7_10 
REMARK    6  A    between atoms: C7_10  and  C8_11 
REMARK    7  A    between atoms: C8_11  and  C9_12 
REMARK    8  A    between atoms: C9_12  and  C10_13 
REMARK    9  A    between atoms: C10_13  and  C11_14 
REMARK   10  A    between atoms: C11_14  and  C12_15 
REMARK   11  A    between atoms: C12_15  and  N2_16 
REMARK   12  A    between atoms: N2_16  and  C13_19 
REMARK   13  A    between atoms: C13_19  and  C14_20 
REMARK   14  A    between atoms: C19_25  and  C20_26 
ROOT
HETATM    1  N2  UNL     1       5.157  17.326  22.645  1.00  0.00    -0.071 N 
ATOM      2  H21 UNL     1       4.402  16.751  23.017  1.00  0.00     0.277 HD
ATOM      3  H22 UNL     1       4.617  18.161  22.418  1.00  0.00     0.277 HD
ENDROOT
BRANCH   1   4
HETATM    4  C12 UNL     1       5.759  16.726  21.449  1.00  0.00     0.232 C 
BRANCH   4   5
HETATM    5  C11 UNL     1       5.208  17.432  20.229  1.00  0.00     0.027 C 
BRANCH   5   6
HETATM    6  C10 UNL     1       5.975  18.655  19.845  1.00  0.00     0.002 C 
BRANCH   6   7
HETATM    7  C9  UNL     1       7.465  18.394  19.923  1.00  0.00     0.000 C 
BRANCH   7   8
HETATM    8  C8  UNL     1       8.280  19.656  19.809  1.00  0.00     0.000 C 
BRANCH   8   9
HETATM    9  C7  UNL     1       7.453  20.870  19.547  1.00  0.00     0.000 C 
BRANCH   9  10
HETATM   10  C6  UNL     1       8.213  22.154  19.564  1.00  0.00     0.000 C 
BRANCH  10  11
HETATM   11  C5  UNL     1       7.451  23.353  19.092  1.00  0.00     0.006 C 
BRANCH  11  12
HETATM   12  C4  UNL     1       8.254  24.631  19.209  1.00  0.00     0.059 C 
BRANCH  12  13
HETATM   13  C3  UNL     1       7.417  25.816  18.871  1.00  0.00     0.029 A 
HETATM   14  C2  UNL     1       6.118  25.804  18.443  1.00  0.00     0.082 A 
HETATM   15  C1  UNL     1       5.724  27.112  18.238  1.00  0.00     0.190 A 
HETATM   16  N5  UNL     1       6.807  27.861  18.553  1.00  0.00    -0.280 N 
HETATM   17  N4  UNL     1       7.804  27.107  18.925  1.00  0.00    -0.303 N 
ATOM     18  H5  UNL     1       6.839  28.879  18.506  1.00  0.00     0.188 HD
ATOM     19  H4  UNL     1       8.725  27.439  19.210  1.00  0.00     0.186 HD
BRANCH  15  20
HETATM   20  N1  UNL     1       4.462  27.591  17.795  1.00  0.00    -0.097 N 
HETATM   21  O1  UNL     1       4.224  28.807  17.857  1.00  0.00    -0.530 OA
HETATM   22  O2  UNL     1       3.528  26.738  17.311  1.00  0.00    -0.530 OA
ENDBRANCH  15  20
ENDBRANCH  12  13
ENDBRANCH  11  12
ENDBRANCH  10  11
ENDBRANCH   9  10
ENDBRANCH   8   9
ENDBRANCH   7   8
ENDBRANCH   6   7
ENDBRANCH   5   6
ENDBRANCH   4   5
ENDBRANCH   1   4
BRANCH   1  23
HETATM   23  C13 UNL     1       6.170  17.597  23.646  1.00  0.00     0.270 C 
BRANCH  23  24
HETATM   24  C14 UNL     1       6.734  18.941  23.490  1.00  0.00    -0.031 A 
HETATM   25  C15 UNL     1       8.108  19.084  23.591  1.00  0.00     0.010 A 
HETATM   26  C16 UNL     1       8.620  20.356  23.446  1.00  0.00     0.014 A 
HETATM   27  C17 UNL     1       7.803  21.440  23.212  1.00  0.00    -0.007 A 
HETATM   28  C18 UNL     1       8.065  22.781  23.035  1.00  0.00     0.044 A 
HETATM   29  C26 UNL     1       6.420  21.294  23.111  1.00  0.00     0.043 A 
HETATM   30  C19 UNL     1       6.862  23.414  22.835  1.00  0.00     0.043 A 
HETATM   31  N3  UNL     1       5.868  22.506  22.882  1.00  0.00    -0.355 N 
ATOM     32  H3  UNL     1       4.873  22.700  22.766  1.00  0.00     0.166 HD
HETATM   33  C27 UNL     1       5.917  20.017  23.257  1.00  0.00     0.039 A 
BRANCH  30  34
HETATM   34  C20 UNL     1       6.725  24.863  22.612  1.00  0.00    -0.009 A 
HETATM   35  C21 UNL     1       5.556  25.395  22.123  1.00  0.00     0.013 A 
HETATM   36  C22 UNL     1       5.423  26.745  21.912  1.00  0.00     0.001 A 
HETATM   37  C23 UNL     1       6.495  27.557  22.203  1.00  0.00     0.000 A 
HETATM   38  C24 UNL     1       7.696  27.051  22.699  1.00  0.00     0.001 A 
HETATM   39  C25 UNL     1       7.787  25.689  22.896  1.00  0.00     0.013 A 
ENDBRANCH  30  34
ENDBRANCH  23  24
ENDBRANCH   1  23
TORSDOF 14
ENDMDL
