MODEL 1
REMARK VINA RESULT: -9.110258366      0.000      0.000
REMARK  13 active torsions:
REMARK  status: ('A' for Active; 'I' for Inactive)
REMARK    1  A    between atoms: C2_2  and  C3_3 
REMARK    2  A    between atoms: C4_4  and  C5_5 
REMARK    3  A    between atoms: C5_5  and  N1_6 
REMARK    4  A    between atoms: N1_6  and  C6_7 
REMARK    5  A    between atoms: N1_6  and  C8_10 
REMARK    6  A    between atoms: C6_7  and  C7_8 
REMARK    7  A    between atoms: C8_10  and  C9_11 
REMARK    8  A    between atoms: C9_11  and  C10_12 
REMARK    9  A    between atoms: C10_12  and  C11_13 
REMARK   10  A    between atoms: C13_21  and  N4_22 
REMARK   11  A    between atoms: C16_30  and  C17_31 
REMARK   12  A    between atoms: C17_31  and  C18_32 
REMARK   13  A    between atoms: C23_40  and  N7_41 
ROOT
HETATM    1  C3  UNL     1      88.262  33.697  44.778  1.00  0.00    -0.023 A 
HETATM    2  C4  UNL     1      89.234  34.650  45.118  1.00  0.00     0.056 A 
HETATM    3  N2  UNL     1      90.081  35.045  44.170  1.00  0.00    -0.340 N 
ATOM      4  H2  UNL     1      90.789  35.739  44.412  1.00  0.00     0.167 HD
HETATM    5  C12 UNL     1      90.053  34.583  42.927  1.00  0.00     0.138 A 
HETATM    6  N3  UNL     1      90.951  35.036  42.027  1.00  0.00    -0.176 N 
ATOM      7  H3  UNL     1      91.642  35.730  42.313  1.00  0.00     0.186 HD
HETATM    8  C13 UNL     1      90.950  34.591  40.770  1.00  0.00     0.680 A 
HETATM    9  N5  UNL     1      90.031  33.679  40.429  1.00  0.00    -0.155 N 
ATOM     10  H5  UNL     1      90.020  33.328  39.471  1.00  0.00     0.187 HD
HETATM   11  C14 UNL     1      89.104  33.197  41.316  1.00  0.00     0.274 A 
HETATM   12  O3  UNL     1      88.340  32.373  40.850  1.00  0.00    -0.267 OA
HETATM   13  C15 UNL     1      89.097  33.642  42.587  1.00  0.00     0.084 A 
HETATM   14  C16 UNL     1      88.153  33.151  43.501  1.00  0.00    -0.026 A 
ENDROOT
BRANCH  14  15
HETATM   15  C17 UNL     1      87.161  32.151  43.164  1.00  0.00     0.078 C 
BRANCH  15  16
HETATM   16  C18 UNL     1      85.897  32.571  42.540  1.00  0.00    -0.052 A 
HETATM   17  C19 UNL     1      85.492  33.881  42.658  1.00  0.00     0.008 A 
HETATM   18  C20 UNL     1      84.332  34.354  42.090  1.00  0.00     0.020 A 
HETATM   19  C21 UNL     1      83.530  33.506  41.370  1.00  0.00     0.060 A 
HETATM   20  C22 UNL     1      82.344  33.954  40.779  1.00  0.00     0.272 A 
HETATM   21  C24 UNL     1      83.927  32.200  41.249  1.00  0.00     0.065 A 
HETATM   22  O4  UNL     1      82.057  35.163  40.940  1.00  0.00    -0.267 OA
HETATM   23  N6  UNL     1      81.572  33.107  40.078  1.00  0.00    -0.156 N 
HETATM   24  C23 UNL     1      81.977  31.832  39.968  1.00  0.00     0.679 A 
ATOM     25  H6  UNL     1      80.706  33.424  39.642  1.00  0.00     0.187 HD
HETATM   26  N8  UNL     1      83.109  31.373  40.524  1.00  0.00    -0.191 N 
ATOM     27  H8  UNL     1      83.364  30.393  40.405  1.00  0.00     0.184 HD
HETATM   28  C25 UNL     1      85.082  31.733  41.816  1.00  0.00     0.038 A 
BRANCH  24  29
HETATM   29  N7  UNL     1      81.208  31.040  39.283  1.00  0.00    -0.234 N 
ATOM     30  H72 UNL     1      80.435  30.550  39.733  1.00  0.00     0.174 HD
ATOM     31  H71 UNL     1      81.427  30.944  38.292  1.00  0.00     0.174 HD
ENDBRANCH  24  29
ENDBRANCH  15  16
ENDBRANCH  14  15
BRANCH   1  32
HETATM   32  C2  UNL     1      87.344  33.327  45.849  1.00  0.00     0.037 C 
HETATM   33  C1  UNL     1      87.757  31.975  46.403  1.00  0.00     0.010 C 
ENDBRANCH   1  32
BRANCH   2  34
HETATM   34  C5  UNL     1      89.382  35.187  46.491  1.00  0.00     0.120 C 
BRANCH  34  35
HETATM   35  N1  UNL     1      90.517  34.731  47.175  1.00  0.00    -0.367 N 
BRANCH  35  36
HETATM   36  C6  UNL     1      90.446  33.849  48.245  1.00  0.00     0.074 C 
BRANCH  36  37
HETATM   37  C7  UNL     1      89.139  33.893  49.024  1.00  0.00     0.130 C 
HETATM   38  S1  UNL     1      89.475  32.993  50.589  1.00  0.00    -0.092 SA
ENDBRANCH  36  37
ENDBRANCH  35  36
BRANCH  35  39
HETATM   39  C8  UNL     1      91.795  35.215  46.783  1.00  0.00     0.128 C 
BRANCH  39  40
HETATM   40  C9  UNL     1      91.823  36.660  46.425  1.00  0.00     0.031 C 
BRANCH  40  41
HETATM   41  C10 UNL     1      93.008  37.022  45.599  1.00  0.00     0.114 C 
BRANCH  41  42
HETATM   42  C11 UNL     1      92.801  36.852  44.151  1.00  0.00     0.172 C 
HETATM   43  O1  UNL     1      91.940  37.454  43.487  1.00  0.00    -0.648 OA
HETATM   44  O2  UNL     1      93.652  35.932  43.484  1.00  0.00    -0.648 OA
ENDBRANCH  41  42
ENDBRANCH  40  41
ENDBRANCH  39  40
ENDBRANCH  35  39
ENDBRANCH  34  35
ENDBRANCH   2  34
BRANCH   8  45
HETATM   45  N4  UNL     1      91.807  35.014  39.883  1.00  0.00    -0.234 N 
ATOM     46  H42 UNL     1      92.298  35.895  40.031  1.00  0.00     0.174 HD
ATOM     47  H41 UNL     1      92.011  34.491  39.031  1.00  0.00     0.174 HD
ENDBRANCH   8  45
TORSDOF 13
ENDMDL
MODEL 2
REMARK VINA RESULT: -8.879228633      2.826      4.616
REMARK  13 active torsions:
REMARK  status: ('A' for Active; 'I' for Inactive)
REMARK    1  A    between atoms: C2_2  and  C3_3 
REMARK    2  A    between atoms: C4_4  and  C5_5 
REMARK    3  A    between atoms: C5_5  and  N1_6 
REMARK    4  A    between atoms: N1_6  and  C6_7 
REMARK    5  A    between atoms: N1_6  and  C8_10 
REMARK    6  A    between atoms: C6_7  and  C7_8 
REMARK    7  A    between atoms: C8_10  and  C9_11 
REMARK    8  A    between atoms: C9_11  and  C10_12 
REMARK    9  A    between atoms: C10_12  and  C11_13 
REMARK   10  A    between atoms: C13_21  and  N4_22 
REMARK   11  A    between atoms: C16_30  and  C17_31 
REMARK   12  A    between atoms: C17_31  and  C18_32 
REMARK   13  A    between atoms: C23_40  and  N7_41 
ROOT
HETATM    1  C3  UNL     1      89.168  32.694  44.207  1.00  0.00    -0.023 A 
HETATM    2  C4  UNL     1      90.076  33.493  44.918  1.00  0.00     0.056 A 
HETATM    3  N2  UNL     1      89.787  33.795  46.183  1.00  0.00    -0.340 N 
ATOM      4  H2  UNL     1      90.445  34.374  46.705  1.00  0.00     0.167 HD
HETATM    5  C12 UNL     1      88.688  33.381  46.799  1.00  0.00     0.138 A 
HETATM    6  N3  UNL     1      88.471  33.734  48.083  1.00  0.00    -0.176 N 
ATOM      7  H3  UNL     1      89.155  34.315  48.567  1.00  0.00     0.186 HD
HETATM    8  C13 UNL     1      87.375  33.335  48.731  1.00  0.00     0.680 A 
HETATM    9  N5  UNL     1      86.496  32.574  48.066  1.00  0.00    -0.155 N 
ATOM     10  H5  UNL     1      85.653  32.264  48.548  1.00  0.00     0.187 HD
HETATM   11  C14 UNL     1      86.685  32.197  46.762  1.00  0.00     0.274 A 
HETATM   12  O3  UNL     1      85.794  31.506  46.303  1.00  0.00    -0.267 OA
HETATM   13  C15 UNL     1      87.788  32.593  46.101  1.00  0.00     0.084 A 
HETATM   14  C16 UNL     1      87.987  32.213  44.765  1.00  0.00    -0.026 A 
ENDROOT
BRANCH  14  15
HETATM   15  C17 UNL     1      87.044  31.406  44.017  1.00  0.00     0.078 C 
BRANCH  15  16
HETATM   16  C18 UNL     1      86.038  32.069  43.176  1.00  0.00    -0.052 A 
HETATM   17  C19 UNL     1      85.986  33.444  43.146  1.00  0.00     0.008 A 
HETATM   18  C20 UNL     1      85.085  34.137  42.372  1.00  0.00     0.020 A 
HETATM   19  C21 UNL     1      84.191  33.453  41.588  1.00  0.00     0.060 A 
HETATM   20  C22 UNL     1      83.261  34.127  40.788  1.00  0.00     0.272 A 
HETATM   21  C24 UNL     1      84.237  32.084  41.613  1.00  0.00     0.065 A 
HETATM   22  O4  UNL     1      83.290  35.379  40.827  1.00  0.00    -0.267 OA
HETATM   23  N6  UNL     1      82.395  33.439  40.027  1.00  0.00    -0.156 N 
HETATM   24  C23 UNL     1      82.454  32.098  40.064  1.00  0.00     0.679 A 
ATOM     25  H6  UNL     1      81.713  33.920  39.440  1.00  0.00     0.187 HD
HETATM   26  N8  UNL     1      83.334  31.424  40.820  1.00  0.00    -0.191 N 
ATOM     27  H8  UNL     1      83.331  30.405  40.805  1.00  0.00     0.184 HD
HETATM   28  C25 UNL     1      85.135  31.398  42.385  1.00  0.00     0.038 A 
BRANCH  24  29
HETATM   29  N7  UNL     1      81.602  31.463  39.316  1.00  0.00    -0.234 N 
ATOM     30  H72 UNL     1      80.868  31.969  38.820  1.00  0.00     0.174 HD
ATOM     31  H71 UNL     1      81.715  30.451  39.261  1.00  0.00     0.174 HD
ENDBRANCH  24  29
ENDBRANCH  15  16
ENDBRANCH  14  15
BRANCH   1  32
HETATM   32  C2  UNL     1      89.554  32.373  42.839  1.00  0.00     0.037 C 
HETATM   33  C1  UNL     1      90.105  30.958  42.803  1.00  0.00     0.010 C 
ENDBRANCH   1  32
BRANCH   2  34
HETATM   34  C5  UNL     1      91.305  34.049  44.304  1.00  0.00     0.120 C 
BRANCH  34  35
HETATM   35  N1  UNL     1      91.117  35.256  43.617  1.00  0.00    -0.367 N 
BRANCH  35  36
HETATM   36  C6  UNL     1      91.928  35.653  42.561  1.00  0.00     0.074 C 
BRANCH  36  37
HETATM   37  C7  UNL     1      91.569  35.040  41.215  1.00  0.00     0.130 C 
HETATM   38  S1  UNL     1      93.174  34.589  40.445  1.00  0.00    -0.092 SA
ENDBRANCH  36  37
ENDBRANCH  35  36
BRANCH  35  39
HETATM   39  C8  UNL     1      90.076  36.129  44.035  1.00  0.00     0.128 C 
BRANCH  39  40
HETATM   40  C9  UNL     1      90.535  37.485  44.441  1.00  0.00     0.031 C 
BRANCH  40  41
HETATM   41  C10 UNL     1      91.290  37.474  45.724  1.00  0.00     0.114 C 
BRANCH  41  42
HETATM   42  C11 UNL     1      90.468  37.140  46.899  1.00  0.00     0.172 C 
HETATM   43  O1  UNL     1      89.476  37.790  47.272  1.00  0.00    -0.648 OA
HETATM   44  O2  UNL     1      90.848  35.994  47.644  1.00  0.00    -0.648 OA
ENDBRANCH  41  42
ENDBRANCH  40  41
ENDBRANCH  39  40
ENDBRANCH  35  39
ENDBRANCH  34  35
ENDBRANCH   2  34
BRANCH   8  45
HETATM   45  N4  UNL     1      87.143  33.663  49.971  1.00  0.00    -0.234 N 
ATOM     46  H42 UNL     1      86.356  34.269  50.199  1.00  0.00     0.174 HD
ATOM     47  H41 UNL     1      87.729  33.333  50.739  1.00  0.00     0.174 HD
ENDBRANCH   8  45
TORSDOF 13
ENDMDL
MODEL 3
REMARK VINA RESULT: -8.702498590      2.926      4.901
REMARK  13 active torsions:
REMARK  status: ('A' for Active; 'I' for Inactive)
REMARK    1  A    between atoms: C2_2  and  C3_3 
REMARK    2  A    between atoms: C4_4  and  C5_5 
REMARK    3  A    between atoms: C5_5  and  N1_6 
REMARK    4  A    between atoms: N1_6  and  C6_7 
REMARK    5  A    between atoms: N1_6  and  C8_10 
REMARK    6  A    between atoms: C6_7  and  C7_8 
REMARK    7  A    between atoms: C8_10  and  C9_11 
REMARK    8  A    between atoms: C9_11  and  C10_12 
REMARK    9  A    between atoms: C10_12  and  C11_13 
REMARK   10  A    between atoms: C13_21  and  N4_22 
REMARK   11  A    between atoms: C16_30  and  C17_31 
REMARK   12  A    between atoms: C17_31  and  C18_32 
REMARK   13  A    between atoms: C23_40  and  N7_41 
ROOT
HETATM    1  C3  UNL     1      88.599  32.998  44.061  1.00  0.00    -0.023 A 
HETATM    2  C4  UNL     1      89.638  33.688  44.704  1.00  0.00     0.056 A 
HETATM    3  N2  UNL     1      89.517  33.926  46.009  1.00  0.00    -0.340 N 
ATOM      4  H2  UNL     1      90.271  34.425  46.482  1.00  0.00     0.167 HD
HETATM    5  C12 UNL     1      88.468  33.548  46.726  1.00  0.00     0.138 A 
HETATM    6  N3  UNL     1      88.425  33.831  48.045  1.00  0.00    -0.176 N 
ATOM      7  H3  UNL     1      89.200  34.333  48.476  1.00  0.00     0.186 HD
HETATM    8  C13 UNL     1      87.383  33.466  48.793  1.00  0.00     0.680 A 
HETATM    9  N5  UNL     1      86.380  32.810  48.195  1.00  0.00    -0.155 N 
ATOM     10  H5  UNL     1      85.577  32.526  48.755  1.00  0.00     0.187 HD
HETATM   11  C14 UNL     1      86.391  32.505  46.859  1.00  0.00     0.274 A 
HETATM   12  O3  UNL     1      85.406  31.906  46.470  1.00  0.00    -0.267 OA
HETATM   13  C15 UNL     1      87.439  32.869  46.096  1.00  0.00     0.084 A 
HETATM   14  C16 UNL     1      87.456  32.562  44.727  1.00  0.00    -0.026 A 
ENDROOT
BRANCH  14  15
HETATM   15  C17 UNL     1      86.378  31.871  44.051  1.00  0.00     0.078 C 
BRANCH  15  16
HETATM   16  C18 UNL     1      85.573  32.591  43.053  1.00  0.00    -0.052 A 
HETATM   17  C19 UNL     1      85.762  32.323  41.717  1.00  0.00     0.008 A 
HETATM   18  C20 UNL     1      85.037  32.942  40.726  1.00  0.00     0.020 A 
HETATM   19  C21 UNL     1      84.081  33.869  41.056  1.00  0.00     0.060 A 
HETATM   20  C22 UNL     1      83.326  34.517  40.073  1.00  0.00     0.272 A 
HETATM   21  C24 UNL     1      83.888  34.140  42.386  1.00  0.00     0.065 A 
HETATM   22  O4  UNL     1      83.569  34.208  38.883  1.00  0.00    -0.267 OA
HETATM   23  N6  UNL     1      82.394  35.420  40.418  1.00  0.00    -0.156 N 
HETATM   24  C23 UNL     1      82.218  35.674  41.724  1.00  0.00     0.679 A 
ATOM     25  H6  UNL     1      81.838  35.899  39.709  1.00  0.00     0.187 HD
HETATM   26  N8  UNL     1      82.926  35.068  42.690  1.00  0.00    -0.191 N 
ATOM     27  H8  UNL     1      82.746  35.302  43.666  1.00  0.00     0.184 HD
HETATM   28  C25 UNL     1      84.611  33.522  43.369  1.00  0.00     0.038 A 
BRANCH  24  29
HETATM   29  N7  UNL     1      81.308  36.552  42.023  1.00  0.00    -0.234 N 
ATOM     30  H72 UNL     1      80.849  37.094  41.291  1.00  0.00     0.174 HD
ATOM     31  H71 UNL     1      81.093  36.660  43.014  1.00  0.00     0.174 HD
ENDBRANCH  24  29
ENDBRANCH  15  16
ENDBRANCH  14  15
BRANCH   1  32
HETATM   32  C2  UNL     1      88.802  32.741  42.641  1.00  0.00     0.037 C 
HETATM   33  C1  UNL     1      89.304  31.319  42.467  1.00  0.00     0.010 C 
ENDBRANCH   1  32
BRANCH   2  34
HETATM   34  C5  UNL     1      90.827  34.199  43.982  1.00  0.00     0.120 C 
BRANCH  34  35
HETATM   35  N1  UNL     1      90.575  35.300  43.152  1.00  0.00    -0.367 N 
BRANCH  35  36
HETATM   36  C6  UNL     1      91.006  35.360  41.833  1.00  0.00     0.074 C 
BRANCH  36  37
HETATM   37  C7  UNL     1      92.370  34.736  41.577  1.00  0.00     0.130 C 
HETATM   38  S1  UNL     1      93.557  36.137  41.602  1.00  0.00    -0.092 SA
ENDBRANCH  36  37
ENDBRANCH  35  36
BRANCH  35  39
HETATM   39  C8  UNL     1      89.878  36.418  43.687  1.00  0.00     0.128 C 
BRANCH  39  40
HETATM   40  C9  UNL     1      90.757  37.500  44.207  1.00  0.00     0.031 C 
BRANCH  40  41
HETATM   41  C10 UNL     1      90.370  37.946  45.574  1.00  0.00     0.114 C 
BRANCH  41  42
HETATM   42  C11 UNL     1      90.817  37.040  46.646  1.00  0.00     0.172 C 
HETATM   43  O1  UNL     1      91.979  36.618  46.772  1.00  0.00    -0.648 OA
HETATM   44  O2  UNL     1      89.840  36.631  47.590  1.00  0.00    -0.648 OA
ENDBRANCH  41  42
ENDBRANCH  40  41
ENDBRANCH  39  40
ENDBRANCH  35  39
ENDBRANCH  34  35
ENDBRANCH   2  34
BRANCH   8  45
HETATM   45  N4  UNL     1      87.319  33.728  50.069  1.00  0.00    -0.234 N 
ATOM     46  H42 UNL     1      87.017  34.649  50.384  1.00  0.00     0.174 HD
ATOM     47  H41 UNL     1      87.563  33.037  50.779  1.00  0.00     0.174 HD
ENDBRANCH   8  45
TORSDOF 13
ENDMDL
MODEL 4
REMARK VINA RESULT: -8.681900036      2.869      4.304
REMARK  13 active torsions:
REMARK  status: ('A' for Active; 'I' for Inactive)
REMARK    1  A    between atoms: C2_2  and  C3_3 
REMARK    2  A    between atoms: C4_4  and  C5_5 
REMARK    3  A    between atoms: C5_5  and  N1_6 
REMARK    4  A    between atoms: N1_6  and  C6_7 
REMARK    5  A    between atoms: N1_6  and  C8_10 
REMARK    6  A    between atoms: C6_7  and  C7_8 
REMARK    7  A    between atoms: C8_10  and  C9_11 
REMARK    8  A    between atoms: C9_11  and  C10_12 
REMARK    9  A    between atoms: C10_12  and  C11_13 
REMARK   10  A    between atoms: C13_21  and  N4_22 
REMARK   11  A    between atoms: C16_30  and  C17_31 
REMARK   12  A    between atoms: C17_31  and  C18_32 
REMARK   13  A    between atoms: C23_40  and  N7_41 
ROOT
HETATM    1  C3  UNL     1      87.852  32.787  46.144  1.00  0.00    -0.023 A 
HETATM    2  C4  UNL     1      88.334  33.121  47.418  1.00  0.00     0.056 A 
HETATM    3  N2  UNL     1      89.161  34.160  47.522  1.00  0.00    -0.340 N 
ATOM      4  H2  UNL     1      89.513  34.409  48.447  1.00  0.00     0.167 HD
HETATM    5  C12 UNL     1      89.551  34.888  46.485  1.00  0.00     0.138 A 
HETATM    6  N3  UNL     1      90.394  35.925  46.678  1.00  0.00    -0.176 N 
ATOM      7  H3  UNL     1      90.721  36.138  47.620  1.00  0.00     0.186 HD
HETATM    8  C13 UNL     1      90.806  36.676  45.655  1.00  0.00     0.680 A 
HETATM    9  N5  UNL     1      90.358  36.369  44.431  1.00  0.00    -0.155 N 
ATOM     10  H5  UNL     1      90.666  36.934  43.640  1.00  0.00     0.187 HD
HETATM   11  C14 UNL     1      89.502  35.324  44.199  1.00  0.00     0.274 A 
HETATM   12  O3  UNL     1      89.189  35.178  43.032  1.00  0.00    -0.267 OA
HETATM   13  C15 UNL     1      89.080  34.562  45.225  1.00  0.00     0.084 A 
HETATM   14  C16 UNL     1      88.205  33.489  44.995  1.00  0.00    -0.026 A 
ENDROOT
BRANCH  14  15
HETATM   15  C17 UNL     1      87.721  33.124  43.679  1.00  0.00     0.078 C 
BRANCH  15  16
HETATM   16  C18 UNL     1      86.370  33.535  43.268  1.00  0.00    -0.052 A 
HETATM   17  C19 UNL     1      85.375  33.616  44.214  1.00  0.00     0.008 A 
HETATM   18  C20 UNL     1      84.092  34.009  43.912  1.00  0.00     0.020 A 
HETATM   19  C21 UNL     1      83.766  34.338  42.621  1.00  0.00     0.060 A 
HETATM   20  C22 UNL     1      82.470  34.741  42.279  1.00  0.00     0.272 A 
HETATM   21  C24 UNL     1      84.753  34.258  41.673  1.00  0.00     0.065 A 
HETATM   22  O4  UNL     1      81.631  34.785  43.208  1.00  0.00    -0.267 OA
HETATM   23  N6  UNL     1      82.172  35.059  41.009  1.00  0.00    -0.156 N 
HETATM   24  C23 UNL     1      83.150  34.976  40.093  1.00  0.00     0.679 A 
ATOM     25  H6  UNL     1      81.231  35.355  40.748  1.00  0.00     0.187 HD
HETATM   26  N8  UNL     1      84.401  34.593  40.391  1.00  0.00    -0.191 N 
ATOM     27  H8  UNL     1      85.102  34.550  39.652  1.00  0.00     0.184 HD
HETATM   28  C25 UNL     1      86.028  33.867  41.978  1.00  0.00     0.038 A 
BRANCH  24  29
HETATM   29  N7  UNL     1      82.828  35.291  38.874  1.00  0.00    -0.234 N 
ATOM     30  H72 UNL     1      82.079  35.960  38.692  1.00  0.00     0.174 HD
ATOM     31  H71 UNL     1      83.360  34.836  38.133  1.00  0.00     0.174 HD
ENDBRANCH  24  29
ENDBRANCH  15  16
ENDBRANCH  14  15
BRANCH   1  32
HETATM   32  C2  UNL     1      86.928  31.661  46.099  1.00  0.00     0.037 C 
HETATM   33  C1  UNL     1      87.661  30.445  45.560  1.00  0.00     0.010 C 
ENDBRANCH   1  32
BRANCH   2  34
HETATM   34  C5  UNL     1      88.000  32.338  48.632  1.00  0.00     0.120 C 
BRANCH  34  35
HETATM   35  N1  UNL     1      87.259  33.039  49.591  1.00  0.00    -0.367 N 
BRANCH  35  36
HETATM   36  C6  UNL     1      85.939  33.422  49.390  1.00  0.00     0.074 C 
BRANCH  36  37
HETATM   37  C7  UNL     1      84.915  32.630  50.191  1.00  0.00     0.130 C 
HETATM   38  S1  UNL     1      84.271  31.358  49.034  1.00  0.00    -0.092 SA
ENDBRANCH  36  37
ENDBRANCH  35  36
BRANCH  35  39
HETATM   39  C8  UNL     1      87.889  33.407  50.812  1.00  0.00     0.128 C 
BRANCH  39  40
HETATM   40  C9  UNL     1      88.943  32.461  51.270  1.00  0.00     0.031 C 
BRANCH  40  41
HETATM   41  C10 UNL     1      90.259  33.126  51.478  1.00  0.00     0.114 C 
BRANCH  41  42
HETATM   42  C11 UNL     1      91.235  32.868  50.405  1.00  0.00     0.172 C 
HETATM   43  O1  UNL     1      91.329  33.540  49.363  1.00  0.00    -0.648 OA
HETATM   44  O2  UNL     1      92.119  31.774  50.590  1.00  0.00    -0.648 OA
ENDBRANCH  41  42
ENDBRANCH  40  41
ENDBRANCH  39  40
ENDBRANCH  35  39
ENDBRANCH  34  35
ENDBRANCH   2  34
BRANCH   8  45
HETATM   45  N4  UNL     1      91.619  37.683  45.817  1.00  0.00    -0.234 N 
ATOM     46  H42 UNL     1      92.137  38.051  45.020  1.00  0.00     0.174 HD
ATOM     47  H41 UNL     1      91.761  38.126  46.725  1.00  0.00     0.174 HD
ENDBRANCH   8  45
TORSDOF 13
ENDMDL
MODEL 5
REMARK VINA RESULT: -8.616704513      4.290      6.621
REMARK  13 active torsions:
REMARK  status: ('A' for Active; 'I' for Inactive)
REMARK    1  A    between atoms: C2_2  and  C3_3 
REMARK    2  A    between atoms: C4_4  and  C5_5 
REMARK    3  A    between atoms: C5_5  and  N1_6 
REMARK    4  A    between atoms: N1_6  and  C6_7 
REMARK    5  A    between atoms: N1_6  and  C8_10 
REMARK    6  A    between atoms: C6_7  and  C7_8 
REMARK    7  A    between atoms: C8_10  and  C9_11 
REMARK    8  A    between atoms: C9_11  and  C10_12 
REMARK    9  A    between atoms: C10_12  and  C11_13 
REMARK   10  A    between atoms: C13_21  and  N4_22 
REMARK   11  A    between atoms: C16_30  and  C17_31 
REMARK   12  A    between atoms: C17_31  and  C18_32 
REMARK   13  A    between atoms: C23_40  and  N7_41 
ROOT
HETATM    1  C3  UNL     1      88.569  33.194  43.174  1.00  0.00    -0.023 A 
HETATM    2  C4  UNL     1      89.773  33.495  42.520  1.00  0.00     0.056 A 
HETATM    3  N2  UNL     1      90.730  32.569  42.512  1.00  0.00    -0.340 N 
ATOM      4  H2  UNL     1      91.607  32.782  42.036  1.00  0.00     0.167 HD
HETATM    5  C12 UNL     1      90.603  31.383  43.092  1.00  0.00     0.138 A 
HETATM    6  N3  UNL     1      91.624  30.502  43.038  1.00  0.00    -0.176 N 
ATOM      7  H3  UNL     1      92.483  30.757  42.552  1.00  0.00     0.186 HD
HETATM    8  C13 UNL     1      91.527  29.301  43.612  1.00  0.00     0.680 A 
HETATM    9  N5  UNL     1      90.386  28.998  44.243  1.00  0.00    -0.155 N 
ATOM     10  H5  UNL     1      90.299  28.085  44.688  1.00  0.00     0.187 HD
HETATM   11  C14 UNL     1      89.329  29.868  44.317  1.00  0.00     0.274 A 
HETATM   12  O3  UNL     1      88.366  29.442  44.926  1.00  0.00    -0.267 OA
HETATM   13  C15 UNL     1      89.418  31.081  43.740  1.00  0.00     0.084 A 
HETATM   14  C16 UNL     1      88.341  31.978  43.813  1.00  0.00    -0.026 A 
ENDROOT
BRANCH  14  15
HETATM   15  C17 UNL     1      87.103  31.683  44.506  1.00  0.00     0.078 C 
BRANCH  15  16
HETATM   16  C18 UNL     1      86.922  32.149  45.888  1.00  0.00    -0.052 A 
HETATM   17  C19 UNL     1      85.649  32.363  46.365  1.00  0.00     0.008 A 
HETATM   18  C20 UNL     1      85.397  32.783  47.650  1.00  0.00     0.020 A 
HETATM   19  C21 UNL     1      86.441  33.004  48.512  1.00  0.00     0.060 A 
HETATM   20  C22 UNL     1      86.220  33.431  49.826  1.00  0.00     0.272 A 
HETATM   21  C24 UNL     1      87.712  32.794  48.043  1.00  0.00     0.065 A 
HETATM   22  O4  UNL     1      85.027  33.599  50.170  1.00  0.00    -0.267 OA
HETATM   23  N6  UNL     1      87.256  33.642  50.654  1.00  0.00    -0.156 N 
HETATM   24  C23 UNL     1      88.494  33.430  50.179  1.00  0.00     0.679 A 
ATOM     25  H6  UNL     1      87.107  33.953  51.614  1.00  0.00     0.187 HD
HETATM   26  N8  UNL     1      88.737  33.021  48.925  1.00  0.00    -0.191 N 
ATOM     27  H8  UNL     1      89.699  32.876  48.622  1.00  0.00     0.184 HD
HETATM   28  C25 UNL     1      87.958  32.376  46.764  1.00  0.00     0.038 A 
BRANCH  24  29
HETATM   29  N7  UNL     1      89.473  33.643  51.007  1.00  0.00    -0.234 N 
ATOM     30  H72 UNL     1      89.287  33.862  51.986  1.00  0.00     0.174 HD
ATOM     31  H71 UNL     1      90.414  33.579  50.620  1.00  0.00     0.174 HD
ENDBRANCH  24  29
ENDBRANCH  15  16
ENDBRANCH  14  15
BRANCH   1  32
HETATM   32  C2  UNL     1      87.550  34.235  43.122  1.00  0.00     0.037 C 
HETATM   33  C1  UNL     1      86.599  33.933  41.979  1.00  0.00     0.010 C 
ENDBRANCH   1  32
BRANCH   2  34
HETATM   34  C5  UNL     1      90.035  34.811  41.889  1.00  0.00     0.120 C 
BRANCH  34  35
HETATM   35  N1  UNL     1      90.854  35.664  42.640  1.00  0.00    -0.367 N 
BRANCH  35  36
HETATM   36  C6  UNL     1      92.223  35.473  42.765  1.00  0.00     0.074 C 
BRANCH  36  37
HETATM   37  C7  UNL     1      93.051  36.003  41.603  1.00  0.00     0.130 C 
HETATM   38  S1  UNL     1      93.296  34.565  40.487  1.00  0.00    -0.092 SA
ENDBRANCH  36  37
ENDBRANCH  35  36
BRANCH  35  39
HETATM   39  C8  UNL     1      90.257  36.754  43.332  1.00  0.00     0.128 C 
BRANCH  39  40
HETATM   40  C9  UNL     1      90.692  36.897  44.748  1.00  0.00     0.031 C 
BRANCH  40  41
HETATM   41  C10 UNL     1      90.027  35.919  45.652  1.00  0.00     0.114 C 
BRANCH  41  42
HETATM   42  C11 UNL     1      90.150  36.248  47.082  1.00  0.00     0.172 C 
HETATM   43  O1  UNL     1      89.960  37.379  47.563  1.00  0.00    -0.648 OA
HETATM   44  O2  UNL     1      90.511  35.191  47.957  1.00  0.00    -0.648 OA
ENDBRANCH  41  42
ENDBRANCH  40  41
ENDBRANCH  39  40
ENDBRANCH  35  39
ENDBRANCH  34  35
ENDBRANCH   2  34
BRANCH   8  45
HETATM   45  N4  UNL     1      92.500  28.433  43.573  1.00  0.00    -0.234 N 
ATOM     46  H42 UNL     1      92.910  28.091  44.441  1.00  0.00     0.174 HD
ATOM     47  H41 UNL     1      92.874  28.075  42.694  1.00  0.00     0.174 HD
ENDBRANCH   8  45
TORSDOF 13
ENDMDL
