MODEL 1
REMARK VINA RESULT: -5.776253086      0.000      0.000
REMARK  0 active torsions:
REMARK  status: ('A' for Active; 'I' for Inactive)
ROOT
HETATM    1  N1  UNL     1      28.913  64.020  10.728  1.00  0.00    -0.113 NA
HETATM    2  C1  UNL     1      29.122  65.022   9.764  1.00  0.00     0.135 C 
HETATM    3  C2  UNL     1      30.356  65.371   9.480  1.00  0.00     0.117 A 
HETATM    4  N2  UNL     1      31.544  64.860  10.028  1.00  0.00    -0.293 N 
ATOM      5  H2  UNL     1      31.587  64.130  10.739  1.00  0.00     0.187 HD
HETATM    6  N3  UNL     1      32.661  65.492   9.465  1.00  0.00    -0.263 N 
ATOM      7  H3  UNL     1      33.632  65.289   9.705  1.00  0.00     0.190 HD
HETATM    8  C3  UNL     1      32.237  66.459   8.507  1.00  0.00     0.312 A 
HETATM    9  O1  UNL     1      32.951  67.217   7.803  1.00  0.00    -0.262 OA
HETATM   10  C4  UNL     1      30.786  66.392   8.507  1.00  0.00     0.269 A 
HETATM   11  O2  UNL     1      29.997  67.066   7.818  1.00  0.00    -0.280 OA
ENDROOT
TORSDOF 0
ENDMDL
MODEL 2
REMARK VINA RESULT: -5.437492175      1.024      1.042
REMARK  0 active torsions:
REMARK  status: ('A' for Active; 'I' for Inactive)
ROOT
HETATM    1  N1  UNL     1      29.347  64.026  11.358  1.00  0.00    -0.113 NA
HETATM    2  C1  UNL     1      29.040  64.705  10.165  1.00  0.00     0.135 C 
HETATM    3  C2  UNL     1      30.019  65.268   9.494  1.00  0.00     0.117 A 
HETATM    4  N2  UNL     1      31.385  65.286   9.816  1.00  0.00    -0.293 N 
ATOM      5  H2  UNL     1      31.792  64.847  10.641  1.00  0.00     0.187 HD
HETATM    6  N3  UNL     1      32.113  65.991   8.848  1.00  0.00    -0.263 N 
ATOM      7  H3  UNL     1      33.122  66.139   8.866  1.00  0.00     0.190 HD
HETATM    8  C3  UNL     1      31.231  66.470   7.834  1.00  0.00     0.312 A 
HETATM    9  O1  UNL     1      31.519  67.139   6.810  1.00  0.00    -0.262 OA
HETATM   10  C4  UNL     1      29.908  66.020   8.230  1.00  0.00     0.269 A 
HETATM   11  O2  UNL     1      28.832  66.215   7.633  1.00  0.00    -0.280 OA
ENDROOT
TORSDOF 0
ENDMDL
MODEL 3
REMARK VINA RESULT: -5.283838594      2.593      2.629
REMARK  0 active torsions:
REMARK  status: ('A' for Active; 'I' for Inactive)
ROOT
HETATM    1  N1  UNL     1      27.430  66.040   7.523  1.00  0.00    -0.113 NA
HETATM    2  C1  UNL     1      28.547  66.102   8.375  1.00  0.00     0.135 C 
HETATM    3  C2  UNL     1      29.719  66.387   7.855  1.00  0.00     0.117 A 
HETATM    4  N2  UNL     1      30.022  66.649   6.509  1.00  0.00    -0.293 N 
ATOM      5  H2  UNL     1      29.341  66.649   5.750  1.00  0.00     0.187 HD
HETATM    6  N3  UNL     1      31.390  66.911   6.352  1.00  0.00    -0.263 N 
ATOM      7  H3  UNL     1      31.847  67.128   5.466  1.00  0.00     0.190 HD
HETATM    8  C3  UNL     1      32.046  66.829   7.616  1.00  0.00     0.312 A 
HETATM    9  O1  UNL     1      33.265  67.002   7.868  1.00  0.00    -0.262 OA
HETATM   10  C4  UNL     1      31.003  66.499   8.571  1.00  0.00     0.269 A 
HETATM   11  O2  UNL     1      31.127  66.330   9.799  1.00  0.00    -0.280 OA
ENDROOT
TORSDOF 0
ENDMDL
MODEL 4
REMARK VINA RESULT: -5.210115380      2.296      3.456
REMARK  0 active torsions:
REMARK  status: ('A' for Active; 'I' for Inactive)
ROOT
HETATM    1  N1  UNL     1      31.450  67.179   6.441  1.00  0.00    -0.113 NA
HETATM    2  C1  UNL     1      30.275  66.799   7.112  1.00  0.00     0.135 C 
HETATM    3  C2  UNL     1      30.380  66.067   8.198  1.00  0.00     0.117 A 
HETATM    4  N2  UNL     1      31.554  65.594   8.806  1.00  0.00    -0.293 N 
ATOM      5  H2  UNL     1      32.497  65.770   8.462  1.00  0.00     0.187 HD
HETATM    6  N3  UNL     1      31.250  64.846   9.952  1.00  0.00    -0.263 N 
ATOM      7  H3  UNL     1      31.938  64.401  10.560  1.00  0.00     0.190 HD
HETATM    8  C3  UNL     1      29.837  64.802  10.140  1.00  0.00     0.312 A 
HETATM    9  O1  UNL     1      29.195  64.228  11.055  1.00  0.00    -0.262 OA
HETATM   10  C4  UNL     1      29.278  65.568   9.040  1.00  0.00     0.269 A 
HETATM   11  O2  UNL     1      28.074  65.791   8.808  1.00  0.00    -0.280 OA
ENDROOT
TORSDOF 0
ENDMDL
MODEL 5
REMARK VINA RESULT: -5.143861715      1.810      3.498
REMARK  0 active torsions:
REMARK  status: ('A' for Active; 'I' for Inactive)
ROOT
HETATM    1  N1  UNL     1      32.938  66.833   7.922  1.00  0.00    -0.113 NA
HETATM    2  C1  UNL     1      31.547  66.721   7.751  1.00  0.00     0.135 C 
HETATM    3  C2  UNL     1      30.864  66.003   8.614  1.00  0.00     0.117 A 
HETATM    4  N2  UNL     1      31.352  65.304   9.729  1.00  0.00    -0.293 N 
ATOM      5  H2  UNL     1      32.331  65.271  10.010  1.00  0.00     0.187 HD
HETATM    6  N3  UNL     1      30.308  64.657  10.404  1.00  0.00    -0.263 N 
ATOM      7  H3  UNL     1      30.416  64.088  11.243  1.00  0.00     0.190 HD
HETATM    8  C3  UNL     1      29.071  64.916   9.741  1.00  0.00     0.312 A 
HETATM    9  O1  UNL     1      27.924  64.506  10.053  1.00  0.00    -0.262 OA
HETATM   10  C4  UNL     1      29.409  65.763   8.611  1.00  0.00     0.269 A 
HETATM   11  O2  UNL     1      28.633  66.231   7.757  1.00  0.00    -0.280 OA
ENDROOT
TORSDOF 0
ENDMDL
