MODEL 1
REMARK VINA RESULT: -6.756597248      0.000      0.000
REMARK  1 active torsions:
REMARK  status: ('A' for Active; 'I' for Inactive)
REMARK    1  A    between atoms: N1_1  and  C1_4 
ROOT
HETATM    1  C1  UNL     1      32.433  66.378   8.428  1.00  0.00     0.183 A 
HETATM    2  N2  UNL     1      32.571  65.580   9.500  1.00  0.00    -0.279 N 
ATOM      3  H2  UNL     1      33.487  65.491   9.941  1.00  0.00     0.189 HD
HETATM    4  N3  UNL     1      31.536  64.898  10.003  1.00  0.00    -0.272 N 
ATOM      5  H3  UNL     1      31.678  64.303  10.820  1.00  0.00     0.189 HD
HETATM    6  C2  UNL     1      30.300  64.983   9.450  1.00  0.00     0.210 A 
HETATM    7  N4  UNL     1      29.212  64.254   9.996  1.00  0.00    -0.062 NA
HETATM    8  N5  UNL     1      30.177  65.786   8.377  1.00  0.00    -0.293 N 
ATOM      9  H5  UNL     1      29.259  65.869   7.940  1.00  0.00     0.172 HD
HETATM   10  C3  UNL     1      31.192  66.480   7.852  1.00  0.00     0.292 A 
HETATM   11  O1  UNL     1      31.039  67.212   6.859  1.00  0.00    -0.264 OA
ENDROOT
BRANCH   1  12
HETATM   12  N1  UNL     1      33.464  67.012   7.985  1.00  0.00    -0.380 N 
ATOM     13  H12 UNL     1      34.383  66.578   7.889  1.00  0.00     0.158 HD
ATOM     14  H11 UNL     1      33.364  67.991   7.716  1.00  0.00     0.158 HD
ENDBRANCH   1  12
TORSDOF 1
ENDMDL
MODEL 2
REMARK VINA RESULT: -5.734995566      1.965      2.675
REMARK  1 active torsions:
REMARK  status: ('A' for Active; 'I' for Inactive)
REMARK    1  A    between atoms: N1_1  and  C1_4 
ROOT
HETATM    1  C1  UNL     1      32.156  66.729   7.664  1.00  0.00     0.183 A 
HETATM    2  N2  UNL     1      31.612  66.853   6.441  1.00  0.00    -0.279 N 
ATOM      3  H2  UNL     1      32.213  67.080   5.648  1.00  0.00     0.189 HD
HETATM    4  N3  UNL     1      30.301  66.684   6.238  1.00  0.00    -0.272 N 
ATOM      5  H3  UNL     1      29.923  66.784   5.296  1.00  0.00     0.189 HD
HETATM    6  C2  UNL     1      29.462  66.382   7.262  1.00  0.00     0.210 A 
HETATM    7  N4  UNL     1      28.073  66.206   7.030  1.00  0.00    -0.062 NA
HETATM    8  N5  UNL     1      30.021  66.262   8.480  1.00  0.00    -0.293 N 
ATOM      9  H5  UNL     1      29.415  66.035   9.268  1.00  0.00     0.172 HD
HETATM   10  C3  UNL     1      31.328  66.423   8.713  1.00  0.00     0.292 A 
HETATM   11  O1  UNL     1      31.808  66.305   9.854  1.00  0.00    -0.264 OA
ENDROOT
BRANCH   1  12
HETATM   12  N1  UNL     1      33.426  66.902   7.802  1.00  0.00    -0.380 N 
ATOM     13  H12 UNL     1      34.046  67.109   7.018  1.00  0.00     0.158 HD
ATOM     14  H11 UNL     1      33.836  66.830   8.733  1.00  0.00     0.158 HD
ENDBRANCH   1  12
TORSDOF 1
ENDMDL
MODEL 3
REMARK VINA RESULT: -5.516641002      1.818      2.454
REMARK  1 active torsions:
REMARK  status: ('A' for Active; 'I' for Inactive)
REMARK    1  A    between atoms: N1_1  and  C1_4 
ROOT
HETATM    1  C1  UNL     1      31.065  66.943   7.310  1.00  0.00     0.183 A 
HETATM    2  N2  UNL     1      29.741  67.127   7.450  1.00  0.00    -0.279 N 
ATOM      3  H2  UNL     1      29.193  67.437   6.648  1.00  0.00     0.189 HD
HETATM    4  N3  UNL     1      29.125  66.913   8.618  1.00  0.00    -0.272 N 
ATOM      5  H3  UNL     1      28.118  67.062   8.687  1.00  0.00     0.189 HD
HETATM    6  C2  UNL     1      29.812  66.501   9.713  1.00  0.00     0.210 A 
HETATM    7  N4  UNL     1      29.143  66.279  10.945  1.00  0.00    -0.062 NA
HETATM    8  N5  UNL     1      31.136  66.321   9.558  1.00  0.00    -0.293 N 
ATOM      9  H5  UNL     1      31.678  66.012  10.364  1.00  0.00     0.172 HD
HETATM   10  C3  UNL     1      31.780  66.526   8.403  1.00  0.00     0.292 A 
HETATM   11  O1  UNL     1      33.006  66.349   8.299  1.00  0.00    -0.264 OA
ENDROOT
BRANCH   1  12
HETATM   12  N1  UNL     1      31.608  67.164   6.162  1.00  0.00    -0.380 N 
ATOM     13  H12 UNL     1      31.096  67.085   5.283  1.00  0.00     0.158 HD
ATOM     14  H11 UNL     1      32.592  67.429   6.124  1.00  0.00     0.158 HD
ENDBRANCH   1  12
TORSDOF 1
ENDMDL
MODEL 4
REMARK VINA RESULT: -5.352433882      1.662      3.278
REMARK  1 active torsions:
REMARK  status: ('A' for Active; 'I' for Inactive)
REMARK    1  A    between atoms: N1_1  and  C1_4 
ROOT
HETATM    1  C1  UNL     1      30.180  65.119   9.865  1.00  0.00     0.183 A 
HETATM    2  N2  UNL     1      31.511  65.256   9.728  1.00  0.00    -0.279 N 
ATOM      3  H2  UNL     1      32.131  64.796  10.394  1.00  0.00     0.189 HD
HETATM    4  N3  UNL     1      32.041  65.982   8.738  1.00  0.00    -0.272 N 
ATOM      5  H3  UNL     1      33.055  66.063   8.664  1.00  0.00     0.189 HD
HETATM    6  C2  UNL     1      31.256  66.614   7.828  1.00  0.00     0.210 A 
HETATM    7  N4  UNL     1      31.834  67.381   6.784  1.00  0.00    -0.062 NA
HETATM    8  N5  UNL     1      29.927  66.468   7.978  1.00  0.00    -0.293 N 
ATOM      9  H5  UNL     1      29.313  66.932   7.309  1.00  0.00     0.172 HD
HETATM   10  C3  UNL     1      29.368  65.748   8.957  1.00  0.00     0.292 A 
HETATM   11  O1  UNL     1      28.134  65.637   9.063  1.00  0.00    -0.264 OA
ENDROOT
BRANCH   1  12
HETATM   12  N1  UNL     1      29.724  64.407  10.838  1.00  0.00    -0.380 N 
ATOM     13  H12 UNL     1      30.018  63.445  11.006  1.00  0.00     0.158 HD
ATOM     14  H11 UNL     1      29.037  64.818  11.470  1.00  0.00     0.158 HD
ENDBRANCH   1  12
TORSDOF 1
ENDMDL
MODEL 5
REMARK VINA RESULT: -5.243567125      2.119      3.836
REMARK  1 active torsions:
REMARK  status: ('A' for Active; 'I' for Inactive)
REMARK    1  A    between atoms: N1_1  and  C1_4 
ROOT
HETATM    1  C1  UNL     1      28.902  66.383   7.912  1.00  0.00     0.183 A 
HETATM    2  N2  UNL     1      29.563  67.191   7.064  1.00  0.00    -0.279 N 
ATOM      3  H2  UNL     1      29.033  67.773   6.416  1.00  0.00     0.189 HD
HETATM    4  N3  UNL     1      30.899  67.249   7.052  1.00  0.00    -0.272 N 
ATOM      5  H3  UNL     1      31.367  67.875   6.396  1.00  0.00     0.189 HD
HETATM    6  C2  UNL     1      31.646  66.492   7.895  1.00  0.00     0.210 A 
HETATM    7  N4  UNL     1      33.063  66.565   7.870  1.00  0.00    -0.062 NA
HETATM    8  N5  UNL     1      30.971  65.688   8.737  1.00  0.00    -0.293 N 
ATOM      9  H5  UNL     1      31.506  65.108   9.383  1.00  0.00     0.172 HD
HETATM   10  C3  UNL     1      29.636  65.609   8.774  1.00  0.00     0.292 A 
HETATM   11  O1  UNL     1      29.048  64.853   9.567  1.00  0.00    -0.264 OA
ENDROOT
BRANCH   1  12
HETATM   12  N1  UNL     1      27.613  66.367   7.881  1.00  0.00    -0.380 N 
ATOM     13  H12 UNL     1      27.043  66.096   8.683  1.00  0.00     0.158 HD
ATOM     14  H11 UNL     1      27.137  66.634   7.020  1.00  0.00     0.158 HD
ENDBRANCH   1  12
TORSDOF 1
ENDMDL
