MODEL 1
REMARK VINA RESULT: -6.774388603      0.000      0.000
REMARK  2 active torsions:
REMARK  status: ('A' for Active; 'I' for Inactive)
REMARK       I    between atoms: C1_2  and  N2_4 
REMARK       I    between atoms: N2_4  and  C2_6 
REMARK    1  A    between atoms: C2_6  and  C3_8 
REMARK    2  A    between atoms: C3_8  and  O3_9 
ROOT
HETATM    1  C3  UNL     1      28.388  65.672   9.408  1.00  0.00     0.302 C 
HETATM    2  N3  UNL     1      28.003  66.790  10.272  1.00  0.00    -0.295 N 
ATOM      3  H3  UNL     1      27.370  67.547  10.015  1.00  0.00     0.168 HD
HETATM    4  C4  UNL     1      28.652  66.647  11.520  1.00  0.00     0.326 C 
HETATM    5  O4  UNL     1      28.673  67.523  12.441  1.00  0.00    -0.247 OA
HETATM    6  N4  UNL     1      29.273  65.371  11.573  1.00  0.00    -0.275 N 
ATOM      7  H4  UNL     1      29.813  64.999  12.355  1.00  0.00     0.173 HD
HETATM    8  C5  UNL     1      29.014  64.708  10.355  1.00  0.00     0.291 C 
HETATM    9  O5  UNL     1      29.266  63.519  10.112  1.00  0.00    -0.267 OA
ENDROOT
BRANCH   1  10
HETATM   10  C2  UNL     1      29.357  66.197   8.452  1.00  0.00     0.291 C 
HETATM   11  N2  UNL     1      30.768  66.074   8.763  1.00  0.00    -0.277 N 
HETATM   12  C1  UNL     1      31.730  66.570   7.857  1.00  0.00     0.335 C 
ATOM     13  H2  UNL     1      31.063  65.631   9.633  1.00  0.00     0.173 HD
HETATM   14  N1  UNL     1      33.102  66.402   8.106  1.00  0.00    -0.040 NA
HETATM   15  O1  UNL     1      31.345  67.153   6.828  1.00  0.00    -0.251 OA
HETATM   16  O2  UNL     1      29.005  66.735   7.395  1.00  0.00    -0.267 OA
ENDBRANCH   1  10
BRANCH   1  17
HETATM   17  O3  UNL     1      27.325  65.115   8.726  1.00  0.00    -0.356 OA
ATOM     18  H3  UNL     1      26.803  65.807   8.337  1.00  0.00     0.213 HD
ENDBRANCH   1  17
TORSDOF 2
ENDMDL
MODEL 2
REMARK VINA RESULT: -6.561717832      2.170      4.594
REMARK  2 active torsions:
REMARK  status: ('A' for Active; 'I' for Inactive)
REMARK       I    between atoms: C1_2  and  N2_4 
REMARK       I    between atoms: N2_4  and  C2_6 
REMARK    1  A    between atoms: C2_6  and  C3_8 
REMARK    2  A    between atoms: C3_8  and  O3_9 
ROOT
HETATM    1  C3  UNL     1      28.554  66.021   9.340  1.00  0.00     0.302 C 
HETATM    2  N3  UNL     1      29.082  66.999   8.388  1.00  0.00    -0.295 N 
ATOM      3  H3  UNL     1      28.667  67.907   8.178  1.00  0.00     0.168 HD
HETATM    4  C4  UNL     1      30.261  66.478   7.805  1.00  0.00     0.326 C 
HETATM    5  O4  UNL     1      30.881  66.991   6.821  1.00  0.00    -0.247 OA
HETATM    6  N4  UNL     1      30.633  65.295   8.497  1.00  0.00    -0.275 N 
ATOM      7  H4  UNL     1      31.443  64.710   8.292  1.00  0.00     0.173 HD
HETATM    8  C5  UNL     1      29.687  65.070   9.519  1.00  0.00     0.291 C 
HETATM    9  O5  UNL     1      29.781  64.223  10.418  1.00  0.00    -0.267 OA
ENDROOT
BRANCH   1  10
HETATM   10  C2  UNL     1      27.411  65.383   8.695  1.00  0.00     0.291 C 
HETATM   11  N2  UNL     1      26.319  64.919   9.529  1.00  0.00    -0.277 N 
HETATM   12  C1  UNL     1      25.198  64.301   8.935  1.00  0.00     0.335 C 
ATOM     13  H2  UNL     1      26.361  65.039  10.541  1.00  0.00     0.173 HD
HETATM   14  N1  UNL     1      24.101  63.904   9.716  1.00  0.00    -0.040 NA
HETATM   15  O1  UNL     1      25.192  64.117   7.704  1.00  0.00    -0.251 OA
HETATM   16  O2  UNL     1      27.353  65.235   7.468  1.00  0.00    -0.267 OA
ENDBRANCH   1  10
BRANCH   1  17
HETATM   17  O3  UNL     1      28.151  66.581  10.535  1.00  0.00    -0.356 OA
ATOM     18  H3  UNL     1      28.529  66.093  11.257  1.00  0.00     0.213 HD
ENDBRANCH   1  17
TORSDOF 2
ENDMDL
MODEL 3
REMARK VINA RESULT: -6.552240512      1.544      4.491
REMARK  2 active torsions:
REMARK  status: ('A' for Active; 'I' for Inactive)
REMARK       I    between atoms: C1_2  and  N2_4 
REMARK       I    between atoms: N2_4  and  C2_6 
REMARK    1  A    between atoms: C2_6  and  C3_8 
REMARK    2  A    between atoms: C3_8  and  O3_9 
ROOT
HETATM    1  C3  UNL     1      30.048  65.007   9.443  1.00  0.00     0.302 C 
HETATM    2  N3  UNL     1      31.482  65.267   9.582  1.00  0.00    -0.295 N 
ATOM      3  H3  UNL     1      32.098  64.839  10.273  1.00  0.00     0.168 HD
HETATM    4  C4  UNL     1      31.872  66.208   8.601  1.00  0.00     0.326 C 
HETATM    5  O4  UNL     1      33.007  66.780   8.544  1.00  0.00    -0.247 OA
HETATM    6  N4  UNL     1      30.795  66.408   7.699  1.00  0.00    -0.275 N 
ATOM      7  H4  UNL     1      30.795  67.034   6.893  1.00  0.00     0.173 HD
HETATM    8  C5  UNL     1      29.722  65.589   8.111  1.00  0.00     0.291 C 
HETATM    9  O5  UNL     1      28.681  65.387   7.471  1.00  0.00    -0.267 OA
ENDROOT
BRANCH   1  10
HETATM   10  C2  UNL     1      29.386  65.729  10.524  1.00  0.00     0.291 C 
HETATM   11  N2  UNL     1      29.171  65.040  11.782  1.00  0.00    -0.277 N 
HETATM   12  C1  UNL     1      28.535  65.711  12.849  1.00  0.00     0.335 C 
ATOM     13  H2  UNL     1      29.478  64.074  11.896  1.00  0.00     0.173 HD
HETATM   14  N1  UNL     1      28.377  65.086  14.096  1.00  0.00    -0.040 NA
HETATM   15  O1  UNL     1      28.122  66.871  12.670  1.00  0.00    -0.251 OA
HETATM   16  O2  UNL     1      29.011  66.900  10.394  1.00  0.00    -0.267 OA
ENDBRANCH   1  10
BRANCH   1  17
HETATM   17  O3  UNL     1      29.723  63.668   9.519  1.00  0.00    -0.356 OA
ATOM     18  H3  UNL     1      29.188  63.430   8.771  1.00  0.00     0.213 HD
ENDBRANCH   1  17
TORSDOF 2
ENDMDL
MODEL 4
REMARK VINA RESULT: -6.388848287      3.787      5.435
REMARK  2 active torsions:
REMARK  status: ('A' for Active; 'I' for Inactive)
REMARK       I    between atoms: C1_2  and  N2_4 
REMARK       I    between atoms: N2_4  and  C2_6 
REMARK    1  A    between atoms: C2_6  and  C3_8 
REMARK    2  A    between atoms: C3_8  and  O3_9 
ROOT
HETATM    1  C3  UNL     1      25.543  62.803  11.026  1.00  0.00     0.302 C 
HETATM    2  N3  UNL     1      25.127  61.696  10.163  1.00  0.00    -0.295 N 
ATOM      3  H3  UNL     1      25.364  60.714  10.303  1.00  0.00     0.168 HD
HETATM    4  C4  UNL     1      24.344  62.213   9.105  1.00  0.00     0.326 C 
HETATM    5  O4  UNL     1      23.961  61.554   8.087  1.00  0.00    -0.247 OA
HETATM    6  N4  UNL     1      24.059  63.579   9.366  1.00  0.00    -0.275 N 
ATOM      7  H4  UNL     1      23.513  64.201   8.770  1.00  0.00     0.173 HD
HETATM    8  C5  UNL     1      24.664  63.925  10.593  1.00  0.00     0.291 C 
HETATM    9  O5  UNL     1      24.493  64.986  11.208  1.00  0.00    -0.267 OA
ENDROOT
BRANCH   1  10
HETATM   10  C2  UNL     1      26.945  63.067  10.722  1.00  0.00     0.291 C 
HETATM   11  N2  UNL     1      27.379  64.447  10.613  1.00  0.00    -0.277 N 
HETATM   12  C1  UNL     1      28.730  64.735  10.322  1.00  0.00     0.335 C 
ATOM     13  H2  UNL     1      26.711  65.205  10.748  1.00  0.00     0.173 HD
HETATM   14  N1  UNL     1      29.186  66.063  10.279  1.00  0.00    -0.040 NA
HETATM   15  O1  UNL     1      29.515  63.794  10.111  1.00  0.00    -0.251 OA
HETATM   16  O2  UNL     1      27.761  62.152  10.558  1.00  0.00    -0.267 OA
ENDBRANCH   1  10
BRANCH   1  17
HETATM   17  O3  UNL     1      25.410  62.529  12.372  1.00  0.00    -0.356 OA
ATOM     18  H3  UNL     1      25.057  63.290  12.816  1.00  0.00     0.213 HD
ENDBRANCH   1  17
TORSDOF 2
ENDMDL
MODEL 5
REMARK VINA RESULT: -6.299556267      2.119      3.502
REMARK  2 active torsions:
REMARK  status: ('A' for Active; 'I' for Inactive)
REMARK       I    between atoms: C1_2  and  N2_4 
REMARK       I    between atoms: N2_4  and  C2_6 
REMARK    1  A    between atoms: C2_6  and  C3_8 
REMARK    2  A    between atoms: C3_8  and  O3_9 
ROOT
HETATM    1  C3  UNL     1      28.766  64.986  11.700  1.00  0.00     0.302 C 
HETATM    2  N3  UNL     1      29.155  63.729  12.341  1.00  0.00    -0.295 N 
ATOM      3  H3  UNL     1      30.103  63.471  12.615  1.00  0.00     0.168 HD
HETATM    4  C4  UNL     1      28.001  62.930  12.517  1.00  0.00     0.326 C 
HETATM    5  O4  UNL     1      28.000  61.714  12.889  1.00  0.00    -0.247 OA
HETATM    6  N4  UNL     1      26.852  63.706  12.210  1.00  0.00    -0.275 N 
ATOM      7  H4  UNL     1      25.885  63.386  12.250  1.00  0.00     0.173 HD
HETATM    8  C5  UNL     1      27.283  64.998  11.841  1.00  0.00     0.291 C 
HETATM    9  O5  UNL     1      26.550  65.980  11.663  1.00  0.00    -0.267 OA
ENDROOT
BRANCH   1  10
HETATM   10  C2  UNL     1      29.175  64.888  10.303  1.00  0.00     0.291 C 
HETATM   11  N2  UNL     1      28.986  66.043   9.447  1.00  0.00    -0.277 N 
HETATM   12  C1  UNL     1      29.374  65.981   8.092  1.00  0.00     0.335 C 
ATOM     13  H2  UNL     1      28.575  66.897   9.824  1.00  0.00     0.173 HD
HETATM   14  N1  UNL     1      29.263  67.109   7.262  1.00  0.00    -0.040 NA
HETATM   15  O1  UNL     1      29.825  64.912   7.642  1.00  0.00    -0.251 OA
HETATM   16  O2  UNL     1      29.675  63.855   9.840  1.00  0.00    -0.267 OA
ENDBRANCH   1  10
BRANCH   1  17
HETATM   17  O3  UNL     1      29.351  66.097  12.273  1.00  0.00    -0.356 OA
ATOM     18  H3  UNL     1      29.539  65.919  13.187  1.00  0.00     0.213 HD
ENDBRANCH   1  17
TORSDOF 2
ENDMDL
