MODEL 1
REMARK VINA RESULT: -5.561303789      0.000      0.000
REMARK  1 active torsions:
REMARK  status: ('A' for Active; 'I' for Inactive)
REMARK    1  A    between atoms: N1_1  and  N2_4 
ROOT
HETATM    1  N2  UNL     1      29.616  66.578   6.761  1.00  0.00    -0.031 NA
HETATM    2  N3  UNL     1      30.853  66.774   6.194  1.00  0.00    -0.016 NA
HETATM    3  N4  UNL     1      31.677  67.617   6.970  1.00  0.00    -0.127 NA
HETATM    4  C1  UNL     1      32.799  66.909   7.504  1.00  0.00     0.151 C 
HETATM    5  C2  UNL     1      32.692  66.625   8.965  1.00  0.00     0.142 C 
HETATM    6  N5  UNL     1      31.598  65.820   9.360  1.00  0.00    -0.341 N 
ATOM      7  H5  UNL     1      31.802  65.407  10.270  1.00  0.00     0.164 HD
HETATM    8  C3  UNL     1      30.308  65.386   8.928  1.00  0.00     0.333 C 
HETATM    9  O1  UNL     1      29.671  64.686   9.757  1.00  0.00    -0.246 OA
HETATM   10  N6  UNL     1      29.572  65.582   7.725  1.00  0.00    -0.236 N 
ATOM     11  H6  UNL     1      28.883  64.854   7.538  1.00  0.00     0.189 HD
ENDROOT
BRANCH   1  12
HETATM   12  N1  UNL     1      28.997  67.735   7.062  1.00  0.00    -0.329 NA
ATOM     13  H12 UNL     1      29.169  68.116   7.993  1.00  0.00     0.174 HD
ATOM     14  H11 UNL     1      29.053  68.417   6.305  1.00  0.00     0.174 HD
ENDBRANCH   1  12
TORSDOF 1
ENDMDL
MODEL 2
REMARK VINA RESULT: -5.540519687      1.669      2.988
REMARK  1 active torsions:
REMARK  status: ('A' for Active; 'I' for Inactive)
REMARK    1  A    between atoms: N1_1  and  N2_4 
ROOT
HETATM    1  N2  UNL     1      32.371  66.492   9.501  1.00  0.00    -0.031 NA
HETATM    2  N3  UNL     1      32.798  67.049   8.318  1.00  0.00    -0.016 NA
HETATM    3  N4  UNL     1      32.510  66.235   7.202  1.00  0.00    -0.127 NA
HETATM    4  C1  UNL     1      31.545  66.846   6.341  1.00  0.00     0.151 C 
HETATM    5  C2  UNL     1      30.190  66.226   6.421  1.00  0.00     0.142 C 
HETATM    6  N5  UNL     1      29.558  66.279   7.685  1.00  0.00    -0.341 N 
ATOM      7  H5  UNL     1      28.553  66.162   7.559  1.00  0.00     0.164 HD
HETATM    8  C3  UNL     1      29.840  66.440   9.076  1.00  0.00     0.333 C 
HETATM    9  O1  UNL     1      28.849  66.319   9.842  1.00  0.00    -0.246 OA
HETATM   10  N6  UNL     1      31.036  66.715   9.797  1.00  0.00    -0.236 N 
ATOM     11  H6  UNL     1      30.880  67.160  10.702  1.00  0.00     0.189 HD
ENDROOT
BRANCH   1  12
HETATM   12  N1  UNL     1      32.825  65.237   9.673  1.00  0.00    -0.329 NA
ATOM     13  H12 UNL     1      33.757  65.139  10.076  1.00  0.00     0.174 HD
ATOM     14  H11 UNL     1      32.120  64.619  10.076  1.00  0.00     0.174 HD
ENDBRANCH   1  12
TORSDOF 1
ENDMDL
MODEL 3
REMARK VINA RESULT: -5.450339574      1.826      2.934
REMARK  1 active torsions:
REMARK  status: ('A' for Active; 'I' for Inactive)
REMARK    1  A    between atoms: N1_1  and  N2_4 
ROOT
HETATM    1  N2  UNL     1      30.105  65.765   9.472  1.00  0.00    -0.031 NA
HETATM    2  N3  UNL     1      31.346  66.332   9.649  1.00  0.00    -0.016 NA
HETATM    3  N4  UNL     1      32.269  65.931   8.660  1.00  0.00    -0.127 NA
HETATM    4  C1  UNL     1      32.652  67.026   7.823  1.00  0.00     0.151 C 
HETATM    5  C2  UNL     1      32.045  66.981   6.460  1.00  0.00     0.142 C 
HETATM    6  N5  UNL     1      30.633  67.027   6.408  1.00  0.00    -0.341 N 
ATOM      7  H5  UNL     1      30.344  67.339   5.482  1.00  0.00     0.164 HD
HETATM    8  C3  UNL     1      29.472  66.789   7.205  1.00  0.00     0.333 C 
HETATM    9  O1  UNL     1      28.373  66.917   6.603  1.00  0.00    -0.246 OA
HETATM   10  N6  UNL     1      29.289  66.429   8.569  1.00  0.00    -0.236 N 
ATOM     11  H6  UNL     1      28.388  66.712   8.955  1.00  0.00     0.189 HD
ENDROOT
BRANCH   1  12
HETATM   12  N1  UNL     1      30.161  64.425   9.361  1.00  0.00    -0.329 NA
ATOM     13  H12 UNL     1      30.642  64.055   8.541  1.00  0.00     0.174 HD
ATOM     14  H11 UNL     1      30.406  63.970  10.240  1.00  0.00     0.174 HD
ENDBRANCH   1  12
TORSDOF 1
ENDMDL
MODEL 4
REMARK VINA RESULT: -5.352902439      1.807      2.897
REMARK  1 active torsions:
REMARK  status: ('A' for Active; 'I' for Inactive)
REMARK    1  A    between atoms: N1_1  and  N2_4 
ROOT
HETATM    1  N2  UNL     1      29.849  66.838   6.410  1.00  0.00    -0.031 NA
HETATM    2  N3  UNL     1      28.798  67.179   7.229  1.00  0.00    -0.016 NA
HETATM    3  N4  UNL     1      28.571  66.225   8.243  1.00  0.00    -0.127 NA
HETATM    4  C1  UNL     1      28.853  66.759   9.540  1.00  0.00     0.151 C 
HETATM    5  C2  UNL     1      30.121  66.247  10.138  1.00  0.00     0.142 C 
HETATM    6  N5  UNL     1      31.304  66.533   9.418  1.00  0.00    -0.341 N 
ATOM      7  H5  UNL     1      32.102  66.463  10.049  1.00  0.00     0.164 HD
HETATM    8  C3  UNL     1      31.769  66.885   8.114  1.00  0.00     0.333 C 
HETATM    9  O1  UNL     1      33.020  66.947   7.989  1.00  0.00    -0.246 OA
HETATM   10  N6  UNL     1      31.100  67.189   6.896  1.00  0.00    -0.236 N 
ATOM     11  H6  UNL     1      31.641  67.776   6.261  1.00  0.00     0.189 HD
ENDROOT
BRANCH   1  12
HETATM   12  N1  UNL     1      29.727  65.597   5.904  1.00  0.00    -0.329 NA
ATOM     13  H12 UNL     1      29.634  64.836   6.578  1.00  0.00     0.174 HD
ATOM     14  H11 UNL     1      29.073  65.556   5.122  1.00  0.00     0.174 HD
ENDBRANCH   1  12
TORSDOF 1
ENDMDL
MODEL 5
REMARK VINA RESULT: -5.299492699      2.481      4.137
REMARK  1 active torsions:
REMARK  status: ('A' for Active; 'I' for Inactive)
REMARK    1  A    between atoms: N1_1  and  N2_4 
ROOT
HETATM    1  N2  UNL     1      30.769  64.833   9.066  1.00  0.00    -0.031 NA
HETATM    2  N3  UNL     1      29.768  64.245   9.804  1.00  0.00    -0.016 NA
HETATM    3  N4  UNL     1      29.299  65.079  10.841  1.00  0.00    -0.127 NA
HETATM    4  C1  UNL     1      27.947  65.488  10.616  1.00  0.00     0.151 C 
HETATM    5  C2  UNL     1      27.812  66.912  10.187  1.00  0.00     0.142 C 
HETATM    6  N5  UNL     1      28.449  67.255   8.973  1.00  0.00    -0.341 N 
ATOM      7  H5  UNL     1      28.023  68.105   8.603  1.00  0.00     0.164 HD
HETATM    8  C3  UNL     1      29.481  66.825   8.084  1.00  0.00     0.333 C 
HETATM    9  O1  UNL     1      29.710  67.595   7.114  1.00  0.00    -0.246 OA
HETATM   10  N6  UNL     1      30.327  65.681   8.062  1.00  0.00    -0.236 N 
ATOM     11  H6  UNL     1      30.673  65.439   7.134  1.00  0.00     0.189 HD
ENDROOT
BRANCH   1  12
HETATM   12  N1  UNL     1      31.779  65.284   9.834  1.00  0.00    -0.329 NA
ATOM     13  H12 UNL     1      32.278  64.588  10.387  1.00  0.00     0.174 HD
ATOM     14  H11 UNL     1      32.377  65.948   9.342  1.00  0.00     0.174 HD
ENDBRANCH   1  12
TORSDOF 1
ENDMDL
