MODEL 1
REMARK VINA RESULT: -7.148900970      0.000      0.000
REMARK  1 active torsions:
REMARK  status: ('A' for Active; 'I' for Inactive)
REMARK    1  A    between atoms: N1_1  and  C1_4 
ROOT
HETATM    1  C1  UNL     1      32.431  66.632   8.228  1.00  0.00     0.183 C 
HETATM    2  N2  UNL     1      32.517  65.775   9.259  1.00  0.00    -0.278 N 
ATOM      3  H2  UNL     1      33.458  65.584   9.606  1.00  0.00     0.189 HD
HETATM    4  N3  UNL     1      31.517  65.142   9.888  1.00  0.00    -0.260 N 
ATOM      5  H3  UNL     1      31.794  64.366  10.489  1.00  0.00     0.190 HD
HETATM    6  C2  UNL     1      30.193  65.393   9.832  1.00  0.00     0.328 C 
HETATM    7  O1  UNL     1      29.477  64.836  10.684  1.00  0.00    -0.261 OA
HETATM    8  C3  UNL     1      29.491  66.192   8.953  1.00  0.00     0.318 C 
HETATM    9  O2  UNL     1      28.286  66.396   9.236  1.00  0.00    -0.262 OA
HETATM   10  N4  UNL     1      29.987  66.764   7.830  1.00  0.00    -0.283 N 
ATOM     11  H4  UNL     1      29.303  67.093   7.147  1.00  0.00     0.172 HD
HETATM   12  C4  UNL     1      31.294  66.948   7.511  1.00  0.00     0.293 C 
HETATM   13  O3  UNL     1      31.530  67.485   6.404  1.00  0.00    -0.264 OA
ENDROOT
BRANCH   1  14
HETATM   14  N1  UNL     1      33.534  67.198   7.898  1.00  0.00    -0.380 N 
ATOM     15  H12 UNL     1      33.558  67.741   7.035  1.00  0.00     0.158 HD
ATOM     16  H11 UNL     1      34.309  67.048   8.545  1.00  0.00     0.158 HD
ENDBRANCH   1  14
TORSDOF 1
ENDMDL
MODEL 2
REMARK VINA RESULT: -6.774395614      1.021      3.477
REMARK  1 active torsions:
REMARK  status: ('A' for Active; 'I' for Inactive)
REMARK    1  A    between atoms: N1_1  and  C1_4 
ROOT
HETATM    1  C1  UNL     1      30.129  65.199   9.647  1.00  0.00     0.183 C 
HETATM    2  N2  UNL     1      31.440  65.256   9.933  1.00  0.00    -0.278 N 
ATOM      3  H2  UNL     1      31.763  64.638  10.677  1.00  0.00     0.189 HD
HETATM    4  N3  UNL     1      32.374  66.026   9.358  1.00  0.00    -0.260 N 
ATOM      5  H3  UNL     1      33.259  66.095   9.860  1.00  0.00     0.190 HD
HETATM    6  C2  UNL     1      32.301  66.723   8.205  1.00  0.00     0.328 C 
HETATM    7  O1  UNL     1      33.369  67.168   7.747  1.00  0.00    -0.261 OA
HETATM    8  C3  UNL     1      31.196  67.026   7.436  1.00  0.00     0.318 C 
HETATM    9  O2  UNL     1      31.430  67.532   6.312  1.00  0.00    -0.262 OA
HETATM   10  N4  UNL     1      29.903  66.825   7.788  1.00  0.00    -0.283 N 
ATOM     11  H4  UNL     1      29.202  67.337   7.251  1.00  0.00     0.172 HD
HETATM   12  C4  UNL     1      29.438  66.019   8.776  1.00  0.00     0.293 C 
HETATM   13  O3  UNL     1      28.196  65.998   8.943  1.00  0.00    -0.264 OA
ENDROOT
BRANCH   1  14
HETATM   14  N1  UNL     1      29.477  64.280  10.260  1.00  0.00    -0.380 N 
ATOM     15  H12 UNL     1      28.666  64.552  10.815  1.00  0.00     0.158 HD
ATOM     16  H11 UNL     1      29.841  63.334  10.135  1.00  0.00     0.158 HD
ENDBRANCH   1  14
TORSDOF 1
ENDMDL
MODEL 3
REMARK VINA RESULT: -6.531459192      1.259      2.437
REMARK  1 active torsions:
REMARK  status: ('A' for Active; 'I' for Inactive)
REMARK    1  A    between atoms: N1_1  and  C1_4 
ROOT
HETATM    1  C1  UNL     1      31.111  67.135   7.139  1.00  0.00     0.183 C 
HETATM    2  N2  UNL     1      29.787  67.351   7.087  1.00  0.00    -0.278 N 
ATOM      3  H2  UNL     1      29.441  67.818   6.248  1.00  0.00     0.189 HD
HETATM    4  N3  UNL     1      28.864  67.030   8.005  1.00  0.00    -0.260 N 
ATOM      5  H3  UNL     1      27.954  67.476   7.891  1.00  0.00     0.190 HD
HETATM    6  C2  UNL     1      28.978  66.196   9.059  1.00  0.00     0.328 C 
HETATM    7  O1  UNL     1      27.924  65.863   9.631  1.00  0.00    -0.261 OA
HETATM    8  C3  UNL     1      30.112  65.640   9.615  1.00  0.00     0.318 C 
HETATM    9  O2  UNL     1      29.922  64.750  10.479  1.00  0.00    -0.262 OA
HETATM   10  N4  UNL     1      31.390  65.970   9.311  1.00  0.00    -0.283 N 
ATOM     11  H4  UNL     1      32.105  65.682   9.980  1.00  0.00     0.172 HD
HETATM   12  C4  UNL     1      31.825  66.641   8.213  1.00  0.00     0.293 C 
HETATM   13  O3  UNL     1      33.057  66.857   8.142  1.00  0.00    -0.264 OA
ENDROOT
BRANCH   1  14
HETATM   14  N1  UNL     1      31.753  67.426   6.067  1.00  0.00    -0.380 N 
ATOM     15  H12 UNL     1      31.701  66.776   5.282  1.00  0.00     0.158 HD
ATOM     16  H11 UNL     1      32.271  68.304   6.097  1.00  0.00     0.158 HD
ENDBRANCH   1  14
TORSDOF 1
ENDMDL
MODEL 4
REMARK VINA RESULT: -6.276115916      1.779      2.699
REMARK  1 active torsions:
REMARK  status: ('A' for Active; 'I' for Inactive)
REMARK    1  A    between atoms: N1_1  and  C1_4 
ROOT
HETATM    1  C1  UNL     1      32.243  66.841   7.702  1.00  0.00     0.183 C 
HETATM    2  N2  UNL     1      31.580  67.235   6.603  1.00  0.00    -0.278 N 
ATOM      3  H2  UNL     1      32.155  67.485   5.798  1.00  0.00     0.189 HD
HETATM    4  N3  UNL     1      30.254  67.340   6.436  1.00  0.00    -0.260 N 
ATOM      5  H3  UNL     1      29.953  67.869   5.618  1.00  0.00     0.190 HD
HETATM    6  C2  UNL     1      29.265  66.840   7.205  1.00  0.00     0.328 C 
HETATM    7  O1  UNL     1      28.116  66.854   6.726  1.00  0.00    -0.261 OA
HETATM    8  C3  UNL     1      29.332  66.301   8.474  1.00  0.00     0.318 C 
HETATM    9  O2  UNL     1      28.289  65.741   8.889  1.00  0.00    -0.262 OA
HETATM   10  N4  UNL     1      30.411  66.327   9.292  1.00  0.00    -0.283 N 
ATOM     11  H4  UNL     1      30.236  66.139  10.280  1.00  0.00     0.172 HD
HETATM   12  C4  UNL     1      31.699  66.576   8.944  1.00  0.00     0.293 C 
HETATM   13  O3  UNL     1      32.541  66.569   9.872  1.00  0.00    -0.264 OA
ENDROOT
BRANCH   1  14
HETATM   14  N1  UNL     1      33.511  66.706   7.554  1.00  0.00    -0.380 N 
ATOM     15  H12 UNL     1      34.077  67.548   7.455  1.00  0.00     0.158 HD
ATOM     16  H11 UNL     1      33.846  65.742   7.547  1.00  0.00     0.158 HD
ENDBRANCH   1  14
TORSDOF 1
ENDMDL
MODEL 5
REMARK VINA RESULT: -6.066816877      1.668      2.102
REMARK  1 active torsions:
REMARK  status: ('A' for Active; 'I' for Inactive)
REMARK    1  A    between atoms: N1_1  and  C1_4 
ROOT
HETATM    1  C1  UNL     1      31.759  66.394   9.203  1.00  0.00     0.183 C 
HETATM    2  N2  UNL     1      30.718  65.798   9.806  1.00  0.00    -0.278 N 
ATOM      3  H2  UNL     1      30.895  65.422  10.738  1.00  0.00     0.189 HD
HETATM    4  N3  UNL     1      29.474  65.636   9.333  1.00  0.00    -0.260 N 
ATOM      5  H3  UNL     1      28.894  64.966   9.835  1.00  0.00     0.190 HD
HETATM    6  C2  UNL     1      28.888  66.243   8.280  1.00  0.00     0.328 C 
HETATM    7  O1  UNL     1      27.654  66.119   8.174  1.00  0.00    -0.261 OA
HETATM    8  C3  UNL     1      29.460  66.998   7.276  1.00  0.00     0.318 C 
HETATM    9  O2  UNL     1      28.662  67.600   6.518  1.00  0.00    -0.262 OA
HETATM   10  N4  UNL     1      30.787  67.140   7.046  1.00  0.00    -0.283 N 
ATOM     11  H4  UNL     1      31.053  67.495   6.128  1.00  0.00     0.172 HD
HETATM   12  C4  UNL     1      31.802  66.862   7.904  1.00  0.00     0.293 C 
HETATM   13  O3  UNL     1      32.964  67.050   7.475  1.00  0.00    -0.264 OA
ENDROOT
BRANCH   1  14
HETATM   14  N1  UNL     1      32.807  66.528   9.931  1.00  0.00    -0.380 N 
ATOM     15  H12 UNL     1      33.719  66.436   9.485  1.00  0.00     0.158 HD
ATOM     16  H11 UNL     1      32.627  66.719  10.918  1.00  0.00     0.158 HD
ENDBRANCH   1  14
TORSDOF 1
ENDMDL
