MODEL 1
REMARK VINA RESULT: -6.311293433      0.000      0.000
REMARK  3 active torsions:
REMARK  status: ('A' for Active; 'I' for Inactive)
REMARK    1  A    between atoms: C1_4  and  N2_5 
REMARK    2  A    between atoms: C1_4  and  C3_15 
REMARK    3  A    between atoms: N2_5  and  C2_7 
ROOT
HETATM    1  N2  UNL     1      31.398  66.421   8.433  1.00  0.00    -0.170 N 
ATOM      2  H2  UNL     1      32.330  66.739   8.701  1.00  0.00     0.186 HD
ENDROOT
BRANCH   1   3
HETATM    3  C1  UNL     1      30.967  66.646   7.101  1.00  0.00     0.180 C 
HETATM    4  N1  UNL     1      31.776  67.251   6.309  1.00  0.00    -0.381 N 
ATOM      5  H12 UNL     1      32.687  67.545   6.659  1.00  0.00     0.157 HD
ATOM      6  H11 UNL     1      31.466  67.412   5.351  1.00  0.00     0.157 HD
BRANCH   3   7
HETATM    7  C3  UNL     1      29.666  66.226   6.602  1.00  0.00     0.298 C 
HETATM    8  N7  UNL     1      28.587  67.134   6.558  1.00  0.00    -0.054 NA
HETATM    9  O1  UNL     1      29.444  65.052   6.194  1.00  0.00    -0.268 OA
ENDBRANCH   3   7
ENDBRANCH   1   3
BRANCH   1  10
HETATM   10  C2  UNL     1      30.672  65.835   9.322  1.00  0.00     0.712 A 
HETATM   11  N3  UNL     1      30.444  64.505   9.299  1.00  0.00    -0.113 N 
HETATM   12  N4  UNL     1      29.671  64.230  10.338  1.00  0.00     0.009 NA
ATOM     13  H3  UNL     1      30.799  63.839   8.613  1.00  0.00     0.203 HD
HETATM   14  N5  UNL     1      29.402  65.335  11.015  1.00  0.00    -0.212 N 
HETATM   15  N6  UNL     1      30.022  66.314  10.383  1.00  0.00    -0.118 N 
ATOM     16  H5  UNL     1      28.831  65.415  11.856  1.00  0.00     0.206 HD
ATOM     17  H6  UNL     1      30.006  67.294  10.664  1.00  0.00     0.207 HD
ENDBRANCH   1  10
TORSDOF 3
ENDMDL
MODEL 2
REMARK VINA RESULT: -6.201296533      2.068      3.698
REMARK  3 active torsions:
REMARK  status: ('A' for Active; 'I' for Inactive)
REMARK    1  A    between atoms: C1_4  and  N2_5 
REMARK    2  A    between atoms: C1_4  and  C3_15 
REMARK    3  A    between atoms: N2_5  and  C2_7 
ROOT
HETATM    1  N2  UNL     1      30.561  66.389  10.067  1.00  0.00    -0.170 N 
ATOM      2  H2  UNL     1      30.592  67.040  10.851  1.00  0.00     0.186 HD
ENDROOT
BRANCH   1   3
HETATM    3  C1  UNL     1      29.523  65.423  10.033  1.00  0.00     0.180 C 
HETATM    4  N1  UNL     1      29.780  64.259  10.507  1.00  0.00    -0.381 N 
ATOM      5  H12 UNL     1      30.707  64.070  10.886  1.00  0.00     0.157 HD
ATOM      6  H11 UNL     1      29.034  63.564  10.483  1.00  0.00     0.157 HD
BRANCH   3   7
HETATM    7  C3  UNL     1      28.200  65.693   9.491  1.00  0.00     0.298 C 
HETATM    8  N7  UNL     1      28.030  65.974   8.119  1.00  0.00    -0.054 NA
HETATM    9  O1  UNL     1      27.161  65.690  10.209  1.00  0.00    -0.268 OA
ENDBRANCH   3   7
ENDBRANCH   1   3
BRANCH   1  10
HETATM   10  C2  UNL     1      31.468  66.485   9.156  1.00  0.00     0.712 A 
HETATM   11  N3  UNL     1      31.183  66.885   7.899  1.00  0.00    -0.113 N 
HETATM   12  N4  UNL     1      32.322  66.875   7.225  1.00  0.00     0.009 NA
ATOM     13  H3  UNL     1      30.265  67.145   7.538  1.00  0.00     0.203 HD
HETATM   14  N5  UNL     1      33.314  66.485   8.008  1.00  0.00    -0.212 N 
HETATM   15  N6  UNL     1      32.779  66.248   9.191  1.00  0.00    -0.118 N 
ATOM     16  H5  UNL     1      34.296  66.386   7.750  1.00  0.00     0.206 HD
ATOM     17  H6  UNL     1      33.294  65.930  10.012  1.00  0.00     0.207 HD
ENDBRANCH   1  10
TORSDOF 3
ENDMDL
MODEL 3
REMARK VINA RESULT: -6.125651451      1.374      1.454
REMARK  3 active torsions:
REMARK  status: ('A' for Active; 'I' for Inactive)
REMARK    1  A    between atoms: C1_4  and  N2_5 
REMARK    2  A    between atoms: C1_4  and  C3_15 
REMARK    3  A    between atoms: N2_5  and  C2_7 
ROOT
HETATM    1  N2  UNL     1      31.832  66.436   9.515  1.00  0.00    -0.170 N 
ATOM      2  H2  UNL     1      32.465  66.749  10.250  1.00  0.00     0.186 HD
ENDROOT
BRANCH   1   3
HETATM    3  C1  UNL     1      32.160  66.737   8.168  1.00  0.00     0.180 C 
HETATM    4  N1  UNL     1      33.403  66.836   7.868  1.00  0.00    -0.381 N 
ATOM      5  H12 UNL     1      34.103  66.697   8.596  1.00  0.00     0.157 HD
ATOM      6  H11 UNL     1      33.639  67.053   6.900  1.00  0.00     0.157 HD
BRANCH   3   7
HETATM    7  C3  UNL     1      31.161  66.937   7.130  1.00  0.00     0.298 C 
HETATM    8  N7  UNL     1      29.813  67.183   7.468  1.00  0.00    -0.054 NA
HETATM    9  O1  UNL     1      31.445  66.900   5.899  1.00  0.00    -0.268 OA
ENDBRANCH   3   7
ENDBRANCH   1   3
BRANCH   1  10
HETATM   10  C2  UNL     1      30.772  65.786   9.856  1.00  0.00     0.712 A 
HETATM   11  N3  UNL     1      30.625  64.469   9.599  1.00  0.00    -0.113 N 
HETATM   12  N4  UNL     1      29.441  64.116  10.074  1.00  0.00     0.009 NA
ATOM     13  H3  UNL     1      31.297  63.863   9.129  1.00  0.00     0.203 HD
HETATM   14  N5  UNL     1      28.836  65.159  10.620  1.00  0.00    -0.212 N 
HETATM   15  N6  UNL     1      29.662  66.178  10.481  1.00  0.00    -0.118 N 
ATOM     16  H5  UNL     1      27.916  65.172  11.060  1.00  0.00     0.206 HD
ATOM     17  H6  UNL     1      29.478  67.128  10.804  1.00  0.00     0.207 HD
ENDBRANCH   1  10
TORSDOF 3
ENDMDL
MODEL 4
REMARK VINA RESULT: -5.984637909      2.094      3.206
REMARK  3 active torsions:
REMARK  status: ('A' for Active; 'I' for Inactive)
REMARK    1  A    between atoms: C1_4  and  N2_5 
REMARK    2  A    between atoms: C1_4  and  C3_15 
REMARK    3  A    between atoms: N2_5  and  C2_7 
ROOT
HETATM    1  N2  UNL     1      30.208  65.867   6.836  1.00  0.00    -0.170 N 
ATOM      2  H2  UNL     1      30.160  65.183   6.081  1.00  0.00     0.186 HD
ENDROOT
BRANCH   1   3
HETATM    3  C1  UNL     1      29.008  66.501   7.248  1.00  0.00     0.180 C 
HETATM    4  N1  UNL     1      28.768  67.674   6.786  1.00  0.00    -0.381 N 
ATOM      5  H12 UNL     1      29.437  68.104   6.148  1.00  0.00     0.157 HD
ATOM      6  H11 UNL     1      27.905  68.130   7.081  1.00  0.00     0.157 HD
BRANCH   3   7
HETATM    7  C3  UNL     1      28.053  65.887   8.157  1.00  0.00     0.298 C 
HETATM    8  N7  UNL     1      26.696  65.754   7.792  1.00  0.00    -0.054 NA
HETATM    9  O1  UNL     1      28.385  65.452   9.296  1.00  0.00    -0.268 OA
ENDBRANCH   3   7
ENDBRANCH   1   3
BRANCH   1  10
HETATM   10  C2  UNL     1      31.356  66.112   7.369  1.00  0.00     0.712 A 
HETATM   11  N3  UNL     1      31.545  66.093   8.705  1.00  0.00    -0.113 N 
HETATM   12  N4  UNL     1      32.820  66.382   8.916  1.00  0.00     0.009 NA
ATOM     13  H3  UNL     1      30.841  65.894   9.416  1.00  0.00     0.203 HD
HETATM   14  N5  UNL     1      33.441  66.583   7.765  1.00  0.00    -0.212 N 
HETATM   15  N6  UNL     1      32.533  66.414   6.822  1.00  0.00    -0.118 N 
ATOM     16  H5  UNL     1      34.424  66.820   7.633  1.00  0.00     0.206 HD
ATOM     17  H6  UNL     1      32.707  66.502   5.821  1.00  0.00     0.207 HD
ENDBRANCH   1  10
TORSDOF 3
ENDMDL
MODEL 5
REMARK VINA RESULT: -5.913719486      2.020      3.736
REMARK  3 active torsions:
REMARK  status: ('A' for Active; 'I' for Inactive)
REMARK    1  A    between atoms: C1_4  and  N2_5 
REMARK    2  A    between atoms: C1_4  and  C3_15 
REMARK    3  A    between atoms: N2_5  and  C2_7 
ROOT
HETATM    1  N2  UNL     1      30.746  66.380   9.794  1.00  0.00    -0.170 N 
ATOM      2  H2  UNL     1      30.961  67.014  10.563  1.00  0.00     0.186 HD
ENDROOT
BRANCH   1   3
HETATM    3  C1  UNL     1      29.609  65.540   9.909  1.00  0.00     0.180 C 
HETATM    4  N1  UNL     1      29.767  64.401  10.477  1.00  0.00    -0.381 N 
ATOM      5  H12 UNL     1      30.691  64.141  10.822  1.00  0.00     0.157 HD
ATOM      6  H11 UNL     1      28.950  63.797  10.561  1.00  0.00     0.157 HD
BRANCH   3   7
HETATM    7  C3  UNL     1      28.291  65.911   9.418  1.00  0.00     0.298 C 
HETATM    8  N7  UNL     1      28.015  65.916   8.034  1.00  0.00    -0.054 NA
HETATM    9  O1  UNL     1      27.348  66.241  10.191  1.00  0.00    -0.268 OA
ENDBRANCH   3   7
ENDBRANCH   1   3
BRANCH   1  10
HETATM   10  C2  UNL     1      31.522  66.382   8.764  1.00  0.00     0.712 A 
HETATM   11  N3  UNL     1      32.862  66.493   8.877  1.00  0.00    -0.113 N 
HETATM   12  N4  UNL     1      33.355  66.460   7.648  1.00  0.00     0.009 NA
ATOM     13  H3  UNL     1      33.394  66.585   9.742  1.00  0.00     0.203 HD
HETATM   14  N5  UNL     1      32.377  66.333   6.766  1.00  0.00    -0.212 N 
HETATM   15  N6  UNL     1      31.256  66.285   7.462  1.00  0.00    -0.118 N 
ATOM     16  H5  UNL     1      32.470  66.282   5.751  1.00  0.00     0.206 HD
ATOM     17  H6  UNL     1      30.324  66.189   7.061  1.00  0.00     0.207 HD
ENDBRANCH   1  10
TORSDOF 3
ENDMDL
