MODEL 1
REMARK VINA RESULT: -6.843574062      0.000      0.000
REMARK  6 active torsions:
REMARK  status: ('A' for Active; 'I' for Inactive)
REMARK    1  A    between atoms: N1_1  and  C1_4 
REMARK    2  A    between atoms: C3_9  and  C4_10 
REMARK    3  A    between atoms: C5_12  and  N4_13 
REMARK       I    between atoms: N4_13  and  C6_15 
REMARK    4  A    between atoms: C6_15  and  O3_17 
REMARK    5  A    between atoms: O3_17  and  C7_18 
REMARK    6  A    between atoms: C7_18  and  C8_19 
ROOT
HETATM    1  C1  UNL     1     -14.820 -28.587 -24.490  1.00  0.00     0.678 A 
HETATM    2  N2  UNL     1     -15.945 -28.385 -25.198  1.00  0.00    -0.178 N 
ATOM      3  H2  UNL     1     -16.813 -28.207 -24.694  1.00  0.00     0.185 HD
HETATM    4  C2  UNL     1     -15.976 -28.407 -26.541  1.00  0.00     0.148 A 
HETATM    5  N3  UNL     1     -17.175 -28.191 -27.292  1.00  0.00    -0.081 NA
HETATM    6  C3  UNL     1     -14.766 -28.652 -27.203  1.00  0.00     0.088 A 
HETATM    7  C5  UNL     1     -13.602 -28.862 -26.494  1.00  0.00     0.142 A 
HETATM    8  N5  UNL     1     -13.671 -28.822 -25.153  1.00  0.00    -0.176 N 
ATOM      9  H5  UNL     1     -12.818 -28.976 -24.615  1.00  0.00     0.186 HD
ENDROOT
BRANCH   7  10
HETATM   10  N4  UNL     1     -12.530 -29.081 -27.146  1.00  0.00    -0.287 N 
HETATM   11  C6  UNL     1     -11.574 -28.083 -27.477  1.00  0.00     0.366 C 
HETATM   12  O2  UNL     1     -11.837 -27.063 -28.137  1.00  0.00    -0.238 OA
ATOM     13  H4  UNL     1     -12.346 -30.037 -27.451  1.00  0.00     0.172 HD
BRANCH  11  14
HETATM   14  O3  UNL     1     -10.279 -28.273 -27.030  1.00  0.00    -0.297 OA
BRANCH  14  15
HETATM   15  C7  UNL     1      -9.884 -28.555 -25.717  1.00  0.00     0.249 C 
BRANCH  15  16
HETATM   16  C8  UNL     1      -9.543 -29.988 -25.607  1.00  0.00     0.257 C 
HETATM   17  O4  UNL     1      -9.224 -30.476 -24.550  1.00  0.00    -0.305 OA
ENDBRANCH  15  16
ENDBRANCH  14  15
ENDBRANCH  11  14
ENDBRANCH   7  10
BRANCH   6  18
HETATM   18  C4  UNL     1     -14.734 -28.688 -28.646  1.00  0.00     0.277 C 
HETATM   19  O1  UNL     1     -14.377 -29.732 -29.240  1.00  0.00    -0.301 OA
ENDBRANCH   6  18
BRANCH   1  20
HETATM   20  N1  UNL     1     -14.828 -28.559 -23.178  1.00  0.00    -0.234 N 
ATOM     21  H12 UNL     1     -15.712 -28.605 -22.671  1.00  0.00     0.174 HD
ATOM     22  H11 UNL     1     -13.961 -28.491 -22.646  1.00  0.00     0.174 HD
ENDBRANCH   1  20
TORSDOF 6
ENDMDL
MODEL 2
REMARK VINA RESULT: -6.837783716      2.680      5.051
REMARK  6 active torsions:
REMARK  status: ('A' for Active; 'I' for Inactive)
REMARK    1  A    between atoms: N1_1  and  C1_4 
REMARK    2  A    between atoms: C3_9  and  C4_10 
REMARK    3  A    between atoms: C5_12  and  N4_13 
REMARK       I    between atoms: N4_13  and  C6_15 
REMARK    4  A    between atoms: C6_15  and  O3_17 
REMARK    5  A    between atoms: O3_17  and  C7_18 
REMARK    6  A    between atoms: C7_18  and  C8_19 
ROOT
HETATM    1  C1  UNL     1     -10.929 -28.142 -25.696  1.00  0.00     0.678 A 
HETATM    2  N2  UNL     1     -10.747 -28.245 -27.024  1.00  0.00    -0.178 N 
ATOM      3  H2  UNL     1      -9.794 -28.237 -27.388  1.00  0.00     0.185 HD
HETATM    4  C2  UNL     1     -11.764 -28.359 -27.895  1.00  0.00     0.148 A 
HETATM    5  N3  UNL     1     -11.566 -28.469 -29.309  1.00  0.00    -0.081 NA
HETATM    6  C3  UNL     1     -13.060 -28.368 -27.364  1.00  0.00     0.088 A 
HETATM    7  C5  UNL     1     -13.267 -28.263 -26.004  1.00  0.00     0.142 A 
HETATM    8  N5  UNL     1     -12.187 -28.153 -25.214  1.00  0.00    -0.176 N 
ATOM      9  H5  UNL     1     -12.324 -28.074 -24.206  1.00  0.00     0.186 HD
ENDROOT
BRANCH   7  10
HETATM   10  N4  UNL     1     -14.466 -28.276 -25.574  1.00  0.00    -0.287 N 
HETATM   11  C6  UNL     1     -15.170 -27.125 -25.126  1.00  0.00     0.366 C 
HETATM   12  O2  UNL     1     -14.782 -26.393 -24.199  1.00  0.00    -0.238 OA
ATOM     13  H4  UNL     1     -14.954 -29.172 -25.550  1.00  0.00     0.172 HD
BRANCH  11  14
HETATM   14  O3  UNL     1     -16.353 -26.815 -25.771  1.00  0.00    -0.297 OA
BRANCH  14  15
HETATM   15  C7  UNL     1     -17.598 -27.419 -25.563  1.00  0.00     0.249 C 
BRANCH  15  16
HETATM   16  C8  UNL     1     -17.886 -28.342 -26.679  1.00  0.00     0.257 C 
HETATM   17  O4  UNL     1     -17.262 -29.364 -26.823  1.00  0.00    -0.305 OA
ENDBRANCH  15  16
ENDBRANCH  14  15
ENDBRANCH  11  14
ENDBRANCH   7  10
BRANCH   6  18
HETATM   18  C4  UNL     1     -14.195 -28.487 -28.247  1.00  0.00     0.277 C 
HETATM   19  O1  UNL     1     -14.494 -29.601 -28.737  1.00  0.00    -0.301 OA
ENDBRANCH   6  18
BRANCH   1  20
HETATM   20  N1  UNL     1      -9.911 -28.033 -24.877  1.00  0.00    -0.234 N 
ATOM     21  H12 UNL     1      -9.167 -28.731 -24.889  1.00  0.00     0.174 HD
ATOM     22  H11 UNL     1      -9.843 -27.257 -24.220  1.00  0.00     0.174 HD
ENDBRANCH   1  20
TORSDOF 6
ENDMDL
MODEL 3
REMARK VINA RESULT: -6.579486498      3.005      5.321
REMARK  6 active torsions:
REMARK  status: ('A' for Active; 'I' for Inactive)
REMARK    1  A    between atoms: N1_1  and  C1_4 
REMARK    2  A    between atoms: C3_9  and  C4_10 
REMARK    3  A    between atoms: C5_12  and  N4_13 
REMARK       I    between atoms: N4_13  and  C6_15 
REMARK    4  A    between atoms: C6_15  and  O3_17 
REMARK    5  A    between atoms: O3_17  and  C7_18 
REMARK    6  A    between atoms: C7_18  and  C8_19 
ROOT
HETATM    1  C1  UNL     1     -10.828 -28.201 -25.718  1.00  0.00     0.678 A 
HETATM    2  N2  UNL     1     -10.683 -28.300 -27.051  1.00  0.00    -0.178 N 
ATOM      3  H2  UNL     1      -9.740 -28.313 -27.440  1.00  0.00     0.185 HD
HETATM    4  C2  UNL     1     -11.726 -28.382 -27.894  1.00  0.00     0.148 A 
HETATM    5  N3  UNL     1     -11.568 -28.488 -29.313  1.00  0.00    -0.081 NA
HETATM    6  C3  UNL     1     -13.007 -28.362 -27.328  1.00  0.00     0.088 A 
HETATM    7  C5  UNL     1     -13.175 -28.262 -25.963  1.00  0.00     0.142 A 
HETATM    8  N5  UNL     1     -12.072 -28.183 -25.202  1.00  0.00    -0.176 N 
ATOM      9  H5  UNL     1     -12.180 -28.108 -24.190  1.00  0.00     0.186 HD
ENDROOT
BRANCH   7  10
HETATM   10  N4  UNL     1     -14.362 -28.247 -25.501  1.00  0.00    -0.287 N 
HETATM   11  C6  UNL     1     -15.052 -27.071 -25.100  1.00  0.00     0.366 C 
HETATM   12  O2  UNL     1     -14.639 -26.289 -24.226  1.00  0.00    -0.238 OA
ATOM     13  H4  UNL     1     -14.850 -29.139 -25.413  1.00  0.00     0.172 HD
BRANCH  11  14
HETATM   14  O3  UNL     1     -16.252 -26.795 -25.729  1.00  0.00    -0.297 OA
BRANCH  14  15
HETATM   15  C7  UNL     1     -17.461 -27.478 -25.554  1.00  0.00     0.249 C 
BRANCH  15  16
HETATM   16  C8  UNL     1     -18.348 -26.686 -24.679  1.00  0.00     0.257 C 
HETATM   17  O4  UNL     1     -18.117 -25.526 -24.440  1.00  0.00    -0.305 OA
ENDBRANCH  15  16
ENDBRANCH  14  15
ENDBRANCH  11  14
ENDBRANCH   7  10
BRANCH   6  18
HETATM   18  C4  UNL     1     -14.168 -28.447 -28.182  1.00  0.00     0.277 C 
HETATM   19  O1  UNL     1     -14.526 -29.556 -28.644  1.00  0.00    -0.301 OA
ENDBRANCH   6  18
BRANCH   1  20
HETATM   20  N1  UNL     1      -9.785 -28.123 -24.926  1.00  0.00    -0.234 N 
ATOM     21  H12 UNL     1      -9.877 -27.711 -23.997  1.00  0.00     0.174 HD
ATOM     22  H11 UNL     1      -8.872 -28.468 -25.219  1.00  0.00     0.174 HD
ENDBRANCH   1  20
TORSDOF 6
ENDMDL
MODEL 4
REMARK VINA RESULT: -6.571282047      3.135      4.932
REMARK  6 active torsions:
REMARK  status: ('A' for Active; 'I' for Inactive)
REMARK    1  A    between atoms: N1_1  and  C1_4 
REMARK    2  A    between atoms: C3_9  and  C4_10 
REMARK    3  A    between atoms: C5_12  and  N4_13 
REMARK       I    between atoms: N4_13  and  C6_15 
REMARK    4  A    between atoms: C6_15  and  O3_17 
REMARK    5  A    between atoms: O3_17  and  C7_18 
REMARK    6  A    between atoms: C7_18  and  C8_19 
ROOT
HETATM    1  C1  UNL     1     -10.730 -28.174 -25.772  1.00  0.00     0.678 A 
HETATM    2  N2  UNL     1     -10.659 -28.416 -27.092  1.00  0.00    -0.178 N 
ATOM      3  H2  UNL     1      -9.748 -28.619 -27.503  1.00  0.00     0.185 HD
HETATM    4  C2  UNL     1     -11.737 -28.403 -27.895  1.00  0.00     0.148 A 
HETATM    5  N3  UNL     1     -11.658 -28.661 -29.301  1.00  0.00    -0.081 NA
HETATM    6  C3  UNL     1     -12.973 -28.122 -27.300  1.00  0.00     0.088 A 
HETATM    7  C5  UNL     1     -13.065 -27.872 -25.946  1.00  0.00     0.142 A 
HETATM    8  N5  UNL     1     -11.932 -27.906 -25.226  1.00  0.00    -0.176 N 
ATOM      9  H5  UNL     1     -11.984 -27.722 -24.224  1.00  0.00     0.186 HD
ENDROOT
BRANCH   7  10
HETATM   10  N4  UNL     1     -14.213 -27.621 -25.456  1.00  0.00    -0.287 N 
HETATM   11  C6  UNL     1     -14.991 -28.554 -24.718  1.00  0.00     0.366 C 
HETATM   12  O2  UNL     1     -15.355 -29.658 -25.161  1.00  0.00    -0.238 OA
ATOM     13  H4  UNL     1     -14.601 -26.689 -25.604  1.00  0.00     0.172 HD
BRANCH  11  14
HETATM   14  O3  UNL     1     -15.356 -28.198 -23.432  1.00  0.00    -0.297 OA
BRANCH  14  15
HETATM   15  C7  UNL     1     -15.991 -27.012 -23.045  1.00  0.00     0.249 C 
BRANCH  15  16
HETATM   16  C8  UNL     1     -15.967 -26.904 -21.573  1.00  0.00     0.257 C 
HETATM   17  O4  UNL     1     -15.426 -27.741 -20.892  1.00  0.00    -0.305 OA
ENDBRANCH  15  16
ENDBRANCH  14  15
ENDBRANCH  11  14
ENDBRANCH   7  10
BRANCH   6  18
HETATM   18  C4  UNL     1     -14.168 -28.093 -28.109  1.00  0.00     0.277 C 
HETATM   19  O1  UNL     1     -14.859 -29.129 -28.244  1.00  0.00    -0.301 OA
ENDBRANCH   6  18
BRANCH   1  20
HETATM   20  N1  UNL     1      -9.655 -28.196 -25.019  1.00  0.00    -0.234 N 
ATOM     21  H12 UNL     1      -8.752 -28.440 -25.424  1.00  0.00     0.174 HD
ATOM     22  H11 UNL     1      -9.702 -27.971 -24.026  1.00  0.00     0.174 HD
ENDBRANCH   1  20
TORSDOF 6
ENDMDL
MODEL 5
REMARK VINA RESULT: -6.554401817      3.261      5.244
REMARK  6 active torsions:
REMARK  status: ('A' for Active; 'I' for Inactive)
REMARK    1  A    between atoms: N1_1  and  C1_4 
REMARK    2  A    between atoms: C3_9  and  C4_10 
REMARK    3  A    between atoms: C5_12  and  N4_13 
REMARK       I    between atoms: N4_13  and  C6_15 
REMARK    4  A    between atoms: C6_15  and  O3_17 
REMARK    5  A    between atoms: O3_17  and  C7_18 
REMARK    6  A    between atoms: C7_18  and  C8_19 
ROOT
HETATM    1  C1  UNL     1     -11.060 -27.950 -25.657  1.00  0.00     0.678 A 
HETATM    2  N2  UNL     1     -10.817 -28.216 -26.952  1.00  0.00    -0.178 N 
ATOM      3  H2  UNL     1      -9.850 -28.347 -27.250  1.00  0.00     0.185 HD
HETATM    4  C2  UNL     1     -11.791 -28.316 -27.872  1.00  0.00     0.148 A 
HETATM    5  N3  UNL     1     -11.529 -28.600 -29.251  1.00  0.00    -0.081 NA
HETATM    6  C3  UNL     1     -13.107 -28.131 -27.430  1.00  0.00     0.088 A 
HETATM    7  C5  UNL     1     -13.376 -27.859 -26.105  1.00  0.00     0.142 A 
HETATM    8  N5  UNL     1     -12.335 -27.777 -25.260  1.00  0.00    -0.176 N 
ATOM      9  H5  UNL     1     -12.518 -27.574 -24.277  1.00  0.00     0.186 HD
ENDROOT
BRANCH   7  10
HETATM   10  N4  UNL     1     -14.591 -27.699 -25.757  1.00  0.00    -0.287 N 
HETATM   11  C6  UNL     1     -15.067 -27.832 -24.424  1.00  0.00     0.366 C 
HETATM   12  O2  UNL     1     -14.946 -28.866 -23.744  1.00  0.00    -0.238 OA
ATOM     13  H4  UNL     1     -15.267 -27.460 -26.483  1.00  0.00     0.172 HD
BRANCH  11  14
HETATM   14  O3  UNL     1     -15.700 -26.736 -23.866  1.00  0.00    -0.297 OA
BRANCH  14  15
HETATM   15  C7  UNL     1     -15.355 -25.392 -24.048  1.00  0.00     0.249 C 
BRANCH  15  16
HETATM   16  C8  UNL     1     -16.549 -24.548 -23.840  1.00  0.00     0.257 C 
HETATM   17  O4  UNL     1     -16.624 -23.442 -24.316  1.00  0.00    -0.305 OA
ENDBRANCH  15  16
ENDBRANCH  14  15
ENDBRANCH  11  14
ENDBRANCH   7  10
BRANCH   6  18
HETATM   18  C4  UNL     1     -14.199 -28.227 -28.370  1.00  0.00     0.277 C 
HETATM   19  O1  UNL     1     -14.933 -29.242 -28.377  1.00  0.00    -0.301 OA
ENDBRANCH   6  18
BRANCH   1  20
HETATM   20  N1  UNL     1     -10.082 -27.860 -24.787  1.00  0.00    -0.234 N 
ATOM     21  H12 UNL     1      -9.114 -27.833 -25.106  1.00  0.00     0.174 HD
ATOM     22  H11 UNL     1     -10.268 -27.814 -23.786  1.00  0.00     0.174 HD
ENDBRANCH   1  20
TORSDOF 6
ENDMDL
