MODEL 1
REMARK VINA RESULT: -7.447351480      0.000      0.000
REMARK  3 active torsions:
REMARK  status: ('A' for Active; 'I' for Inactive)
REMARK       I    between atoms: C1_4  and  N3_6 
REMARK    1  A    between atoms: N3_6  and  N4_8 
REMARK    2  A    between atoms: N4_8  and  C2_10 
REMARK    3  A    between atoms: C3_11  and  C4_12 
ROOT
HETATM    1  C4  UNL     1     -15.493 -27.750 -26.499  1.00  0.00     0.085 A 
HETATM    2  N5  UNL     1     -16.261 -27.160 -25.610  1.00  0.00    -0.337 N 
ATOM      3  H5  UNL     1     -15.815 -26.607 -24.878  1.00  0.00     0.167 HD
HETATM    4  C5  UNL     1     -17.673 -27.249 -25.613  1.00  0.00     0.134 A 
HETATM    5  N6  UNL     1     -18.605 -26.757 -24.847  1.00  0.00    -0.337 N 
ATOM      6  H6  UNL     1     -18.436 -26.164 -24.034  1.00  0.00     0.168 HD
HETATM    7  C6  UNL     1     -19.886 -27.159 -25.297  1.00  0.00     0.182 A 
HETATM    8  N7  UNL     1     -19.777 -27.904 -26.345  1.00  0.00    -0.349 N 
ATOM      9  H7  UNL     1     -20.541 -28.329 -26.871  1.00  0.00     0.166 HD
HETATM   10  C7  UNL     1     -18.380 -28.020 -26.628  1.00  0.00     0.081 A 
HETATM   11  C8  UNL     1     -17.649 -28.622 -27.530  1.00  0.00     0.090 A 
HETATM   12  C9  UNL     1     -16.170 -28.520 -27.516  1.00  0.00     0.200 A 
HETATM   13  O1  UNL     1     -15.522 -29.119 -28.407  1.00  0.00    -0.286 OA
ENDROOT
BRANCH   1  14
HETATM   14  C3  UNL     1     -14.043 -27.579 -26.385  1.00  0.00     0.052 C 
HETATM   15  C2  UNL     1     -13.396 -26.854 -25.533  1.00  0.00     0.109 C 
BRANCH  15  16
HETATM   16  N4  UNL     1     -11.956 -26.806 -25.571  1.00  0.00    -0.309 N 
ATOM     17  H4  UNL     1     -11.450 -26.360 -24.806  1.00  0.00     0.186 HD
BRANCH  16  18
HETATM   18  N3  UNL     1     -11.239 -27.360 -26.633  1.00  0.00    -0.274 N 
HETATM   19  C1  UNL     1     -10.404 -28.506 -26.467  1.00  0.00     0.200 C 
HETATM   20  N1  UNL     1     -10.415 -29.508 -27.266  1.00  0.00    -0.372 N 
HETATM   21  N2  UNL     1      -9.491 -28.584 -25.361  1.00  0.00    -0.062 NA
ATOM     22  H12 UNL     1      -9.819 -30.327 -27.147  1.00  0.00     0.158 HD
ATOM     23  H11 UNL     1     -11.063 -29.453 -28.051  1.00  0.00     0.158 HD
ATOM     24  H3  UNL     1     -11.314 -26.932 -27.556  1.00  0.00     0.189 HD
ENDBRANCH  16  18
ENDBRANCH  15  16
ENDBRANCH   1  14
TORSDOF 3
ENDMDL
MODEL 2
REMARK VINA RESULT: -7.433626683      2.979      6.326
REMARK  3 active torsions:
REMARK  status: ('A' for Active; 'I' for Inactive)
REMARK       I    between atoms: C1_4  and  N3_6 
REMARK    1  A    between atoms: N3_6  and  N4_8 
REMARK    2  A    between atoms: N4_8  and  C2_10 
REMARK    3  A    between atoms: C3_11  and  C4_12 
ROOT
HETATM    1  C4  UNL     1     -14.173 -27.060 -25.522  1.00  0.00     0.085 A 
HETATM    2  N5  UNL     1     -12.934 -27.025 -25.085  1.00  0.00    -0.337 N 
ATOM      3  H5  UNL     1     -12.720 -26.425 -24.289  1.00  0.00     0.167 HD
HETATM    4  C5  UNL     1     -11.879 -27.775 -25.659  1.00  0.00     0.134 A 
HETATM    5  N6  UNL     1     -10.609 -27.888 -25.391  1.00  0.00    -0.337 N 
ATOM      6  H6  UNL     1     -10.128 -27.393 -24.638  1.00  0.00     0.168 HD
HETATM    7  C6  UNL     1      -9.987 -28.790 -26.287  1.00  0.00     0.182 A 
HETATM    8  N7  UNL     1     -10.853 -29.253 -27.125  1.00  0.00    -0.349 N 
ATOM      9  H7  UNL     1     -10.674 -29.919 -27.877  1.00  0.00     0.166 HD
HETATM   10  C7  UNL     1     -12.109 -28.654 -26.797  1.00  0.00     0.081 A 
HETATM   11  C8  UNL     1     -13.331 -28.715 -27.261  1.00  0.00     0.090 A 
HETATM   12  C9  UNL     1     -14.427 -27.925 -26.650  1.00  0.00     0.200 A 
HETATM   13  O1  UNL     1     -15.577 -28.025 -27.138  1.00  0.00    -0.286 OA
ENDROOT
BRANCH   1  14
HETATM   14  C3  UNL     1     -15.173 -26.235 -24.840  1.00  0.00     0.052 C 
HETATM   15  C2  UNL     1     -15.026 -25.040 -24.370  1.00  0.00     0.109 C 
BRANCH  15  16
HETATM   16  N4  UNL     1     -16.131 -24.377 -23.724  1.00  0.00    -0.309 N 
ATOM     17  H4  UNL     1     -17.052 -24.402 -24.160  1.00  0.00     0.186 HD
BRANCH  16  18
HETATM   18  N3  UNL     1     -15.964 -23.702 -22.514  1.00  0.00    -0.274 N 
HETATM   19  C1  UNL     1     -15.294 -24.297 -21.402  1.00  0.00     0.200 C 
HETATM   20  N1  UNL     1     -14.402 -23.690 -20.709  1.00  0.00    -0.372 N 
HETATM   21  N2  UNL     1     -15.604 -25.641 -21.003  1.00  0.00    -0.062 NA
ATOM     22  H12 UNL     1     -13.924 -24.115 -19.915  1.00  0.00     0.158 HD
ATOM     23  H11 UNL     1     -14.183 -22.735 -20.992  1.00  0.00     0.158 HD
ATOM     24  H3  UNL     1     -16.332 -22.755 -22.421  1.00  0.00     0.189 HD
ENDBRANCH  16  18
ENDBRANCH  15  16
ENDBRANCH   1  14
TORSDOF 3
ENDMDL
MODEL 3
REMARK VINA RESULT: -7.237787337      2.690      3.518
REMARK  3 active torsions:
REMARK  status: ('A' for Active; 'I' for Inactive)
REMARK       I    between atoms: C1_4  and  N3_6 
REMARK    1  A    between atoms: N3_6  and  N4_8 
REMARK    2  A    between atoms: N4_8  and  C2_10 
REMARK    3  A    between atoms: C3_11  and  C4_12 
ROOT
HETATM    1  C4  UNL     1     -15.358 -27.034 -25.117  1.00  0.00     0.085 A 
HETATM    2  N5  UNL     1     -14.812 -26.318 -24.160  1.00  0.00    -0.337 N 
ATOM      3  H5  UNL     1     -13.806 -26.400 -24.010  1.00  0.00     0.167 HD
HETATM    4  C5  UNL     1     -15.541 -25.439 -23.325  1.00  0.00     0.134 A 
HETATM    5  N6  UNL     1     -15.209 -24.654 -22.340  1.00  0.00    -0.337 N 
ATOM      6  H6  UNL     1     -14.260 -24.542 -21.981  1.00  0.00     0.168 HD
HETATM    7  C6  UNL     1     -16.344 -23.976 -21.835  1.00  0.00     0.182 A 
HETATM    8  N7  UNL     1     -17.400 -24.324 -22.492  1.00  0.00    -0.349 N 
ATOM      9  H7  UNL     1     -18.350 -23.989 -22.336  1.00  0.00     0.166 HD
HETATM   10  C7  UNL     1     -16.980 -25.269 -23.480  1.00  0.00     0.081 A 
HETATM   11  C8  UNL     1     -17.561 -25.966 -24.423  1.00  0.00     0.090 A 
HETATM   12  C9  UNL     1     -16.784 -26.883 -25.291  1.00  0.00     0.200 A 
HETATM   13  O1  UNL     1     -17.396 -27.524 -26.178  1.00  0.00    -0.286 OA
ENDROOT
BRANCH   1  14
HETATM   14  C3  UNL     1     -14.492 -27.907 -25.912  1.00  0.00     0.052 C 
HETATM   15  C2  UNL     1     -13.814 -28.930 -25.507  1.00  0.00     0.109 C 
BRANCH  15  16
HETATM   16  N4  UNL     1     -13.008 -29.678 -26.440  1.00  0.00    -0.309 N 
ATOM     17  H4  UNL     1     -13.422 -30.467 -26.936  1.00  0.00     0.186 HD
BRANCH  16  18
HETATM   18  N3  UNL     1     -11.675 -29.343 -26.678  1.00  0.00    -0.274 N 
HETATM   19  C1  UNL     1     -11.301 -28.369 -27.654  1.00  0.00     0.200 C 
HETATM   20  N1  UNL     1     -10.450 -27.438 -27.432  1.00  0.00    -0.372 N 
HETATM   21  N2  UNL     1     -11.886 -28.398 -28.965  1.00  0.00    -0.062 NA
ATOM     22  H12 UNL     1     -10.183 -26.743 -28.130  1.00  0.00     0.158 HD
ATOM     23  H11 UNL     1     -10.034 -27.418 -26.501  1.00  0.00     0.158 HD
ATOM     24  H3  UNL     1     -10.944 -29.806 -26.138  1.00  0.00     0.189 HD
ENDBRANCH  16  18
ENDBRANCH  15  16
ENDBRANCH   1  14
TORSDOF 3
ENDMDL
MODEL 4
REMARK VINA RESULT: -7.219926805      2.684      6.893
REMARK  3 active torsions:
REMARK  status: ('A' for Active; 'I' for Inactive)
REMARK       I    between atoms: C1_4  and  N3_6 
REMARK    1  A    between atoms: N3_6  and  N4_8 
REMARK    2  A    between atoms: N4_8  and  C2_10 
REMARK    3  A    between atoms: C3_11  and  C4_12 
ROOT
HETATM    1  C4  UNL     1     -14.479 -27.262 -25.696  1.00  0.00     0.085 A 
HETATM    2  N5  UNL     1     -13.285 -27.100 -25.171  1.00  0.00    -0.337 N 
ATOM      3  H5  UNL     1     -13.189 -26.467 -24.377  1.00  0.00     0.167 HD
HETATM    4  C5  UNL     1     -12.124 -27.755 -25.647  1.00  0.00     0.134 A 
HETATM    5  N6  UNL     1     -10.873 -27.740 -25.284  1.00  0.00    -0.337 N 
ATOM      6  H6  UNL     1     -10.499 -27.188 -24.512  1.00  0.00     0.168 HD
HETATM    7  C6  UNL     1     -10.103 -28.595 -26.109  1.00  0.00     0.182 A 
HETATM    8  N7  UNL     1     -10.856 -29.156 -26.995  1.00  0.00    -0.349 N 
ATOM      9  H7  UNL     1     -10.559 -29.815 -27.715  1.00  0.00     0.166 HD
HETATM   10  C7  UNL     1     -12.184 -28.675 -26.776  1.00  0.00     0.081 A 
HETATM   11  C8  UNL     1     -13.356 -28.862 -27.325  1.00  0.00     0.090 A 
HETATM   12  C9  UNL     1     -14.565 -28.169 -26.817  1.00  0.00     0.200 A 
HETATM   13  O1  UNL     1     -15.661 -28.389 -27.384  1.00  0.00    -0.286 OA
ENDROOT
BRANCH   1  14
HETATM   14  C3  UNL     1     -15.600 -26.525 -25.110  1.00  0.00     0.052 C 
HETATM   15  C2  UNL     1     -15.550 -25.530 -24.287  1.00  0.00     0.109 C 
BRANCH  15  16
HETATM   16  N4  UNL     1     -16.768 -24.923 -23.811  1.00  0.00    -0.309 N 
ATOM     17  H4  UNL     1     -17.653 -25.411 -23.942  1.00  0.00     0.186 HD
BRANCH  16  18
HETATM   18  N3  UNL     1     -16.759 -23.681 -23.175  1.00  0.00    -0.274 N 
HETATM   19  C1  UNL     1     -17.926 -22.861 -23.099  1.00  0.00     0.200 C 
HETATM   20  N1  UNL     1     -18.316 -22.287 -22.021  1.00  0.00    -0.372 N 
HETATM   21  N2  UNL     1     -18.734 -22.641 -24.265  1.00  0.00    -0.062 NA
ATOM     22  H12 UNL     1     -19.149 -21.702 -21.967  1.00  0.00     0.158 HD
ATOM     23  H11 UNL     1     -17.742 -22.443 -21.193  1.00  0.00     0.158 HD
ATOM     24  H3  UNL     1     -15.893 -23.349 -22.750  1.00  0.00     0.189 HD
ENDBRANCH  16  18
ENDBRANCH  15  16
ENDBRANCH   1  14
TORSDOF 3
ENDMDL
MODEL 5
REMARK VINA RESULT: -7.206250592      1.286      1.666
REMARK  3 active torsions:
REMARK  status: ('A' for Active; 'I' for Inactive)
REMARK       I    between atoms: C1_4  and  N3_6 
REMARK    1  A    between atoms: N3_6  and  N4_8 
REMARK    2  A    between atoms: N4_8  and  C2_10 
REMARK    3  A    between atoms: C3_11  and  C4_12 
ROOT
HETATM    1  C4  UNL     1     -14.767 -27.683 -26.392  1.00  0.00     0.085 A 
HETATM    2  N5  UNL     1     -14.959 -26.925 -25.335  1.00  0.00    -0.337 N 
ATOM      3  H5  UNL     1     -14.141 -26.564 -24.845  1.00  0.00     0.167 HD
HETATM    4  C5  UNL     1     -16.239 -26.582 -24.839  1.00  0.00     0.134 A 
HETATM    5  N6  UNL     1     -16.649 -25.863 -23.833  1.00  0.00    -0.337 N 
ATOM      6  H6  UNL     1     -16.035 -25.382 -23.174  1.00  0.00     0.168 HD
HETATM    7  C6  UNL     1     -18.063 -25.839 -23.778  1.00  0.00     0.182 A 
HETATM    8  N7  UNL     1     -18.558 -26.538 -24.743  1.00  0.00    -0.349 N 
ATOM      9  H7  UNL     1     -19.548 -26.690 -24.938  1.00  0.00     0.166 HD
HETATM   10  C7  UNL     1     -17.454 -27.060 -25.486  1.00  0.00     0.081 A 
HETATM   11  C8  UNL     1     -17.303 -27.818 -26.542  1.00  0.00     0.090 A 
HETATM   12  C9  UNL     1     -15.956 -28.170 -27.051  1.00  0.00     0.200 A 
HETATM   13  O1  UNL     1     -15.875 -28.900 -28.067  1.00  0.00    -0.286 OA
ENDROOT
BRANCH   1  14
HETATM   14  C3  UNL     1     -13.390 -27.964 -26.803  1.00  0.00     0.052 C 
HETATM   15  C2  UNL     1     -12.405 -27.132 -26.893  1.00  0.00     0.109 C 
BRANCH  15  16
HETATM   16  N4  UNL     1     -11.107 -27.592 -27.319  1.00  0.00    -0.309 N 
ATOM     17  H4  UNL     1     -10.490 -26.952 -27.817  1.00  0.00     0.186 HD
BRANCH  16  18
HETATM   18  N3  UNL     1     -10.679 -28.895 -27.062  1.00  0.00    -0.274 N 
HETATM   19  C1  UNL     1     -10.137 -29.279 -25.798  1.00  0.00     0.200 C 
HETATM   20  N1  UNL     1     -10.487 -30.342 -25.173  1.00  0.00    -0.372 N 
HETATM   21  N2  UNL     1      -9.147 -28.461 -25.156  1.00  0.00    -0.062 NA
ATOM     22  H12 UNL     1     -10.100 -30.615 -24.270  1.00  0.00     0.158 HD
ATOM     23  H11 UNL     1     -11.190 -30.923 -25.629  1.00  0.00     0.158 HD
ATOM     24  H3  UNL     1     -10.755 -29.595 -27.800  1.00  0.00     0.189 HD
ENDBRANCH  16  18
ENDBRANCH  15  16
ENDBRANCH   1  14
TORSDOF 3
ENDMDL
