MODEL 1
REMARK VINA RESULT: -7.134272261      0.000      0.000
REMARK  13 active torsions:
REMARK  status: ('A' for Active; 'I' for Inactive)
REMARK    1  A    between atoms: N2_4  and  N3_6 
REMARK       I    between atoms: N3_6  and  C1_8 
REMARK       I    between atoms: C1_8  and  N5_13 
REMARK    2  A    between atoms: N4_9  and  O1_11 
REMARK    3  A    between atoms: N5_13  and  C2_15 
REMARK    4  A    between atoms: C2_15  and  C3_16 
REMARK    5  A    between atoms: C5_19  and  C6_20 
REMARK    6  A    between atoms: C6_20  and  N6_21 
REMARK    7  A    between atoms: N6_21  and  C7_24 
REMARK    8  A    between atoms: C7_24  and  C8_25 
REMARK    9  A    between atoms: C8_25  and  O3_26 
REMARK   10  A    between atoms: O3_26  and  C9_27 
REMARK   11  A    between atoms: C9_27  and  C10_28 
REMARK   12  A    between atoms: C10_28  and  N7_29 
REMARK   13  A    between atoms: C11_36  and  O4_37 
ROOT
HETATM    1  C3  UNL     1      34.312  53.062  18.668  1.00  0.00     0.216 C 
HETATM    2  O2  UNL     1      34.699  52.463  17.466  1.00  0.00    -0.374 OA
HETATM    3  C4  UNL     1      36.013  52.789  17.138  1.00  0.00     0.203 C 
HETATM    4  C5  UNL     1      36.240  54.289  17.370  1.00  0.00     0.238 C 
HETATM    5  N8  UNL     1      36.322  54.469  18.791  1.00  0.00    -0.038 N 
ATOM      6  H81 UNL     1      36.143  55.438  19.054  1.00  0.00     0.281 HD
ATOM      7  H82 UNL     1      37.283  54.390  19.122  1.00  0.00     0.281 HD
HETATM    8  C11 UNL     1      35.437  53.552  19.502  1.00  0.00     0.353 C 
ENDROOT
BRANCH   1   9
HETATM    9  C2  UNL     1      33.456  52.026  19.352  1.00  0.00     0.115 C 
BRANCH   9  10
HETATM   10  N5  UNL     1      33.386  52.080  20.754  1.00  0.00    -0.200 N 
HETATM   11  C1  UNL     1      33.590  50.973  21.581  1.00  0.00     0.717 C 
HETATM   12  N3  UNL     1      34.678  50.104  21.458  1.00  0.00    -0.116 N 
HETATM   13  N4  UNL     1      32.732  50.724  22.524  1.00  0.00    -0.097 N 
ATOM     14  H3  UNL     1      34.966  49.619  22.308  1.00  0.00     0.207 HD
ATOM     15  H4  UNL     1      32.865  49.921  23.139  1.00  0.00     0.213 HD
ATOM     16  H5  UNL     1      33.175  52.977  21.192  1.00  0.00     0.183 HD
BRANCH  12  17
HETATM   17  N2  UNL     1      35.413  49.824  20.311  1.00  0.00    -0.235 N 
HETATM   18  N1  UNL     1      35.098  48.909  19.523  1.00  0.00    -0.330 N 
ATOM     19  H12 UNL     1      34.269  48.356  19.743  1.00  0.00     0.178 HD
ATOM     20  H11 UNL     1      35.637  48.703  18.682  1.00  0.00     0.178 HD
ATOM     21  H2  UNL     1      36.240  50.386  20.106  1.00  0.00     0.208 HD
ENDBRANCH  12  17
BRANCH  13  22
HETATM   22  O1  UNL     1      31.663  51.536  22.683  1.00  0.00    -0.276 OA
ATOM     23  H1  UNL     1      31.794  52.476  22.741  1.00  0.00     0.245 HD
ENDBRANCH  13  22
ENDBRANCH   9  10
ENDBRANCH   1   9
BRANCH   8  24
HETATM   24  O4  UNL     1      36.234  52.555  20.048  1.00  0.00    -0.367 OA
ATOM     25  H4  UNL     1      36.801  52.113  19.427  1.00  0.00     0.212 HD
ENDBRANCH   8  24
BRANCH   4  26
HETATM   26  C6  UNL     1      37.449  54.647  16.566  1.00  0.00     0.267 C 
BRANCH  26  27
HETATM   27  N6  UNL     1      37.278  55.680  15.619  1.00  0.00    -0.071 N 
ATOM     28  H62 UNL     1      36.295  55.921  15.491  1.00  0.00     0.277 HD
ATOM     29  H61 UNL     1      37.609  56.578  15.971  1.00  0.00     0.277 HD
BRANCH  27  30
HETATM   30  C7  UNL     1      37.925  55.316  14.343  1.00  0.00     0.258 C 
BRANCH  30  31
HETATM   31  C8  UNL     1      36.929  54.801  13.353  1.00  0.00     0.195 C 
BRANCH  31  32
HETATM   32  O3  UNL     1      36.499  53.552  13.478  1.00  0.00    -0.388 OA
BRANCH  32  33
HETATM   33  C9  UNL     1      35.242  53.150  13.626  1.00  0.00     0.195 C 
BRANCH  33  34
HETATM   34  C10 UNL     1      34.153  54.195  13.670  1.00  0.00     0.255 C 
BRANCH  34  35
HETATM   35  N7  UNL     1      33.519  54.105  14.991  1.00  0.00    -0.077 N 
ATOM     36  H73 UNL     1      34.193  54.070  15.757  1.00  0.00     0.274 HD
ATOM     37  H72 UNL     1      33.050  54.967  15.270  1.00  0.00     0.274 HD
ATOM     38  H71 UNL     1      32.894  53.298  14.971  1.00  0.00     0.274 HD
ENDBRANCH  34  35
ENDBRANCH  33  34
ENDBRANCH  32  33
ENDBRANCH  31  32
ENDBRANCH  30  31
ENDBRANCH  27  30
ENDBRANCH  26  27
ENDBRANCH   4  26
TORSDOF 13
ENDMDL
MODEL 2
REMARK VINA RESULT: -7.073890178      2.051      2.701
REMARK  13 active torsions:
REMARK  status: ('A' for Active; 'I' for Inactive)
REMARK    1  A    between atoms: N2_4  and  N3_6 
REMARK       I    between atoms: N3_6  and  C1_8 
REMARK       I    between atoms: C1_8  and  N5_13 
REMARK    2  A    between atoms: N4_9  and  O1_11 
REMARK    3  A    between atoms: N5_13  and  C2_15 
REMARK    4  A    between atoms: C2_15  and  C3_16 
REMARK    5  A    between atoms: C5_19  and  C6_20 
REMARK    6  A    between atoms: C6_20  and  N6_21 
REMARK    7  A    between atoms: N6_21  and  C7_24 
REMARK    8  A    between atoms: C7_24  and  C8_25 
REMARK    9  A    between atoms: C8_25  and  O3_26 
REMARK   10  A    between atoms: O3_26  and  C9_27 
REMARK   11  A    between atoms: C9_27  and  C10_28 
REMARK   12  A    between atoms: C10_28  and  N7_29 
REMARK   13  A    between atoms: C11_36  and  O4_37 
ROOT
HETATM    1  C3  UNL     1      33.582  52.250  19.771  1.00  0.00     0.216 C 
HETATM    2  O2  UNL     1      33.634  51.497  18.595  1.00  0.00    -0.374 OA
HETATM    3  C4  UNL     1      34.584  52.005  17.710  1.00  0.00     0.203 C 
HETATM    4  C5  UNL     1      34.461  53.534  17.653  1.00  0.00     0.238 C 
HETATM    5  N8  UNL     1      35.020  54.030  18.878  1.00  0.00    -0.038 N 
ATOM      6  H81 UNL     1      34.696  54.975  19.079  1.00  0.00     0.281 HD
ATOM      7  H82 UNL     1      36.018  54.221  18.781  1.00  0.00     0.281 HD
HETATM    8  C11 UNL     1      34.757  53.127  19.994  1.00  0.00     0.353 C 
ENDROOT
BRANCH   1   9
HETATM    9  C2  UNL     1      33.366  51.234  20.865  1.00  0.00     0.115 C 
BRANCH   9  10
HETATM   10  N5  UNL     1      33.483  49.880  20.509  1.00  0.00    -0.200 N 
HETATM   11  C1  UNL     1      34.707  49.234  20.322  1.00  0.00     0.717 C 
HETATM   12  N3  UNL     1      35.768  49.306  21.230  1.00  0.00    -0.116 N 
HETATM   13  N4  UNL     1      34.886  48.520  19.253  1.00  0.00    -0.097 N 
ATOM     14  H3  UNL     1      36.412  48.514  21.235  1.00  0.00     0.207 HD
ATOM     15  H4  UNL     1      35.772  48.038  19.099  1.00  0.00     0.213 HD
ATOM     16  H5  UNL     1      32.628  49.340  20.381  1.00  0.00     0.183 HD
BRANCH  12  17
HETATM   17  N2  UNL     1      36.048  50.332  22.127  1.00  0.00    -0.235 N 
HETATM   18  N1  UNL     1      37.188  50.511  22.601  1.00  0.00    -0.330 N 
ATOM     19  H12 UNL     1      37.929  49.873  22.311  1.00  0.00     0.178 HD
ATOM     20  H11 UNL     1      37.393  51.263  23.259  1.00  0.00     0.178 HD
ATOM     21  H2  UNL     1      35.294  50.960  22.406  1.00  0.00     0.208 HD
ENDBRANCH  12  17
BRANCH  13  22
HETATM   22  O1  UNL     1      33.889  48.418  18.345  1.00  0.00    -0.276 OA
ATOM     23  H1  UNL     1      34.051  48.667  17.442  1.00  0.00     0.245 HD
ENDBRANCH  13  22
ENDBRANCH   9  10
ENDBRANCH   1   9
BRANCH   8  24
HETATM   24  O4  UNL     1      35.942  52.456  20.266  1.00  0.00    -0.367 OA
ATOM     25  H4  UNL     1      36.711  53.011  20.316  1.00  0.00     0.212 HD
ENDBRANCH   8  24
BRANCH   4  26
HETATM   26  C6  UNL     1      35.129  53.948  16.381  1.00  0.00     0.267 C 
BRANCH  26  27
HETATM   27  N6  UNL     1      35.997  52.998  15.800  1.00  0.00    -0.071 N 
ATOM     28  H62 UNL     1      36.975  53.206  16.001  1.00  0.00     0.277 HD
ATOM     29  H61 UNL     1      35.936  52.093  16.266  1.00  0.00     0.277 HD
BRANCH  27  30
HETATM   30  C7  UNL     1      35.743  52.891  14.351  1.00  0.00     0.258 C 
BRANCH  30  31
HETATM   31  C8  UNL     1      34.975  51.651  14.021  1.00  0.00     0.195 C 
BRANCH  31  32
HETATM   32  O3  UNL     1      33.658  51.739  13.884  1.00  0.00    -0.388 OA
BRANCH  32  33
HETATM   33  C9  UNL     1      32.995  52.299  12.879  1.00  0.00     0.195 C 
BRANCH  33  34
HETATM   34  C10 UNL     1      32.666  53.770  12.965  1.00  0.00     0.255 C 
BRANCH  34  35
HETATM   35  N7  UNL     1      32.151  54.021  14.317  1.00  0.00    -0.077 N 
ATOM     36  H73 UNL     1      31.132  54.051  14.358  1.00  0.00     0.274 HD
ATOM     37  H72 UNL     1      32.284  53.230  14.948  1.00  0.00     0.274 HD
ATOM     38  H71 UNL     1      32.590  54.878  14.653  1.00  0.00     0.274 HD
ENDBRANCH  34  35
ENDBRANCH  33  34
ENDBRANCH  32  33
ENDBRANCH  31  32
ENDBRANCH  30  31
ENDBRANCH  27  30
ENDBRANCH  26  27
ENDBRANCH   4  26
TORSDOF 13
ENDMDL
MODEL 3
REMARK VINA RESULT: -7.059646564      1.435      2.249
REMARK  13 active torsions:
REMARK  status: ('A' for Active; 'I' for Inactive)
REMARK    1  A    between atoms: N2_4  and  N3_6 
REMARK       I    between atoms: N3_6  and  C1_8 
REMARK       I    between atoms: C1_8  and  N5_13 
REMARK    2  A    between atoms: N4_9  and  O1_11 
REMARK    3  A    between atoms: N5_13  and  C2_15 
REMARK    4  A    between atoms: C2_15  and  C3_16 
REMARK    5  A    between atoms: C5_19  and  C6_20 
REMARK    6  A    between atoms: C6_20  and  N6_21 
REMARK    7  A    between atoms: N6_21  and  C7_24 
REMARK    8  A    between atoms: C7_24  and  C8_25 
REMARK    9  A    between atoms: C8_25  and  O3_26 
REMARK   10  A    between atoms: O3_26  and  C9_27 
REMARK   11  A    between atoms: C9_27  and  C10_28 
REMARK   12  A    between atoms: C10_28  and  N7_29 
REMARK   13  A    between atoms: C11_36  and  O4_37 
ROOT
HETATM    1  C3  UNL     1      33.457  52.522  19.047  1.00  0.00     0.216 C 
HETATM    2  O2  UNL     1      34.085  51.938  17.944  1.00  0.00    -0.374 OA
HETATM    3  C4  UNL     1      35.439  52.268  17.898  1.00  0.00     0.203 C 
HETATM    4  C5  UNL     1      35.608  53.765  18.189  1.00  0.00     0.238 C 
HETATM    5  N8  UNL     1      35.394  53.928  19.599  1.00  0.00    -0.038 N 
ATOM      6  H81 UNL     1      35.162  54.894  19.831  1.00  0.00     0.281 HD
ATOM      7  H82 UNL     1      36.267  53.845  20.121  1.00  0.00     0.281 HD
HETATM    8  C11 UNL     1      34.384  53.003  20.101  1.00  0.00     0.353 C 
ENDROOT
BRANCH   1   9
HETATM    9  C2  UNL     1      32.481  51.478  19.527  1.00  0.00     0.115 C 
BRANCH   9  10
HETATM   10  N5  UNL     1      32.847  50.133  19.350  1.00  0.00    -0.200 N 
HETATM   11  C1  UNL     1      33.643  49.424  20.253  1.00  0.00     0.717 C 
HETATM   12  N3  UNL     1      33.415  49.400  21.633  1.00  0.00    -0.116 N 
HETATM   13  N4  UNL     1      34.651  48.740  19.804  1.00  0.00    -0.097 N 
ATOM     14  H3  UNL     1      33.745  48.573  22.130  1.00  0.00     0.207 HD
ATOM     15  H4  UNL     1      35.242  48.214  20.448  1.00  0.00     0.213 HD
ATOM     16  H5  UNL     1      32.515  49.648  18.517  1.00  0.00     0.183 HD
BRANCH  12  17
HETATM   17  N2  UNL     1      32.792  50.375  22.405  1.00  0.00    -0.235 N 
HETATM   18  N1  UNL     1      33.434  51.178  23.112  1.00  0.00    -0.330 N 
ATOM     19  H12 UNL     1      34.451  51.104  23.112  1.00  0.00     0.178 HD
ATOM     20  H11 UNL     1      32.977  51.892  23.679  1.00  0.00     0.178 HD
ATOM     21  H2  UNL     1      31.773  50.434  22.394  1.00  0.00     0.208 HD
ENDBRANCH  12  17
BRANCH  13  22
HETATM   22  O1  UNL     1      34.911  48.731  18.477  1.00  0.00    -0.276 OA
ATOM     23  H1  UNL     1      35.751  48.412  18.168  1.00  0.00     0.245 HD
ENDBRANCH  13  22
ENDBRANCH   9  10
ENDBRANCH   1   9
BRANCH   8  24
HETATM   24  O4  UNL     1      35.054  51.999  20.789  1.00  0.00    -0.367 OA
ATOM     25  H4  UNL     1      35.443  52.272  21.612  1.00  0.00     0.212 HD
ENDBRANCH   8  24
BRANCH   4  26
HETATM   26  C6  UNL     1      36.956  54.134  17.657  1.00  0.00     0.267 C 
BRANCH  26  27
HETATM   27  N6  UNL     1      37.048  55.392  17.023  1.00  0.00    -0.071 N 
ATOM     28  H62 UNL     1      36.130  55.806  16.865  1.00  0.00     0.277 HD
ATOM     29  H61 UNL     1      37.431  56.104  17.645  1.00  0.00     0.277 HD
BRANCH  27  30
HETATM   30  C7  UNL     1      37.823  55.279  15.772  1.00  0.00     0.258 C 
BRANCH  30  31
HETATM   31  C8  UNL     1      36.928  55.068  14.593  1.00  0.00     0.195 C 
BRANCH  31  32
HETATM   32  O3  UNL     1      36.672  53.825  14.206  1.00  0.00    -0.388 OA
BRANCH  32  33
HETATM   33  C9  UNL     1      35.487  53.227  14.171  1.00  0.00     0.195 C 
BRANCH  33  34
HETATM   34  C10 UNL     1      34.249  54.087  14.069  1.00  0.00     0.255 C 
BRANCH  34  35
HETATM   35  N7  UNL     1      33.577  54.035  15.373  1.00  0.00    -0.077 N 
ATOM     36  H73 UNL     1      34.228  54.004  16.159  1.00  0.00     0.274 HD
ATOM     37  H72 UNL     1      33.115  54.911  15.621  1.00  0.00     0.274 HD
ATOM     38  H71 UNL     1      32.938  53.239  15.351  1.00  0.00     0.274 HD
ENDBRANCH  34  35
ENDBRANCH  33  34
ENDBRANCH  32  33
ENDBRANCH  31  32
ENDBRANCH  30  31
ENDBRANCH  27  30
ENDBRANCH  26  27
ENDBRANCH   4  26
TORSDOF 13
ENDMDL
MODEL 4
REMARK VINA RESULT: -7.051695871      1.598      2.622
REMARK  13 active torsions:
REMARK  status: ('A' for Active; 'I' for Inactive)
REMARK    1  A    between atoms: N2_4  and  N3_6 
REMARK       I    between atoms: N3_6  and  C1_8 
REMARK       I    between atoms: C1_8  and  N5_13 
REMARK    2  A    between atoms: N4_9  and  O1_11 
REMARK    3  A    between atoms: N5_13  and  C2_15 
REMARK    4  A    between atoms: C2_15  and  C3_16 
REMARK    5  A    between atoms: C5_19  and  C6_20 
REMARK    6  A    between atoms: C6_20  and  N6_21 
REMARK    7  A    between atoms: N6_21  and  C7_24 
REMARK    8  A    between atoms: C7_24  and  C8_25 
REMARK    9  A    between atoms: C8_25  and  O3_26 
REMARK   10  A    between atoms: O3_26  and  C9_27 
REMARK   11  A    between atoms: C9_27  and  C10_28 
REMARK   12  A    between atoms: C10_28  and  N7_29 
REMARK   13  A    between atoms: C11_36  and  O4_37 
ROOT
HETATM    1  C3  UNL     1      34.918  51.842  19.568  1.00  0.00     0.216 C 
HETATM    2  O2  UNL     1      34.813  51.244  18.310  1.00  0.00    -0.374 OA
HETATM    3  C4  UNL     1      35.051  52.164  17.290  1.00  0.00     0.203 C 
HETATM    4  C5  UNL     1      34.306  53.469  17.597  1.00  0.00     0.238 C 
HETATM    5  N8  UNL     1      35.040  54.116  18.647  1.00  0.00    -0.038 N 
ATOM      6  H81 UNL     1      34.465  54.801  19.136  1.00  0.00     0.281 HD
ATOM      7  H82 UNL     1      35.751  54.745  18.272  1.00  0.00     0.281 HD
HETATM    8  C11 UNL     1      35.620  53.149  19.573  1.00  0.00     0.353 C 
ENDROOT
BRANCH   1   9
HETATM    9  C2  UNL     1      35.575  50.797  20.434  1.00  0.00     0.115 C 
BRANCH   9  10
HETATM   10  N5  UNL     1      34.967  50.517  21.669  1.00  0.00    -0.200 N 
HETATM   11  C1  UNL     1      33.610  50.215  21.811  1.00  0.00     0.717 C 
HETATM   12  N3  UNL     1      32.941  49.269  21.029  1.00  0.00    -0.116 N 
HETATM   13  N4  UNL     1      32.918  50.835  22.718  1.00  0.00    -0.097 N 
ATOM     14  H3  UNL     1      32.128  48.825  21.456  1.00  0.00     0.207 HD
ATOM     15  H4  UNL     1      31.927  50.626  22.840  1.00  0.00     0.213 HD
ATOM     16  H5  UNL     1      35.547  50.536  22.507  1.00  0.00     0.183 HD
BRANCH  12  17
HETATM   17  N2  UNL     1      33.256  48.863  19.736  1.00  0.00    -0.235 N 
HETATM   18  N1  UNL     1      32.570  49.193  18.748  1.00  0.00    -0.330 N 
ATOM     19  H12 UNL     1      31.753  49.780  18.911  1.00  0.00     0.178 HD
ATOM     20  H11 UNL     1      32.801  48.895  17.800  1.00  0.00     0.178 HD
ATOM     21  H2  UNL     1      34.077  48.275  19.592  1.00  0.00     0.208 HD
ENDBRANCH  12  17
BRANCH  13  22
HETATM   22  O1  UNL     1      33.521  51.758  23.501  1.00  0.00    -0.276 OA
ATOM     23  H1  UNL     1      34.233  52.278  23.148  1.00  0.00     0.245 HD
ENDBRANCH  13  22
ENDBRANCH   9  10
ENDBRANCH   1   9
BRANCH   8  24
HETATM   24  O4  UNL     1      36.979  53.080  19.295  1.00  0.00    -0.367 OA
ATOM     25  H4  UNL     1      37.298  53.750  18.702  1.00  0.00     0.212 HD
ENDBRANCH   8  24
BRANCH   4  26
HETATM   26  C6  UNL     1      34.199  54.193  16.293  1.00  0.00     0.267 C 
BRANCH  26  27
HETATM   27  N6  UNL     1      34.793  53.557  15.182  1.00  0.00    -0.071 N 
ATOM     28  H62 UNL     1      35.696  53.146  15.416  1.00  0.00     0.277 HD
ATOM     29  H61 UNL     1      34.300  52.701  14.925  1.00  0.00     0.277 HD
BRANCH  27  30
HETATM   30  C7  UNL     1      34.893  54.496  14.047  1.00  0.00     0.258 C 
BRANCH  30  31
HETATM   31  C8  UNL     1      36.291  54.998  13.876  1.00  0.00     0.195 C 
BRANCH  31  32
HETATM   32  O3  UNL     1      36.678  56.049  14.588  1.00  0.00    -0.388 OA
BRANCH  32  33
HETATM   33  C9  UNL     1      37.727  56.123  15.398  1.00  0.00     0.195 C 
BRANCH  33  34
HETATM   34  C10 UNL     1      37.855  55.102  16.504  1.00  0.00     0.255 C 
BRANCH  34  35
HETATM   35  N7  UNL     1      37.758  55.829  17.777  1.00  0.00    -0.077 N 
ATOM     36  H73 UNL     1      37.738  56.842  17.659  1.00  0.00     0.274 HD
ATOM     37  H72 UNL     1      36.847  55.730  18.225  1.00  0.00     0.274 HD
ATOM     38  H71 UNL     1      38.529  55.511  18.364  1.00  0.00     0.274 HD
ENDBRANCH  34  35
ENDBRANCH  33  34
ENDBRANCH  32  33
ENDBRANCH  31  32
ENDBRANCH  30  31
ENDBRANCH  27  30
ENDBRANCH  26  27
ENDBRANCH   4  26
TORSDOF 13
ENDMDL
MODEL 5
REMARK VINA RESULT: -7.036141713      1.410      2.545
REMARK  13 active torsions:
REMARK  status: ('A' for Active; 'I' for Inactive)
REMARK    1  A    between atoms: N2_4  and  N3_6 
REMARK       I    between atoms: N3_6  and  C1_8 
REMARK       I    between atoms: C1_8  and  N5_13 
REMARK    2  A    between atoms: N4_9  and  O1_11 
REMARK    3  A    between atoms: N5_13  and  C2_15 
REMARK    4  A    between atoms: C2_15  and  C3_16 
REMARK    5  A    between atoms: C5_19  and  C6_20 
REMARK    6  A    between atoms: C6_20  and  N6_21 
REMARK    7  A    between atoms: N6_21  and  C7_24 
REMARK    8  A    between atoms: C7_24  and  C8_25 
REMARK    9  A    between atoms: C8_25  and  O3_26 
REMARK   10  A    between atoms: O3_26  and  C9_27 
REMARK   11  A    between atoms: C9_27  and  C10_28 
REMARK   12  A    between atoms: C10_28  and  N7_29 
REMARK   13  A    between atoms: C11_36  and  O4_37 
ROOT
HETATM    1  C3  UNL     1      34.983  51.868  19.595  1.00  0.00     0.216 C 
HETATM    2  O2  UNL     1      34.822  51.315  18.322  1.00  0.00    -0.374 OA
HETATM    3  C4  UNL     1      35.149  52.233  17.326  1.00  0.00     0.203 C 
HETATM    4  C5  UNL     1      34.532  53.596  17.667  1.00  0.00     0.238 C 
HETATM    5  N8  UNL     1      35.325  54.142  18.732  1.00  0.00    -0.038 N 
ATOM      6  H81 UNL     1      34.818  54.866  19.240  1.00  0.00     0.281 HD
ATOM      7  H82 UNL     1      36.093  54.709  18.372  1.00  0.00     0.281 HD
HETATM    8  C11 UNL     1      35.808  53.100  19.632  1.00  0.00     0.353 C 
ENDROOT
BRANCH   1   9
HETATM    9  C2  UNL     1      35.535  50.742  20.433  1.00  0.00     0.115 C 
BRANCH   9  10
HETATM   10  N5  UNL     1      34.905  50.495  21.664  1.00  0.00    -0.200 N 
HETATM   11  C1  UNL     1      33.539  50.229  21.793  1.00  0.00     0.717 C 
HETATM   12  N3  UNL     1      32.856  49.290  21.014  1.00  0.00    -0.116 N 
HETATM   13  N4  UNL     1      32.852  50.877  22.683  1.00  0.00    -0.097 N 
ATOM     14  H3  UNL     1      32.026  48.872  21.436  1.00  0.00     0.207 HD
ATOM     15  H4  UNL     1      31.854  50.696  22.794  1.00  0.00     0.213 HD
ATOM     16  H5  UNL     1      35.475  50.510  22.509  1.00  0.00     0.183 HD
BRANCH  12  17
HETATM   17  N2  UNL     1      33.176  48.859  19.730  1.00  0.00    -0.235 N 
HETATM   18  N1  UNL     1      32.532  49.221  18.725  1.00  0.00    -0.330 N 
ATOM     19  H12 UNL     1      31.745  49.854  18.867  1.00  0.00     0.178 HD
ATOM     20  H11 UNL     1      32.766  48.905  17.784  1.00  0.00     0.178 HD
ATOM     21  H2  UNL     1      33.966  48.225  19.607  1.00  0.00     0.208 HD
ENDBRANCH  12  17
BRANCH  13  22
HETATM   22  O1  UNL     1      33.468  51.795  23.462  1.00  0.00    -0.276 OA
ATOM     23  H1  UNL     1      33.970  52.492  23.055  1.00  0.00     0.245 HD
ENDBRANCH  13  22
ENDBRANCH   9  10
ENDBRANCH   1   9
BRANCH   8  24
HETATM   24  O4  UNL     1      37.154  52.908  19.351  1.00  0.00    -0.367 OA
ATOM     25  H4  UNL     1      37.649  53.706  19.210  1.00  0.00     0.212 HD
ENDBRANCH   8  24
BRANCH   4  26
HETATM   26  C6  UNL     1      34.497  54.360  16.383  1.00  0.00     0.267 C 
BRANCH  26  27
HETATM   27  N6  UNL     1      33.569  53.909  15.419  1.00  0.00    -0.071 N 
ATOM     28  H62 UNL     1      33.286  52.943  15.587  1.00  0.00     0.277 HD
ATOM     29  H61 UNL     1      32.658  54.354  15.530  1.00  0.00     0.277 HD
BRANCH  27  30
HETATM   30  C7  UNL     1      34.111  54.095  14.059  1.00  0.00     0.258 C 
BRANCH  30  31
HETATM   31  C8  UNL     1      35.161  53.077  13.746  1.00  0.00     0.195 C 
BRANCH  31  32
HETATM   32  O3  UNL     1      36.422  53.477  13.648  1.00  0.00    -0.388 OA
BRANCH  32  33
HETATM   33  C9  UNL     1      36.853  54.705  13.387  1.00  0.00     0.195 C 
BRANCH  33  34
HETATM   34  C10 UNL     1      37.677  55.416  14.434  1.00  0.00     0.255 C 
BRANCH  34  35
HETATM   35  N7  UNL     1      39.023  55.598  13.876  1.00  0.00    -0.077 N 
ATOM     36  H73 UNL     1      39.426  54.734  13.512  1.00  0.00     0.274 HD
ATOM     37  H72 UNL     1      39.026  56.122  13.000  1.00  0.00     0.274 HD
ATOM     38  H71 UNL     1      39.594  56.031  14.602  1.00  0.00     0.274 HD
ENDBRANCH  34  35
ENDBRANCH  33  34
ENDBRANCH  32  33
ENDBRANCH  31  32
ENDBRANCH  30  31
ENDBRANCH  27  30
ENDBRANCH  26  27
ENDBRANCH   4  26
TORSDOF 13
ENDMDL
