MODEL 1
REMARK VINA RESULT: -6.149668259      0.000      0.000
REMARK  15 active torsions:
REMARK  status: ('A' for Active; 'I' for Inactive)
REMARK    1  A    between atoms: N1_1  and  C1_5 
REMARK    2  A    between atoms: C1_5  and  C2_6 
REMARK    3  A    between atoms: C2_6  and  C3_7 
REMARK    4  A    between atoms: C3_7  and  C4_8 
REMARK    5  A    between atoms: C4_8  and  C5_9 
REMARK    6  A    between atoms: C5_9  and  N2_10 
REMARK    7  A    between atoms: N2_10  and  C6_12 
REMARK    8  A    between atoms: C7_15  and  O1_16 
REMARK    9  A    between atoms: O1_16  and  C8_17 
REMARK   10  A    between atoms: C8_17  and  O2_18 
REMARK   11  A    between atoms: O2_18  and  N5_19 
REMARK   12  A    between atoms: C9_22  and  O3_23 
REMARK   13  A    between atoms: C10_25  and  O4_26 
REMARK   14  A    between atoms: C11_28  and  C12_29 
REMARK   15  A    between atoms: C12_29  and  O5_30 
ROOT
HETATM    1  C6  UNL     1      35.167  52.607  18.670  1.00  0.00     0.196 C 
HETATM    2  N3  UNL     1      34.402  52.077  17.525  1.00  0.00    -0.120 NA
HETATM    3  N4  UNL     1      33.906  53.150  16.760  1.00  0.00    -0.111 NA
HETATM    4  C7  UNL     1      34.748  53.361  15.589  1.00  0.00     0.264 C 
HETATM    5  C9  UNL     1      36.093  52.732  15.859  1.00  0.00     0.193 C 
HETATM    6  C10 UNL     1      36.822  53.387  16.967  1.00  0.00     0.160 C 
HETATM    7  C11 UNL     1      36.000  53.736  18.202  1.00  0.00     0.080 C 
ENDROOT
BRANCH   1   8
HETATM    8  N2  UNL     1      35.691  51.554  19.403  1.00  0.00    -0.403 N 
ATOM      9  H2  UNL     1      36.582  51.159  19.101  1.00  0.00     0.154 HD
BRANCH   8  10
HETATM   10  C5  UNL     1      35.076  50.996  20.531  1.00  0.00     0.115 C 
BRANCH  10  11
HETATM   11  C4  UNL     1      34.887  49.481  20.415  1.00  0.00     0.019 C 
BRANCH  11  12
HETATM   12  C3  UNL     1      33.391  49.202  20.234  1.00  0.00     0.003 C 
BRANCH  12  13
HETATM   13  C2  UNL     1      33.067  49.057  18.760  1.00  0.00     0.027 C 
BRANCH  13  14
HETATM   14  C1  UNL     1      34.192  48.369  18.014  1.00  0.00     0.229 C 
BRANCH  14  15
HETATM   15  N1  UNL     1      34.554  49.020  16.795  1.00  0.00    -0.079 N 
ATOM     16  H13 UNL     1      35.271  49.726  16.962  1.00  0.00     0.274 HD
ATOM     17  H12 UNL     1      35.076  48.387  16.190  1.00  0.00     0.274 HD
ATOM     18  H11 UNL     1      33.762  49.424  16.295  1.00  0.00     0.274 HD
ENDBRANCH  14  15
ENDBRANCH  13  14
ENDBRANCH  12  13
ENDBRANCH  11  12
ENDBRANCH  10  11
ENDBRANCH   8  10
ENDBRANCH   1   8
BRANCH   7  19
HETATM   19  C12 UNL     1      36.965  54.317  19.190  1.00  0.00     0.174 C 
BRANCH  19  20
HETATM   20  O5  UNL     1      38.147  53.540  19.272  1.00  0.00    -0.400 OA
ATOM     21  H5  UNL     1      38.889  54.001  18.898  1.00  0.00     0.209 HD
ENDBRANCH  19  20
ENDBRANCH   7  19
BRANCH   6  22
HETATM   22  O4  UNL     1      37.369  54.566  16.464  1.00  0.00    -0.392 OA
ATOM     23  H4  UNL     1      38.180  54.337  16.025  1.00  0.00     0.210 HD
ENDBRANCH   6  22
BRANCH   4  24
HETATM   24  O1  UNL     1      34.954  54.680  15.278  1.00  0.00    -0.339 OA
BRANCH  24  25
HETATM   25  C8  UNL     1      35.245  54.845  13.915  1.00  0.00     0.371 C 
BRANCH  25  26
HETATM   26  O2  UNL     1      36.300  55.743  13.755  1.00  0.00    -0.261 OA
BRANCH  26  27
HETATM   27  N5  UNL     1      37.460  55.139  13.443  1.00  0.00    -0.309 N 
ATOM     28  H52 UNL     1      37.632  54.716  12.531  1.00  0.00     0.184 HD
ATOM     29  H51 UNL     1      38.135  55.152  14.207  1.00  0.00     0.184 HD
ENDBRANCH  26  27
ENDBRANCH  25  26
ENDBRANCH  24  25
ENDBRANCH   4  24
BRANCH   5  30
HETATM   30  O3  UNL     1      36.065  51.342  15.915  1.00  0.00    -0.389 OA
ATOM     31  H3  UNL     1      36.011  50.922  15.065  1.00  0.00     0.210 HD
ENDBRANCH   5  30
TORSDOF 15
ENDMDL
MODEL 2
REMARK VINA RESULT: -6.100813012      2.971      6.213
REMARK  15 active torsions:
REMARK  status: ('A' for Active; 'I' for Inactive)
REMARK    1  A    between atoms: N1_1  and  C1_5 
REMARK    2  A    between atoms: C1_5  and  C2_6 
REMARK    3  A    between atoms: C2_6  and  C3_7 
REMARK    4  A    between atoms: C3_7  and  C4_8 
REMARK    5  A    between atoms: C4_8  and  C5_9 
REMARK    6  A    between atoms: C5_9  and  N2_10 
REMARK    7  A    between atoms: N2_10  and  C6_12 
REMARK    8  A    between atoms: C7_15  and  O1_16 
REMARK    9  A    between atoms: O1_16  and  C8_17 
REMARK   10  A    between atoms: C8_17  and  O2_18 
REMARK   11  A    between atoms: O2_18  and  N5_19 
REMARK   12  A    between atoms: C9_22  and  O3_23 
REMARK   13  A    between atoms: C10_25  and  O4_26 
REMARK   14  A    between atoms: C11_28  and  C12_29 
REMARK   15  A    between atoms: C12_29  and  O5_30 
ROOT
HETATM    1  C6  UNL     1      34.316  50.714  17.268  1.00  0.00     0.196 C 
HETATM    2  N3  UNL     1      34.508  52.123  17.662  1.00  0.00    -0.120 NA
HETATM    3  N4  UNL     1      33.503  52.492  18.577  1.00  0.00    -0.111 NA
HETATM    4  C7  UNL     1      34.027  52.455  19.937  1.00  0.00     0.264 C 
HETATM    5  C9  UNL     1      35.251  51.573  19.945  1.00  0.00     0.193 C 
HETATM    6  C10 UNL     1      34.945  50.162  19.624  1.00  0.00     0.160 C 
HETATM    7  C11 UNL     1      33.974  49.927  18.473  1.00  0.00     0.080 C 
ENDROOT
BRANCH   1   8
HETATM    8  N2  UNL     1      35.327  50.336  16.399  1.00  0.00    -0.403 N 
ATOM      9  H2  UNL     1      35.695  49.388  16.478  1.00  0.00     0.154 HD
BRANCH   8  10
HETATM   10  C5  UNL     1      35.876  51.172  15.419  1.00  0.00     0.115 C 
BRANCH  10  11
HETATM   11  C4  UNL     1      34.919  51.422  14.249  1.00  0.00     0.019 C 
BRANCH  11  12
HETATM   12  C3  UNL     1      34.808  52.937  14.043  1.00  0.00     0.003 C 
BRANCH  12  13
HETATM   13  C2  UNL     1      33.375  53.311  13.722  1.00  0.00     0.027 C 
BRANCH  13  14
HETATM   14  C1  UNL     1      32.726  54.048  14.875  1.00  0.00     0.229 C 
BRANCH  14  15
HETATM   15  N1  UNL     1      33.628  54.354  15.940  1.00  0.00    -0.079 N 
ATOM     16  H13 UNL     1      33.964  53.500  16.384  1.00  0.00     0.274 HD
ATOM     17  H12 UNL     1      34.509  54.712  15.573  1.00  0.00     0.274 HD
ATOM     18  H11 UNL     1      33.241  54.992  16.634  1.00  0.00     0.274 HD
ENDBRANCH  14  15
ENDBRANCH  13  14
ENDBRANCH  12  13
ENDBRANCH  11  12
ENDBRANCH  10  11
ENDBRANCH   8  10
ENDBRANCH   1   8
BRANCH   7  19
HETATM   19  C12 UNL     1      33.884  48.441  18.305  1.00  0.00     0.174 C 
BRANCH  19  20
HETATM   20  O5  UNL     1      35.167  47.842  18.333  1.00  0.00    -0.400 OA
ATOM     21  H5  UNL     1      35.107  46.895  18.283  1.00  0.00     0.209 HD
ENDBRANCH  19  20
ENDBRANCH   7  19
BRANCH   6  22
HETATM   22  O4  UNL     1      34.406  49.583  20.770  1.00  0.00    -0.392 OA
ATOM     23  H4  UNL     1      34.945  49.853  21.505  1.00  0.00     0.210 HD
ENDBRANCH   6  22
BRANCH   4  24
HETATM   24  O1  UNL     1      33.145  51.961  20.863  1.00  0.00    -0.339 OA
BRANCH  24  25
HETATM   25  C8  UNL     1      33.103  52.767  22.011  1.00  0.00     0.371 C 
BRANCH  25  26
HETATM   26  O2  UNL     1      33.432  52.014  23.138  1.00  0.00    -0.261 OA
BRANCH  26  27
HETATM   27  N5  UNL     1      33.026  50.734  23.052  1.00  0.00    -0.309 N 
ATOM     28  H52 UNL     1      32.908  50.254  22.161  1.00  0.00     0.184 HD
ATOM     29  H51 UNL     1      32.855  50.308  23.963  1.00  0.00     0.184 HD
ENDBRANCH  26  27
ENDBRANCH  25  26
ENDBRANCH  24  25
ENDBRANCH   4  24
BRANCH   5  30
HETATM   30  O3  UNL     1      36.337  52.109  19.259  1.00  0.00    -0.389 OA
ATOM     31  H3  UNL     1      37.086  52.299  19.812  1.00  0.00     0.210 HD
ENDBRANCH   5  30
TORSDOF 15
ENDMDL
MODEL 3
REMARK VINA RESULT: -6.033278642      2.936      6.193
REMARK  15 active torsions:
REMARK  status: ('A' for Active; 'I' for Inactive)
REMARK    1  A    between atoms: N1_1  and  C1_5 
REMARK    2  A    between atoms: C1_5  and  C2_6 
REMARK    3  A    between atoms: C2_6  and  C3_7 
REMARK    4  A    between atoms: C3_7  and  C4_8 
REMARK    5  A    between atoms: C4_8  and  C5_9 
REMARK    6  A    between atoms: C5_9  and  N2_10 
REMARK    7  A    between atoms: N2_10  and  C6_12 
REMARK    8  A    between atoms: C7_15  and  O1_16 
REMARK    9  A    between atoms: O1_16  and  C8_17 
REMARK   10  A    between atoms: C8_17  and  O2_18 
REMARK   11  A    between atoms: O2_18  and  N5_19 
REMARK   12  A    between atoms: C9_22  and  O3_23 
REMARK   13  A    between atoms: C10_25  and  O4_26 
REMARK   14  A    between atoms: C11_28  and  C12_29 
REMARK   15  A    between atoms: C12_29  and  O5_30 
ROOT
HETATM    1  C6  UNL     1      34.169  50.377  17.828  1.00  0.00     0.196 C 
HETATM    2  N3  UNL     1      34.104  51.839  18.020  1.00  0.00    -0.120 NA
HETATM    3  N4  UNL     1      33.309  52.126  19.146  1.00  0.00    -0.111 NA
HETATM    4  C7  UNL     1      34.158  52.413  20.296  1.00  0.00     0.264 C 
HETATM    5  C9  UNL     1      35.520  51.822  20.034  1.00  0.00     0.193 C 
HETATM    6  C10 UNL     1      35.499  50.345  19.945  1.00  0.00     0.160 C 
HETATM    7  C11 UNL     1      34.353  49.734  19.148  1.00  0.00     0.080 C 
ENDROOT
BRANCH   1   8
HETATM    8  N2  UNL     1      34.984  50.090  16.744  1.00  0.00    -0.403 N 
ATOM      9  H2  UNL     1      35.124  49.110  16.499  1.00  0.00     0.154 HD
BRANCH   8  10
HETATM   10  C5  UNL     1      35.627  51.059  15.964  1.00  0.00     0.115 C 
BRANCH  10  11
HETATM   11  C4  UNL     1      34.925  51.302  14.624  1.00  0.00     0.019 C 
BRANCH  11  12
HETATM   12  C3  UNL     1      35.256  52.727  14.168  1.00  0.00     0.003 C 
BRANCH  12  13
HETATM   13  C2  UNL     1      34.417  53.725  14.942  1.00  0.00     0.027 C 
BRANCH  13  14
HETATM   14  C1  UNL     1      35.260  54.502  15.932  1.00  0.00     0.229 C 
BRANCH  14  15
HETATM   15  N1  UNL     1      34.690  54.570  17.241  1.00  0.00    -0.079 N 
ATOM     16  H13 UNL     1      35.045  55.381  17.746  1.00  0.00     0.274 HD
ATOM     17  H12 UNL     1      33.703  54.820  17.191  1.00  0.00     0.274 HD
ATOM     18  H11 UNL     1      34.819  53.720  17.788  1.00  0.00     0.274 HD
ENDBRANCH  14  15
ENDBRANCH  13  14
ENDBRANCH  12  13
ENDBRANCH  11  12
ENDBRANCH  10  11
ENDBRANCH   8  10
ENDBRANCH   1   8
BRANCH   7  19
HETATM   19  C12 UNL     1      34.591  48.255  19.149  1.00  0.00     0.174 C 
BRANCH  19  20
HETATM   20  O5  UNL     1      34.198  47.670  17.920  1.00  0.00    -0.400 OA
ATOM     21  H5  UNL     1      33.294  47.876  17.713  1.00  0.00     0.209 HD
ENDBRANCH  19  20
ENDBRANCH   7  19
BRANCH   6  22
HETATM   22  O4  UNL     1      35.432  49.851  21.246  1.00  0.00    -0.392 OA
ATOM     23  H4  UNL     1      34.807  49.135  21.246  1.00  0.00     0.210 HD
ENDBRANCH   6  22
BRANCH   4  24
HETATM   24  O1  UNL     1      33.693  51.895  21.477  1.00  0.00    -0.339 OA
BRANCH  24  25
HETATM   25  C8  UNL     1      32.306  51.682  21.432  1.00  0.00     0.371 C 
BRANCH  25  26
HETATM   26  O2  UNL     1      32.027  50.318  21.521  1.00  0.00    -0.261 OA
BRANCH  26  27
HETATM   27  N5  UNL     1      32.855  49.665  22.354  1.00  0.00    -0.309 N 
ATOM     28  H52 UNL     1      33.812  49.422  22.099  1.00  0.00     0.184 HD
ATOM     29  H51 UNL     1      32.426  49.445  23.252  1.00  0.00     0.184 HD
ENDBRANCH  26  27
ENDBRANCH  25  26
ENDBRANCH  24  25
ENDBRANCH   4  24
BRANCH   5  30
HETATM   30  O3  UNL     1      36.227  52.461  19.020  1.00  0.00    -0.389 OA
ATOM     31  H3  UNL     1      36.877  53.079  19.333  1.00  0.00     0.210 HD
ENDBRANCH   5  30
TORSDOF 15
ENDMDL
MODEL 4
REMARK VINA RESULT: -5.991389459      1.485      2.291
REMARK  15 active torsions:
REMARK  status: ('A' for Active; 'I' for Inactive)
REMARK    1  A    between atoms: N1_1  and  C1_5 
REMARK    2  A    between atoms: C1_5  and  C2_6 
REMARK    3  A    between atoms: C2_6  and  C3_7 
REMARK    4  A    between atoms: C3_7  and  C4_8 
REMARK    5  A    between atoms: C4_8  and  C5_9 
REMARK    6  A    between atoms: C5_9  and  N2_10 
REMARK    7  A    between atoms: N2_10  and  C6_12 
REMARK    8  A    between atoms: C7_15  and  O1_16 
REMARK    9  A    between atoms: O1_16  and  C8_17 
REMARK   10  A    between atoms: C8_17  and  O2_18 
REMARK   11  A    between atoms: O2_18  and  N5_19 
REMARK   12  A    between atoms: C9_22  and  O3_23 
REMARK   13  A    between atoms: C10_25  and  O4_26 
REMARK   14  A    between atoms: C11_28  and  C12_29 
REMARK   15  A    between atoms: C12_29  and  O5_30 
ROOT
HETATM    1  C6  UNL     1      34.696  53.343  18.777  1.00  0.00     0.196 C 
HETATM    2  N3  UNL     1      33.875  52.736  17.711  1.00  0.00    -0.120 NA
HETATM    3  N4  UNL     1      33.842  53.600  16.599  1.00  0.00    -0.111 NA
HETATM    4  C7  UNL     1      34.785  53.146  15.585  1.00  0.00     0.264 C 
HETATM    5  C9  UNL     1      35.801  52.252  16.253  1.00  0.00     0.193 C 
HETATM    6  C10 UNL     1      36.634  52.970  17.243  1.00  0.00     0.160 C 
HETATM    7  C11 UNL     1      35.903  53.939  18.164  1.00  0.00     0.080 C 
ENDROOT
BRANCH   1   8
HETATM    8  N2  UNL     1      34.764  52.477  19.856  1.00  0.00    -0.403 N 
ATOM      9  H2  UNL     1      35.681  52.291  20.262  1.00  0.00     0.154 HD
BRANCH   8  10
HETATM   10  C5  UNL     1      33.654  51.842  20.427  1.00  0.00     0.115 C 
BRANCH  10  11
HETATM   11  C4  UNL     1      34.032  50.590  21.225  1.00  0.00     0.019 C 
BRANCH  11  12
HETATM   12  C3  UNL     1      35.066  49.804  20.411  1.00  0.00     0.003 C 
BRANCH  12  13
HETATM   13  C2  UNL     1      36.178  49.319  21.321  1.00  0.00     0.027 C 
BRANCH  13  14
HETATM   14  C1  UNL     1      37.000  50.475  21.851  1.00  0.00     0.229 C 
BRANCH  14  15
HETATM   15  N1  UNL     1      37.145  50.471  23.272  1.00  0.00    -0.079 N 
ATOM     16  H13 UNL     1      37.196  51.424  23.631  1.00  0.00     0.274 HD
ATOM     17  H12 UNL     1      36.282  50.166  23.721  1.00  0.00     0.274 HD
ATOM     18  H11 UNL     1      37.937  49.920  23.601  1.00  0.00     0.274 HD
ENDBRANCH  14  15
ENDBRANCH  13  14
ENDBRANCH  12  13
ENDBRANCH  11  12
ENDBRANCH  10  11
ENDBRANCH   8  10
ENDBRANCH   1   8
BRANCH   7  19
HETATM   19  C12 UNL     1      36.939  54.478  19.103  1.00  0.00     0.174 C 
BRANCH  19  20
HETATM   20  O5  UNL     1      37.887  53.484  19.449  1.00  0.00    -0.400 OA
ATOM     21  H5  UNL     1      37.516  52.849  20.051  1.00  0.00     0.209 HD
ENDBRANCH  19  20
ENDBRANCH   7  19
BRANCH   6  22
HETATM   22  O4  UNL     1      37.594  53.689  16.533  1.00  0.00    -0.392 OA
ATOM     23  H4  UNL     1      38.423  53.236  16.639  1.00  0.00     0.210 HD
ENDBRANCH   6  22
BRANCH   4  24
HETATM   24  O1  UNL     1      35.462  54.158  14.956  1.00  0.00    -0.339 OA
BRANCH  24  25
HETATM   25  C8  UNL     1      35.797  53.810  13.639  1.00  0.00     0.371 C 
BRANCH  25  26
HETATM   26  O2  UNL     1      37.148  54.064  13.404  1.00  0.00    -0.261 OA
BRANCH  26  27
HETATM   27  N5  UNL     1      37.550  55.254  13.884  1.00  0.00    -0.309 N 
ATOM     28  H52 UNL     1      37.955  55.364  14.813  1.00  0.00     0.184 HD
ATOM     29  H51 UNL     1      37.407  56.019  13.224  1.00  0.00     0.184 HD
ENDBRANCH  26  27
ENDBRANCH  25  26
ENDBRANCH  24  25
ENDBRANCH   4  24
BRANCH   5  30
HETATM   30  O3  UNL     1      35.282  51.038  16.693  1.00  0.00    -0.389 OA
ATOM     31  H3  UNL     1      34.893  50.513  16.004  1.00  0.00     0.210 HD
ENDBRANCH   5  30
TORSDOF 15
ENDMDL
MODEL 5
REMARK VINA RESULT: -5.975704838      2.632      6.574
REMARK  15 active torsions:
REMARK  status: ('A' for Active; 'I' for Inactive)
REMARK    1  A    between atoms: N1_1  and  C1_5 
REMARK    2  A    between atoms: C1_5  and  C2_6 
REMARK    3  A    between atoms: C2_6  and  C3_7 
REMARK    4  A    between atoms: C3_7  and  C4_8 
REMARK    5  A    between atoms: C4_8  and  C5_9 
REMARK    6  A    between atoms: C5_9  and  N2_10 
REMARK    7  A    between atoms: N2_10  and  C6_12 
REMARK    8  A    between atoms: C7_15  and  O1_16 
REMARK    9  A    between atoms: O1_16  and  C8_17 
REMARK   10  A    between atoms: C8_17  and  O2_18 
REMARK   11  A    between atoms: O2_18  and  N5_19 
REMARK   12  A    between atoms: C9_22  and  O3_23 
REMARK   13  A    between atoms: C10_25  and  O4_26 
REMARK   14  A    between atoms: C11_28  and  C12_29 
REMARK   15  A    between atoms: C12_29  and  O5_30 
ROOT
HETATM    1  C6  UNL     1      35.149  54.220  14.426  1.00  0.00     0.196 C 
HETATM    2  N3  UNL     1      35.520  54.786  15.737  1.00  0.00    -0.120 NA
HETATM    3  N4  UNL     1      34.472  54.565  16.653  1.00  0.00    -0.111 NA
HETATM    4  C7  UNL     1      34.785  53.423  17.503  1.00  0.00     0.264 C 
HETATM    5  C9  UNL     1      35.828  52.588  16.804  1.00  0.00     0.193 C 
HETATM    6  C10 UNL     1      35.336  51.991  15.542  1.00  0.00     0.160 C 
HETATM    7  C11 UNL     1      34.512  52.903  14.641  1.00  0.00     0.080 C 
ENDROOT
BRANCH   1   8
HETATM    8  N2  UNL     1      36.194  54.400  13.534  1.00  0.00    -0.403 N 
ATOM      9  H2  UNL     1      36.512  53.591  13.000  1.00  0.00     0.154 HD
BRANCH   8  10
HETATM   10  C5  UNL     1      36.843  55.622  13.318  1.00  0.00     0.115 C 
BRANCH  10  11
HETATM   11  C4  UNL     1      38.369  55.489  13.303  1.00  0.00     0.019 C 
BRANCH  11  12
HETATM   12  C3  UNL     1      38.947  56.551  14.244  1.00  0.00     0.003 C 
BRANCH  12  13
HETATM   13  C2  UNL     1      39.090  55.980  15.641  1.00  0.00     0.027 C 
BRANCH  13  14
HETATM   14  C1  UNL     1      38.242  56.743  16.637  1.00  0.00     0.229 C 
BRANCH  14  15
HETATM   15  N1  UNL     1      37.530  55.902  17.547  1.00  0.00    -0.079 N 
ATOM     16  H13 UNL     1      37.911  54.957  17.537  1.00  0.00     0.274 HD
ATOM     17  H12 UNL     1      37.737  56.159  18.512  1.00  0.00     0.274 HD
ATOM     18  H11 UNL     1      36.523  55.886  17.387  1.00  0.00     0.274 HD
ENDBRANCH  14  15
ENDBRANCH  13  14
ENDBRANCH  12  13
ENDBRANCH  11  12
ENDBRANCH  10  11
ENDBRANCH   8  10
ENDBRANCH   1   8
BRANCH   7  19
HETATM   19  C12 UNL     1      34.196  52.098  13.418  1.00  0.00     0.174 C 
BRANCH  19  20
HETATM   20  O5  UNL     1      32.832  51.714  13.393  1.00  0.00    -0.400 OA
ATOM     21  H5  UNL     1      32.741  50.768  13.389  1.00  0.00     0.209 HD
ENDBRANCH  19  20
ENDBRANCH   7  19
BRANCH   6  22
HETATM   22  O4  UNL     1      34.549  50.892  15.882  1.00  0.00    -0.392 OA
ATOM     23  H4  UNL     1      35.131  50.218  16.214  1.00  0.00     0.210 HD
ENDBRANCH   6  22
BRANCH   4  24
HETATM   24  O1  UNL     1      33.710  52.616  17.773  1.00  0.00    -0.339 OA
BRANCH  24  25
HETATM   25  C8  UNL     1      33.886  51.914  18.975  1.00  0.00     0.371 C 
BRANCH  25  26
HETATM   26  O2  UNL     1      33.536  50.575  18.805  1.00  0.00    -0.261 OA
BRANCH  26  27
HETATM   27  N5  UNL     1      34.602  49.763  18.693  1.00  0.00    -0.309 N 
ATOM     28  H52 UNL     1      35.481  50.064  18.275  1.00  0.00     0.184 HD
ATOM     29  H51 UNL     1      34.433  48.830  19.068  1.00  0.00     0.184 HD
ENDBRANCH  26  27
ENDBRANCH  25  26
ENDBRANCH  24  25
ENDBRANCH   4  24
BRANCH   5  30
HETATM   30  O3  UNL     1      37.075  53.199  16.716  1.00  0.00    -0.389 OA
ATOM     31  H3  UNL     1      37.451  53.431  17.558  1.00  0.00     0.210 HD
ENDBRANCH   5  30
TORSDOF 15
ENDMDL
