MODEL 1
REMARK VINA RESULT: -7.174495737      0.000      0.000
REMARK  11 active torsions:
REMARK  status: ('A' for Active; 'I' for Inactive)
REMARK    1  A    between atoms: C2_2  and  C3_3 
REMARK    2  A    between atoms: C3_3  and  C4_4 
REMARK    3  A    between atoms: C6_6  and  C7_7 
REMARK    4  A    between atoms: C7_7  and  O2_9 
REMARK    5  A    between atoms: O2_9  and  C8_10 
REMARK    6  A    between atoms: C12_14  and  O3_15 
REMARK    7  A    between atoms: C13_17  and  C14_18 
REMARK    8  A    between atoms: C15_21  and  O6_22 
REMARK    9  A    between atoms: C17_25  and  C18_26 
REMARK   10  A    between atoms: C18_26  and  C19_27 
REMARK   11  A    between atoms: C25_34  and  O8_35 
ROOT
HETATM    1  C8  UNL     1      23.170  29.138  22.152  1.00  0.00     0.162 C 
HETATM    2  C9  UNL     1      22.132  30.228  22.050  1.00  0.00     0.008 C 
HETATM    3  C10 UNL     1      21.221  30.050  20.857  1.00  0.00     0.020 C 
HETATM    4  C11 UNL     1      22.785  31.610  21.922  1.00  0.00     0.020 C 
HETATM    5  C12 UNL     1      21.365  30.239  23.356  1.00  0.00     0.151 C 
HETATM    6  C13 UNL     1      21.441  28.786  23.774  1.00  0.00     0.120 C 
HETATM    7  C15 UNL     1      21.247  28.598  25.255  1.00  0.00     0.142 C 
HETATM    8  C16 UNL     1      22.093  27.439  25.781  1.00  0.00     0.053 C 
HETATM    9  C17 UNL     1      23.424  27.499  25.126  1.00  0.00     0.054 C 
HETATM   10  C23 UNL     1      23.287  27.112  23.673  1.00  0.00     0.153 C 
HETATM   11  O7  UNL     1      23.494  26.031  23.138  1.00  0.00    -0.296 OA
HETATM   12  C24 UNL     1      22.871  28.481  23.429  1.00  0.00     0.098 C 
HETATM   13  C25 UNL     1      23.749  28.908  24.612  1.00  0.00     0.154 C 
ENDROOT
BRANCH   1  14
HETATM   14  O2  UNL     1      23.170  28.289  21.029  1.00  0.00    -0.310 OA
BRANCH  14  15
HETATM   15  C7  UNL     1      24.292  28.266  20.171  1.00  0.00     0.283 C 
HETATM   16  O1  UNL     1      24.652  29.365  19.694  1.00  0.00    -0.260 OA
BRANCH  15  17
HETATM   17  C6  UNL     1      24.984  27.038  19.865  1.00  0.00     0.084 C 
HETATM   18  C4  UNL     1      26.025  26.612  20.519  1.00  0.00    -0.078 C 
HETATM   19  C5  UNL     1      26.590  27.376  21.655  1.00  0.00     0.043 C 
BRANCH  18  20
HETATM   20  C3  UNL     1      26.684  25.351  20.155  1.00  0.00     0.033 C 
BRANCH  20  21
HETATM   21  C2  UNL     1      27.032  25.344  18.698  1.00  0.00    -0.000 C 
HETATM   22  C1  UNL     1      27.306  23.925  18.199  1.00  0.00     0.005 C 
ENDBRANCH  20  21
ENDBRANCH  18  20
ENDBRANCH  15  17
ENDBRANCH  14  15
ENDBRANCH   1  14
BRANCH   5  23
HETATM   23  O3  UNL     1      20.051  30.656  23.172  1.00  0.00    -0.393 OA
ATOM     24  H3  UNL     1      19.861  31.442  23.673  1.00  0.00     0.210 HD
ENDBRANCH   5  23
BRANCH   6  25
HETATM   25  C14 UNL     1      20.481  27.932  23.050  1.00  0.00     0.188 C 
HETATM   26  O4  UNL     1      20.767  26.830  22.518  1.00  0.00    -0.647 OA
HETATM   27  O5  UNL     1      19.170  28.378  22.948  1.00  0.00    -0.647 OA
ENDBRANCH   6  25
BRANCH  13  28
HETATM   28  O8  UNL     1      25.067  28.993  24.220  1.00  0.00    -0.393 OA
ATOM     29  H8  UNL     1      25.135  29.341  23.339  1.00  0.00     0.210 HD
ENDBRANCH  13  28
BRANCH   7  30
HETATM   30  O6  UNL     1      19.908  28.230  25.513  1.00  0.00    -0.394 OA
ATOM     31  H6  UNL     1      19.716  28.355  26.435  1.00  0.00     0.210 HD
ENDBRANCH   7  30
BRANCH   9  32
HETATM   32  C18 UNL     1      24.587  26.921  25.838  1.00  0.00     0.047 C 
BRANCH  32  33
HETATM   33  C19 UNL     1      24.291  25.718  26.622  1.00  0.00    -0.023 C 
HETATM   34  C20 UNL     1      24.779  24.526  26.302  1.00  0.00    -0.091 C 
HETATM   35  C21 UNL     1      24.456  23.316  27.125  1.00  0.00     0.042 C 
HETATM   36  C22 UNL     1      25.662  24.324  25.119  1.00  0.00     0.042 C 
ENDBRANCH  32  33
ENDBRANCH   9  32
TORSDOF 11
ENDMDL
MODEL 2
REMARK VINA RESULT: -6.792536581      1.545      1.900
REMARK  11 active torsions:
REMARK  status: ('A' for Active; 'I' for Inactive)
REMARK    1  A    between atoms: C2_2  and  C3_3 
REMARK    2  A    between atoms: C3_3  and  C4_4 
REMARK    3  A    between atoms: C6_6  and  C7_7 
REMARK    4  A    between atoms: C7_7  and  O2_9 
REMARK    5  A    between atoms: O2_9  and  C8_10 
REMARK    6  A    between atoms: C12_14  and  O3_15 
REMARK    7  A    between atoms: C13_17  and  C14_18 
REMARK    8  A    between atoms: C15_21  and  O6_22 
REMARK    9  A    between atoms: C17_25  and  C18_26 
REMARK   10  A    between atoms: C18_26  and  C19_27 
REMARK   11  A    between atoms: C25_34  and  O8_35 
ROOT
HETATM    1  C8  UNL     1      22.942  29.537  22.334  1.00  0.00     0.162 C 
HETATM    2  C9  UNL     1      22.370  30.701  23.105  1.00  0.00     0.008 C 
HETATM    3  C10 UNL     1      21.042  31.163  22.555  1.00  0.00     0.020 C 
HETATM    4  C11 UNL     1      23.318  31.906  23.081  1.00  0.00     0.020 C 
HETATM    5  C12 UNL     1      22.268  30.270  24.554  1.00  0.00     0.151 C 
HETATM    6  C13 UNL     1      22.037  28.779  24.420  1.00  0.00     0.120 C 
HETATM    7  C15 UNL     1      22.430  28.019  25.659  1.00  0.00     0.142 C 
HETATM    8  C16 UNL     1      22.994  26.642  25.307  1.00  0.00     0.053 C 
HETATM    9  C17 UNL     1      23.870  26.789  24.117  1.00  0.00     0.054 C 
HETATM   10  C23 UNL     1      23.022  27.066  22.899  1.00  0.00     0.153 C 
HETATM   11  O7  UNL     1      22.626  26.290  22.040  1.00  0.00    -0.296 OA
HETATM   12  C24 UNL     1      23.010  28.455  23.322  1.00  0.00     0.098 C 
HETATM   13  C25 UNL     1      24.387  28.224  23.956  1.00  0.00     0.154 C 
ENDROOT
BRANCH   1  14
HETATM   14  O2  UNL     1      22.200  29.243  21.175  1.00  0.00    -0.310 OA
BRANCH  14  15
HETATM   15  C7  UNL     1      22.764  29.489  19.903  1.00  0.00     0.283 C 
HETATM   16  O1  UNL     1      21.961  29.704  18.969  1.00  0.00    -0.260 OA
BRANCH  15  17
HETATM   17  C6  UNL     1      24.192  29.492  19.698  1.00  0.00     0.084 C 
HETATM   18  C4  UNL     1      24.890  28.419  19.467  1.00  0.00    -0.078 C 
HETATM   19  C5  UNL     1      24.255  27.083  19.394  1.00  0.00     0.043 C 
BRANCH  18  20
HETATM   20  C3  UNL     1      26.344  28.491  19.268  1.00  0.00     0.033 C 
BRANCH  20  21
HETATM   21  C2  UNL     1      27.018  27.315  19.907  1.00  0.00    -0.000 C 
HETATM   22  C1  UNL     1      28.437  27.129  19.369  1.00  0.00     0.005 C 
ENDBRANCH  20  21
ENDBRANCH  18  20
ENDBRANCH  15  17
ENDBRANCH  14  15
ENDBRANCH   1  14
BRANCH   5  23
HETATM   23  O3  UNL     1      21.210  30.901  25.200  1.00  0.00    -0.393 OA
ATOM     24  H3  UNL     1      21.515  31.459  25.907  1.00  0.00     0.210 HD
ENDBRANCH   5  23
BRANCH   6  25
HETATM   25  C14 UNL     1      20.644  28.446  24.071  1.00  0.00     0.188 C 
HETATM   26  O4  UNL     1      20.307  27.688  23.128  1.00  0.00    -0.647 OA
HETATM   27  O5  UNL     1      19.634  29.010  24.838  1.00  0.00    -0.647 OA
ENDBRANCH   6  25
BRANCH  13  28
HETATM   28  O8  UNL     1      25.370  28.284  22.993  1.00  0.00    -0.393 OA
ATOM     29  H8  UNL     1      25.216  29.009  22.399  1.00  0.00     0.210 HD
ENDBRANCH  13  28
BRANCH   7  30
HETATM   30  O6  UNL     1      21.281  27.764  26.440  1.00  0.00    -0.394 OA
ATOM     31  H6  UNL     1      21.197  26.828  26.582  1.00  0.00     0.210 HD
ENDBRANCH   7  30
BRANCH   9  32
HETATM   32  C18 UNL     1      24.969  25.813  23.926  1.00  0.00     0.047 C 
BRANCH  32  33
HETATM   33  C19 UNL     1      25.469  25.203  25.162  1.00  0.00    -0.023 C 
HETATM   34  C20 UNL     1      25.445  23.891  25.364  1.00  0.00    -0.091 C 
HETATM   35  C21 UNL     1      25.964  23.299  26.639  1.00  0.00     0.042 C 
HETATM   36  C22 UNL     1      24.907  22.943  24.347  1.00  0.00     0.042 C 
ENDBRANCH  32  33
ENDBRANCH   9  32
TORSDOF 11
ENDMDL
MODEL 3
REMARK VINA RESULT: -6.772823227      1.408      1.813
REMARK  11 active torsions:
REMARK  status: ('A' for Active; 'I' for Inactive)
REMARK    1  A    between atoms: C2_2  and  C3_3 
REMARK    2  A    between atoms: C3_3  and  C4_4 
REMARK    3  A    between atoms: C6_6  and  C7_7 
REMARK    4  A    between atoms: C7_7  and  O2_9 
REMARK    5  A    between atoms: O2_9  and  C8_10 
REMARK    6  A    between atoms: C12_14  and  O3_15 
REMARK    7  A    between atoms: C13_17  and  C14_18 
REMARK    8  A    between atoms: C15_21  and  O6_22 
REMARK    9  A    between atoms: C17_25  and  C18_26 
REMARK   10  A    between atoms: C18_26  and  C19_27 
REMARK   11  A    between atoms: C25_34  and  O8_35 
ROOT
HETATM    1  C8  UNL     1      23.223  29.131  21.999  1.00  0.00     0.162 C 
HETATM    2  C9  UNL     1      22.236  30.234  21.706  1.00  0.00     0.008 C 
HETATM    3  C10 UNL     1      21.434  29.973  20.453  1.00  0.00     0.020 C 
HETATM    4  C11 UNL     1      22.944  31.582  21.521  1.00  0.00     0.020 C 
HETATM    5  C12 UNL     1      21.353  30.381  22.927  1.00  0.00     0.151 C 
HETATM    6  C13 UNL     1      21.341  28.969  23.476  1.00  0.00     0.120 C 
HETATM    7  C15 UNL     1      21.005  28.920  24.942  1.00  0.00     0.142 C 
HETATM    8  C16 UNL     1      21.760  27.791  25.644  1.00  0.00     0.053 C 
HETATM    9  C17 UNL     1      23.147  27.759  25.115  1.00  0.00     0.054 C 
HETATM   10  C23 UNL     1      23.131  27.247  23.695  1.00  0.00     0.153 C 
HETATM   11  O7  UNL     1      23.351  26.118  23.277  1.00  0.00    -0.296 OA
HETATM   12  C24 UNL     1      22.786  28.599  23.295  1.00  0.00     0.098 C 
HETATM   13  C25 UNL     1      23.565  29.108  24.515  1.00  0.00     0.154 C 
ENDROOT
BRANCH   1  14
HETATM   14  O2  UNL     1      23.299  28.185  20.960  1.00  0.00    -0.310 OA
BRANCH  14  15
HETATM   15  C7  UNL     1      24.551  27.884  20.379  1.00  0.00     0.283 C 
HETATM   16  O1  UNL     1      25.544  27.938  21.137  1.00  0.00    -0.260 OA
BRANCH  15  17
HETATM   17  C6  UNL     1      24.672  27.534  18.985  1.00  0.00     0.084 C 
HETATM   18  C4  UNL     1      24.595  28.397  18.014  1.00  0.00    -0.078 C 
HETATM   19  C5  UNL     1      24.371  29.837  18.275  1.00  0.00     0.043 C 
BRANCH  18  20
HETATM   20  C3  UNL     1      24.727  27.974  16.614  1.00  0.00     0.033 C 
BRANCH  20  21
HETATM   21  C2  UNL     1      25.856  28.702  15.951  1.00  0.00    -0.000 C 
HETATM   22  C1  UNL     1      27.165  27.921  16.069  1.00  0.00     0.005 C 
ENDBRANCH  20  21
ENDBRANCH  18  20
ENDBRANCH  15  17
ENDBRANCH  14  15
ENDBRANCH   1  14
BRANCH   5  23
HETATM   23  O3  UNL     1      20.076  30.813  22.585  1.00  0.00    -0.393 OA
ATOM     24  H3  UNL     1      20.055  31.750  22.424  1.00  0.00     0.210 HD
ENDBRANCH   5  23
BRANCH   6  25
HETATM   25  C14 UNL     1      20.424  28.079  22.740  1.00  0.00     0.188 C 
HETATM   26  O4  UNL     1      20.699  26.904  22.389  1.00  0.00    -0.647 OA
HETATM   27  O5  UNL     1      19.169  28.573  22.412  1.00  0.00    -0.647 OA
ENDBRANCH   6  25
BRANCH  13  28
HETATM   28  O8  UNL     1      24.915  29.124  24.243  1.00  0.00    -0.393 OA
ATOM     29  H8  UNL     1      25.277  29.991  24.385  1.00  0.00     0.210 HD
ENDBRANCH  13  28
BRANCH   7  30
HETATM   30  O6  UNL     1      19.637  28.610  25.102  1.00  0.00    -0.394 OA
ATOM     31  H6  UNL     1      19.152  28.912  24.343  1.00  0.00     0.210 HD
ENDBRANCH   7  30
BRANCH   9  32
HETATM   32  C18 UNL     1      24.220  27.218  25.981  1.00  0.00     0.047 C 
BRANCH  32  33
HETATM   33  C19 UNL     1      23.861  25.998  26.713  1.00  0.00    -0.023 C 
HETATM   34  C20 UNL     1      24.472  24.840  26.501  1.00  0.00    -0.091 C 
HETATM   35  C21 UNL     1      24.081  23.612  27.267  1.00  0.00     0.042 C 
HETATM   36  C22 UNL     1      25.568  24.693  25.501  1.00  0.00     0.042 C 
ENDBRANCH  32  33
ENDBRANCH   9  32
TORSDOF 11
ENDMDL
MODEL 4
REMARK VINA RESULT: -6.745344209      0.915      1.014
REMARK  11 active torsions:
REMARK  status: ('A' for Active; 'I' for Inactive)
REMARK    1  A    between atoms: C2_2  and  C3_3 
REMARK    2  A    between atoms: C3_3  and  C4_4 
REMARK    3  A    between atoms: C6_6  and  C7_7 
REMARK    4  A    between atoms: C7_7  and  O2_9 
REMARK    5  A    between atoms: O2_9  and  C8_10 
REMARK    6  A    between atoms: C12_14  and  O3_15 
REMARK    7  A    between atoms: C13_17  and  C14_18 
REMARK    8  A    between atoms: C15_21  and  O6_22 
REMARK    9  A    between atoms: C17_25  and  C18_26 
REMARK   10  A    between atoms: C18_26  and  C19_27 
REMARK   11  A    between atoms: C25_34  and  O8_35 
ROOT
HETATM    1  C8  UNL     1      22.719  29.654  22.250  1.00  0.00     0.162 C 
HETATM    2  C9  UNL     1      21.428  30.412  22.064  1.00  0.00     0.008 C 
HETATM    3  C10 UNL     1      20.655  29.948  20.852  1.00  0.00     0.020 C 
HETATM    4  C11 UNL     1      21.681  31.914  21.895  1.00  0.00     0.020 C 
HETATM    5  C12 UNL     1      20.630  30.256  23.342  1.00  0.00     0.151 C 
HETATM    6  C13 UNL     1      21.083  28.895  23.829  1.00  0.00     0.120 C 
HETATM    7  C15 UNL     1      20.882  28.713  25.310  1.00  0.00     0.142 C 
HETATM    8  C16 UNL     1      21.990  27.851  25.916  1.00  0.00     0.053 C 
HETATM    9  C17 UNL     1      23.281  28.254  25.303  1.00  0.00     0.054 C 
HETATM   10  C23 UNL     1      23.320  27.794  23.866  1.00  0.00     0.153 C 
HETATM   11  O7  UNL     1      23.840  26.794  23.387  1.00  0.00    -0.296 OA
HETATM   12  C24 UNL     1      22.556  28.986  23.546  1.00  0.00     0.098 C 
HETATM   13  C25 UNL     1      23.230  29.679  24.737  1.00  0.00     0.154 C 
ENDROOT
BRANCH   1  14
HETATM   14  O2  UNL     1      23.003  28.800  21.168  1.00  0.00    -0.310 OA
BRANCH  14  15
HETATM   15  C7  UNL     1      24.004  29.159  20.239  1.00  0.00     0.283 C 
HETATM   16  O1  UNL     1      24.294  30.373  20.172  1.00  0.00    -0.260 OA
BRANCH  15  17
HETATM   17  C6  UNL     1      24.656  28.172  19.412  1.00  0.00     0.084 C 
HETATM   18  C4  UNL     1      25.716  27.512  19.775  1.00  0.00    -0.078 C 
HETATM   19  C5  UNL     1      26.348  27.729  21.096  1.00  0.00     0.043 C 
BRANCH  18  20
HETATM   20  C3  UNL     1      26.331  26.519  18.884  1.00  0.00     0.033 C 
BRANCH  20  21
HETATM   21  C2  UNL     1      26.929  25.400  19.681  1.00  0.00    -0.000 C 
HETATM   22  C1  UNL     1      27.186  24.172  18.806  1.00  0.00     0.005 C 
ENDBRANCH  20  21
ENDBRANCH  18  20
ENDBRANCH  15  17
ENDBRANCH  14  15
ENDBRANCH   1  14
BRANCH   5  23
HETATM   23  O3  UNL     1      19.261  30.287  23.097  1.00  0.00    -0.393 OA
ATOM     24  H3  UNL     1      19.055  29.963  22.228  1.00  0.00     0.210 HD
ENDBRANCH   5  23
BRANCH   6  25
HETATM   25  C14 UNL     1      20.428  27.785  23.113  1.00  0.00     0.188 C 
HETATM   26  O4  UNL     1      21.027  26.783  22.650  1.00  0.00    -0.647 OA
HETATM   27  O5  UNL     1      19.052  27.853  22.939  1.00  0.00    -0.647 OA
ENDBRANCH   6  25
BRANCH  13  28
HETATM   28  O8  UNL     1      24.490  30.110  24.385  1.00  0.00    -0.393 OA
ATOM     29  H8  UNL     1      24.458  30.633  23.592  1.00  0.00     0.210 HD
ENDBRANCH  13  28
BRANCH   7  30
HETATM   30  O6  UNL     1      19.686  27.999  25.539  1.00  0.00    -0.394 OA
ATOM     31  H6  UNL     1      19.888  27.083  25.695  1.00  0.00     0.210 HD
ENDBRANCH   7  30
BRANCH   9  32
HETATM   32  C18 UNL     1      24.526  28.045  26.079  1.00  0.00     0.047 C 
BRANCH  32  33
HETATM   33  C19 UNL     1      24.653  26.717  26.687  1.00  0.00    -0.023 C 
HETATM   34  C20 UNL     1      25.668  25.907  26.412  1.00  0.00    -0.091 C 
HETATM   35  C21 UNL     1      25.768  24.555  27.052  1.00  0.00     0.042 C 
HETATM   36  C22 UNL     1      26.751  26.288  25.462  1.00  0.00     0.042 C 
ENDBRANCH  32  33
ENDBRANCH   9  32
TORSDOF 11
ENDMDL
MODEL 5
REMARK VINA RESULT: -6.739820488      1.482      5.196
REMARK  11 active torsions:
REMARK  status: ('A' for Active; 'I' for Inactive)
REMARK    1  A    between atoms: C2_2  and  C3_3 
REMARK    2  A    between atoms: C3_3  and  C4_4 
REMARK    3  A    between atoms: C6_6  and  C7_7 
REMARK    4  A    between atoms: C7_7  and  O2_9 
REMARK    5  A    between atoms: O2_9  and  C8_10 
REMARK    6  A    between atoms: C12_14  and  O3_15 
REMARK    7  A    between atoms: C13_17  and  C14_18 
REMARK    8  A    between atoms: C15_21  and  O6_22 
REMARK    9  A    between atoms: C17_25  and  C18_26 
REMARK   10  A    between atoms: C18_26  and  C19_27 
REMARK   11  A    between atoms: C25_34  and  O8_35 
ROOT
HETATM    1  C8  UNL     1      21.810  28.003  23.428  1.00  0.00     0.162 C 
HETATM    2  C9  UNL     1      20.578  28.610  22.804  1.00  0.00     0.008 C 
HETATM    3  C10 UNL     1      20.021  29.753  23.620  1.00  0.00     0.020 C 
HETATM    4  C11 UNL     1      19.460  27.572  22.651  1.00  0.00     0.020 C 
HETATM    5  C12 UNL     1      20.954  29.041  21.401  1.00  0.00     0.151 C 
HETATM    6  C13 UNL     1      22.423  29.374  21.560  1.00  0.00     0.120 C 
HETATM    7  C15 UNL     1      23.175  29.309  20.257  1.00  0.00     0.142 C 
HETATM    8  C16 UNL     1      24.605  28.813  20.469  1.00  0.00     0.053 C 
HETATM    9  C17 UNL     1      24.572  27.706  21.458  1.00  0.00     0.054 C 
HETATM   10  C23 UNL     1      24.261  28.262  22.826  1.00  0.00     0.153 C 
HETATM   11  O7  UNL     1      25.026  28.546  23.738  1.00  0.00    -0.296 OA
HETATM   12  C24 UNL     1      22.864  28.234  22.433  1.00  0.00     0.098 C 
HETATM   13  C25 UNL     1      23.192  27.039  21.528  1.00  0.00     0.154 C 
ENDROOT
BRANCH   1  14
HETATM   14  O2  UNL     1      22.076  28.520  24.710  1.00  0.00    -0.310 OA
BRANCH  14  15
HETATM   15  C7  UNL     1      22.212  27.637  25.804  1.00  0.00     0.283 C 
HETATM   16  O1  UNL     1      21.508  27.881  26.809  1.00  0.00    -0.260 OA
BRANCH  15  17
HETATM   17  C6  UNL     1      23.117  26.514  25.760  1.00  0.00     0.084 C 
HETATM   18  C4  UNL     1      24.281  26.502  26.341  1.00  0.00    -0.078 C 
HETATM   19  C5  UNL     1      24.775  27.667  27.110  1.00  0.00     0.043 C 
BRANCH  18  20
HETATM   20  C3  UNL     1      25.156  25.324  26.258  1.00  0.00     0.033 C 
BRANCH  20  21
HETATM   21  C2  UNL     1      25.489  25.021  24.828  1.00  0.00    -0.000 C 
HETATM   22  C1  UNL     1      25.001  23.629  24.428  1.00  0.00     0.005 C 
ENDBRANCH  20  21
ENDBRANCH  18  20
ENDBRANCH  15  17
ENDBRANCH  14  15
ENDBRANCH   1  14
BRANCH   5  23
HETATM   23  O3  UNL     1      20.215  30.147  20.992  1.00  0.00    -0.393 OA
ATOM     24  H3  UNL     1      20.334  30.322  20.065  1.00  0.00     0.210 HD
ENDBRANCH   5  23
BRANCH   6  25
HETATM   25  C14 UNL     1      22.646  30.693  22.181  1.00  0.00     0.188 C 
HETATM   26  O4  UNL     1      23.332  30.887  23.215  1.00  0.00    -0.647 OA
HETATM   27  O5  UNL     1      22.055  31.797  21.581  1.00  0.00    -0.647 OA
ENDBRANCH   6  25
BRANCH  13  28
HETATM   28  O8  UNL     1      23.247  25.881  22.272  1.00  0.00    -0.393 OA
ATOM     29  H8  UNL     1      22.373  25.582  22.495  1.00  0.00     0.210 HD
ENDBRANCH  13  28
BRANCH   7  30
HETATM   30  O6  UNL     1      23.307  30.610  19.723  1.00  0.00    -0.394 OA
ATOM     31  H6  UNL     1      22.556  30.805  19.173  1.00  0.00     0.210 HD
ENDBRANCH   7  30
BRANCH   9  32
HETATM   32  C18 UNL     1      25.644  26.684  21.408  1.00  0.00     0.047 C 
BRANCH  32  33
HETATM   33  C19 UNL     1      26.890  27.132  20.778  1.00  0.00    -0.023 C 
HETATM   34  C20 UNL     1      27.482  26.442  19.811  1.00  0.00    -0.091 C 
HETATM   35  C21 UNL     1      28.756  26.928  19.188  1.00  0.00     0.042 C 
HETATM   36  C22 UNL     1      26.924  25.159  19.297  1.00  0.00     0.042 C 
ENDBRANCH  32  33
ENDBRANCH   9  32
TORSDOF 11
ENDMDL
