MODEL 1
REMARK VINA RESULT: -8.075244920      0.000      0.000
REMARK  13 active torsions:
REMARK  status: ('A' for Active; 'I' for Inactive)
REMARK       I    between atoms: C2_2  and  N1_4 
REMARK    1  A    between atoms: N1_4  and  C3_5 
REMARK    2  A    between atoms: C3_5  and  C4_6 
REMARK    3  A    between atoms: C3_5  and  C13_30 
REMARK       I    between atoms: C4_6  and  N2_8 
REMARK    4  A    between atoms: C5_10  and  C6_11 
REMARK    5  A    between atoms: C5_10  and  C10_18 
REMARK    6  A    between atoms: C6_11  and  C7_12 
REMARK    7  A    between atoms: C11_20  and  N4_21 
REMARK    8  A    between atoms: C12_26  and  N6_27 
REMARK    9  A    between atoms: C16_33  and  C17_34 
REMARK   10  A    between atoms: C17_34  and  C18_35 
REMARK   11  A    between atoms: C17_34  and  S3_38 
REMARK   12  A    between atoms: S3_38  and  C19_41 
REMARK   13  A    between atoms: C19_41  and  C20_42 
ROOT
HETATM    1  C3  UNL     1     -11.729 -12.569 -19.018  1.00  0.00     0.195 C 
ENDROOT
BRANCH   1   2
HETATM    2  N1  UNL     1     -10.741 -11.949 -18.815  1.00  0.00    -0.364 NA
HETATM    3  C2  UNL     1      -9.619 -11.277 -18.597  1.00  0.00     0.288 C 
HETATM    4  C1  UNL     1      -9.412  -9.825 -18.976  1.00  0.00     0.135 C 
HETATM    5  O1  UNL     1      -8.613 -11.847 -18.031  1.00  0.00    -0.258 OA
ENDBRANCH   1   2
BRANCH   1   6
HETATM    6  C4  UNL     1     -12.687 -12.852 -17.914  1.00  0.00     0.288 C 
HETATM    7  O2  UNL     1     -13.301 -11.852 -17.420  1.00  0.00    -0.264 OA
HETATM    8  N2  UNL     1     -12.889 -14.099 -17.472  1.00  0.00    -0.323 N 
HETATM    9  C5  UNL     1     -12.508 -14.860 -16.504  1.00  0.00     0.039 C 
ATOM     10  H2  UNL     1     -13.538 -14.595 -18.083  1.00  0.00     0.169 HD
BRANCH   9  11
HETATM   11  C6  UNL     1     -13.102 -16.227 -16.532  1.00  0.00     0.116 C 
BRANCH  11  12
HETATM   12  C7  UNL     1     -14.609 -16.090 -16.239  1.00  0.00     0.021 A 
HETATM   13  C8  UNL     1     -15.548 -16.595 -17.095  1.00  0.00     0.076 A 
HETATM   14  S1  UNL     1     -17.006 -16.172 -16.279  1.00  0.00    -0.095 SA
HETATM   15  C9  UNL     1     -16.319 -15.390 -14.924  1.00  0.00     0.138 A 
HETATM   16  N3  UNL     1     -15.022 -15.495 -15.167  1.00  0.00    -0.363 N 
ATOM     17  H3  UNL     1     -14.347 -15.106 -14.508  1.00  0.00     0.165 HD
ENDBRANCH  11  12
ENDBRANCH   9  11
BRANCH   9  18
HETATM   18  C10 UNL     1     -11.564 -14.285 -15.562  1.00  0.00     0.081 A 
HETATM   19  S2  UNL     1      -9.814 -14.410 -15.810  1.00  0.00    -0.049 SA
HETATM   20  C11 UNL     1      -9.295 -13.628 -14.429  1.00  0.00     0.144 A 
HETATM   21  N5  UNL     1     -10.411 -13.299 -13.829  1.00  0.00    -0.317 N 
HETATM   22  C12 UNL     1     -11.596 -13.617 -14.378  1.00  0.00     0.195 A 
ATOM     23  H5  UNL     1     -10.381 -12.798 -12.941  1.00  0.00     0.169 HD
BRANCH  20  24
HETATM   24  N4  UNL     1      -8.068 -13.376 -14.002  1.00  0.00    -0.380 N 
ATOM     25  H42 UNL     1      -7.304 -12.982 -14.551  1.00  0.00     0.158 HD
ATOM     26  H41 UNL     1      -7.650 -13.516 -13.083  1.00  0.00     0.158 HD
ENDBRANCH  20  24
BRANCH  22  27
HETATM   27  N6  UNL     1     -12.796 -13.214 -13.690  1.00  0.00    -0.096 N 
HETATM   28  O3  UNL     1     -13.810 -12.805 -14.163  1.00  0.00    -0.530 OA
HETATM   29  O4  UNL     1     -12.826 -13.281 -12.285  1.00  0.00    -0.530 OA
ENDBRANCH  22  27
ENDBRANCH   9  18
ENDBRANCH   1   6
BRANCH   1  30
HETATM   30  C13 UNL     1     -12.077 -13.124 -20.363  1.00  0.00     0.051 A 
HETATM   31  C14 UNL     1     -11.545 -14.223 -20.973  1.00  0.00     0.023 A 
HETATM   32  C15 UNL     1     -12.001 -14.525 -22.196  1.00  0.00     0.018 A 
HETATM   33  C16 UNL     1     -12.963 -13.702 -22.730  1.00  0.00     0.012 A 
HETATM   34  S4  UNL     1     -13.190 -12.542 -21.503  1.00  0.00    -0.089 SA
BRANCH  33  35
HETATM   35  C17 UNL     1     -13.626 -13.859 -24.076  1.00  0.00     0.249 C 
BRANCH  35  36
HETATM   36  C18 UNL     1     -14.866 -14.598 -23.878  1.00  0.00     0.197 C 
HETATM   37  O5  UNL     1     -15.571 -14.489 -22.847  1.00  0.00    -0.647 OA
HETATM   38  O6  UNL     1     -15.332 -15.479 -24.847  1.00  0.00    -0.647 OA
ENDBRANCH  35  36
BRANCH  35  39
HETATM   39  S3  UNL     1     -13.846 -12.222 -24.738  1.00  0.00     0.167 S 
HETATM   40  O7  UNL     1     -14.922 -11.479 -23.969  1.00  0.00    -0.226 OA
HETATM   41  O8  UNL     1     -12.585 -11.417 -24.566  1.00  0.00    -0.226 OA
BRANCH  39  42
HETATM   42  C19 UNL     1     -14.358 -12.325 -26.405  1.00  0.00     0.180 C 
BRANCH  42  43
HETATM   43  C20 UNL     1     -15.014 -11.135 -26.950  1.00  0.00    -0.044 A 
HETATM   44  C21 UNL     1     -14.210 -10.019 -27.223  1.00  0.00     0.008 A 
HETATM   45  C22 UNL     1     -14.737  -8.851 -27.726  1.00  0.00     0.001 A 
HETATM   46  C23 UNL     1     -16.071  -8.726 -27.984  1.00  0.00     0.000 A 
HETATM   47  C24 UNL     1     -16.886  -9.825 -27.719  1.00  0.00     0.001 A 
HETATM   48  C25 UNL     1     -16.360 -11.002 -27.213  1.00  0.00     0.008 A 
ENDBRANCH  42  43
ENDBRANCH  39  42
ENDBRANCH  35  39
ENDBRANCH  33  35
ENDBRANCH   1  30
TORSDOF 13
ENDMDL
MODEL 2
REMARK VINA RESULT: -7.997464728      3.444      8.841
REMARK  13 active torsions:
REMARK  status: ('A' for Active; 'I' for Inactive)
REMARK       I    between atoms: C2_2  and  N1_4 
REMARK    1  A    between atoms: N1_4  and  C3_5 
REMARK    2  A    between atoms: C3_5  and  C4_6 
REMARK    3  A    between atoms: C3_5  and  C13_30 
REMARK       I    between atoms: C4_6  and  N2_8 
REMARK    4  A    between atoms: C5_10  and  C6_11 
REMARK    5  A    between atoms: C5_10  and  C10_18 
REMARK    6  A    between atoms: C6_11  and  C7_12 
REMARK    7  A    between atoms: C11_20  and  N4_21 
REMARK    8  A    between atoms: C12_26  and  N6_27 
REMARK    9  A    between atoms: C16_33  and  C17_34 
REMARK   10  A    between atoms: C17_34  and  C18_35 
REMARK   11  A    between atoms: C17_34  and  S3_38 
REMARK   12  A    between atoms: S3_38  and  C19_41 
REMARK   13  A    between atoms: C19_41  and  C20_42 
ROOT
HETATM    1  C3  UNL     1     -12.204 -15.869 -21.246  1.00  0.00     0.195 C 
ENDROOT
BRANCH   1   2
HETATM    2  N1  UNL     1     -12.536 -16.883 -21.759  1.00  0.00    -0.364 NA
HETATM    3  C2  UNL     1     -12.883 -18.021 -22.345  1.00  0.00     0.288 C 
HETATM    4  C1  UNL     1     -13.622 -19.144 -21.647  1.00  0.00     0.135 C 
HETATM    5  O1  UNL     1     -12.598 -18.234 -23.582  1.00  0.00    -0.258 OA
ENDBRANCH   1   2
BRANCH   1   6
HETATM    6  C4  UNL     1     -12.000 -14.639 -22.059  1.00  0.00     0.288 C 
HETATM    7  O2  UNL     1     -10.937 -13.975 -21.836  1.00  0.00    -0.264 OA
HETATM    8  N2  UNL     1     -12.894 -14.260 -22.981  1.00  0.00    -0.323 N 
HETATM    9  C5  UNL     1     -13.873 -13.430 -23.100  1.00  0.00     0.039 C 
ATOM     10  H2  UNL     1     -12.760 -14.783 -23.846  1.00  0.00     0.169 HD
BRANCH   9  11
HETATM   11  C6  UNL     1     -14.532 -13.453 -24.438  1.00  0.00     0.116 C 
BRANCH  11  12
HETATM   12  C7  UNL     1     -14.338 -12.066 -25.081  1.00  0.00     0.021 A 
HETATM   13  C8  UNL     1     -13.172 -11.733 -25.711  1.00  0.00     0.076 A 
HETATM   14  S1  UNL     1     -13.518 -10.125 -26.226  1.00  0.00    -0.095 SA
HETATM   15  C9  UNL     1     -15.105  -9.998 -25.606  1.00  0.00     0.138 A 
HETATM   16  N3  UNL     1     -15.283 -11.183 -25.044  1.00  0.00    -0.363 N 
ATOM     17  H3  UNL     1     -16.165 -11.400 -24.581  1.00  0.00     0.165 HD
ENDBRANCH  11  12
ENDBRANCH   9  11
BRANCH   9  18
HETATM   18  C10 UNL     1     -14.187 -12.627 -21.932  1.00  0.00     0.081 A 
HETATM   19  S2  UNL     1     -13.504 -11.008 -21.709  1.00  0.00    -0.049 SA
HETATM   20  C11 UNL     1     -14.178 -10.638 -20.227  1.00  0.00     0.144 A 
HETATM   21  N5  UNL     1     -14.880 -11.705 -19.938  1.00  0.00    -0.317 N 
HETATM   22  C12 UNL     1     -14.911 -12.748 -20.787  1.00  0.00     0.195 A 
ATOM     23  H5  UNL     1     -15.405 -11.746 -19.065  1.00  0.00     0.169 HD
BRANCH  20  24
HETATM   24  N4  UNL     1     -14.063  -9.548 -19.486  1.00  0.00    -0.380 N 
ATOM     25  H42 UNL     1     -14.697  -8.750 -19.479  1.00  0.00     0.158 HD
ATOM     26  H41 UNL     1     -13.351  -9.289 -18.803  1.00  0.00     0.158 HD
ENDBRANCH  20  24
BRANCH  22  27
HETATM   27  N6  UNL     1     -15.715 -13.890 -20.434  1.00  0.00    -0.096 N 
HETATM   28  O3  UNL     1     -15.347 -14.948 -20.029  1.00  0.00    -0.530 OA
HETATM   29  O4  UNL     1     -17.112 -13.804 -20.575  1.00  0.00    -0.530 OA
ENDBRANCH  22  27
ENDBRANCH   9  18
ENDBRANCH   1   6
BRANCH   1  30
HETATM   30  C13 UNL     1     -11.944 -15.749 -19.777  1.00  0.00     0.051 A 
HETATM   31  C14 UNL     1     -12.207 -16.672 -18.808  1.00  0.00     0.023 A 
HETATM   32  C15 UNL     1     -11.904 -16.338 -17.546  1.00  0.00     0.018 A 
HETATM   33  C16 UNL     1     -11.356 -15.095 -17.339  1.00  0.00     0.012 A 
HETATM   34  S4  UNL     1     -11.287 -14.446 -18.912  1.00  0.00    -0.089 SA
BRANCH  33  35
HETATM   35  C17 UNL     1     -10.926 -14.519 -16.012  1.00  0.00     0.249 C 
BRANCH  35  36
HETATM   36  C18 UNL     1      -9.745 -13.697 -16.246  1.00  0.00     0.197 C 
HETATM   37  O5  UNL     1      -9.806 -12.499 -16.612  1.00  0.00    -0.647 OA
HETATM   38  O6  UNL     1      -8.469 -14.218 -16.068  1.00  0.00    -0.647 OA
ENDBRANCH  35  36
BRANCH  35  39
HETATM   39  S3  UNL     1     -12.322 -13.629 -15.359  1.00  0.00     0.167 S 
HETATM   40  O7  UNL     1     -13.213 -14.558 -14.556  1.00  0.00    -0.226 OA
HETATM   41  O8  UNL     1     -11.858 -12.567 -14.397  1.00  0.00    -0.226 OA
BRANCH  39  42
HETATM   42  C19 UNL     1     -13.273 -12.980 -16.671  1.00  0.00     0.180 C 
BRANCH  42  43
HETATM   43  C20 UNL     1     -14.691 -12.752 -16.386  1.00  0.00    -0.044 A 
HETATM   44  C21 UNL     1     -15.028 -11.607 -15.650  1.00  0.00     0.008 A 
HETATM   45  C22 UNL     1     -16.331 -11.312 -15.322  1.00  0.00     0.001 A 
HETATM   46  C23 UNL     1     -17.361 -12.125 -15.699  1.00  0.00     0.000 A 
HETATM   47  C24 UNL     1     -17.045 -13.269 -16.431  1.00  0.00     0.001 A 
HETATM   48  C25 UNL     1     -15.735 -13.568 -16.763  1.00  0.00     0.008 A 
ENDBRANCH  42  43
ENDBRANCH  39  42
ENDBRANCH  35  39
ENDBRANCH  33  35
ENDBRANCH   1  30
TORSDOF 13
ENDMDL
MODEL 3
REMARK VINA RESULT: -7.957532425      3.340      9.396
REMARK  13 active torsions:
REMARK  status: ('A' for Active; 'I' for Inactive)
REMARK       I    between atoms: C2_2  and  N1_4 
REMARK    1  A    between atoms: N1_4  and  C3_5 
REMARK    2  A    between atoms: C3_5  and  C4_6 
REMARK    3  A    between atoms: C3_5  and  C13_30 
REMARK       I    between atoms: C4_6  and  N2_8 
REMARK    4  A    between atoms: C5_10  and  C6_11 
REMARK    5  A    between atoms: C5_10  and  C10_18 
REMARK    6  A    between atoms: C6_11  and  C7_12 
REMARK    7  A    between atoms: C11_20  and  N4_21 
REMARK    8  A    between atoms: C12_26  and  N6_27 
REMARK    9  A    between atoms: C16_33  and  C17_34 
REMARK   10  A    between atoms: C17_34  and  C18_35 
REMARK   11  A    between atoms: C17_34  and  S3_38 
REMARK   12  A    between atoms: S3_38  and  C19_41 
REMARK   13  A    between atoms: C19_41  and  C20_42 
ROOT
HETATM    1  C3  UNL     1     -13.120 -10.543 -19.812  1.00  0.00     0.195 C 
ENDROOT
BRANCH   1   2
HETATM    2  N1  UNL     1     -12.110  -9.926 -19.777  1.00  0.00    -0.364 NA
HETATM    3  C2  UNL     1     -10.993  -9.213 -19.729  1.00  0.00     0.288 C 
HETATM    4  C1  UNL     1      -9.683  -9.724 -19.166  1.00  0.00     0.135 C 
HETATM    5  O1  UNL     1     -10.967  -8.005 -20.174  1.00  0.00    -0.258 OA
ENDBRANCH   1   2
BRANCH   1   6
HETATM    6  C4  UNL     1     -13.921 -10.617 -21.065  1.00  0.00     0.288 C 
HETATM    7  O2  UNL     1     -15.187 -10.652 -20.933  1.00  0.00    -0.264 OA
HETATM    8  N2  UNL     1     -13.331 -10.640 -22.266  1.00  0.00    -0.323 N 
HETATM    9  C5  UNL     1     -12.993 -11.499 -23.165  1.00  0.00     0.039 C 
ATOM     10  H2  UNL     1     -13.073  -9.697 -22.557  1.00  0.00     0.169 HD
BRANCH   9  11
HETATM   11  C6  UNL     1     -12.332 -10.902 -24.362  1.00  0.00     0.116 C 
BRANCH  11  12
HETATM   12  C7  UNL     1     -13.284 -11.079 -25.561  1.00  0.00     0.021 A 
HETATM   13  C8  UNL     1     -14.355 -10.251 -25.745  1.00  0.00     0.076 A 
HETATM   14  S1  UNL     1     -15.028 -10.892 -27.197  1.00  0.00    -0.095 SA
HETATM   15  C9  UNL     1     -13.906 -12.154 -27.458  1.00  0.00     0.138 A 
HETATM   16  N3  UNL     1     -13.085 -12.017 -26.429  1.00  0.00    -0.363 N 
ATOM     17  H3  UNL     1     -12.294 -12.653 -26.320  1.00  0.00     0.165 HD
ENDBRANCH  11  12
ENDBRANCH   9  11
BRANCH   9  18
HETATM   18  C10 UNL     1     -13.287 -12.891 -22.874  1.00  0.00     0.081 A 
HETATM   19  S2  UNL     1     -14.801 -13.647 -23.396  1.00  0.00    -0.049 SA
HETATM   20  C11 UNL     1     -14.572 -15.170 -22.751  1.00  0.00     0.144 A 
HETATM   21  N5  UNL     1     -13.400 -15.082 -22.175  1.00  0.00    -0.317 N 
HETATM   22  C12 UNL     1     -12.708 -13.930 -22.215  1.00  0.00     0.195 A 
ATOM     23  H5  UNL     1     -13.009 -15.892 -21.693  1.00  0.00     0.169 HD
BRANCH  20  24
HETATM   24  N4  UNL     1     -15.353 -16.238 -22.788  1.00  0.00    -0.380 N 
ATOM     25  H42 UNL     1     -16.031 -16.469 -23.514  1.00  0.00     0.158 HD
ATOM     26  H41 UNL     1     -15.437 -17.014 -22.132  1.00  0.00     0.158 HD
ENDBRANCH  20  24
BRANCH  22  27
HETATM   27  N6  UNL     1     -11.413 -13.891 -21.585  1.00  0.00    -0.096 N 
HETATM   28  O3  UNL     1     -10.991 -13.072 -20.828  1.00  0.00    -0.530 OA
HETATM   29  O4  UNL     1     -10.490 -14.914 -21.868  1.00  0.00    -0.530 OA
ENDBRANCH  22  27
ENDBRANCH   9  18
ENDBRANCH   1   6
BRANCH   1  30
HETATM   30  C13 UNL     1     -13.673 -11.263 -18.622  1.00  0.00     0.051 A 
HETATM   31  C14 UNL     1     -14.806 -10.967 -17.923  1.00  0.00     0.023 A 
HETATM   32  C15 UNL     1     -15.098 -11.745 -16.872  1.00  0.00     0.018 A 
HETATM   33  C16 UNL     1     -14.231 -12.774 -16.592  1.00  0.00     0.012 A 
HETATM   34  S4  UNL     1     -13.045 -12.610 -17.804  1.00  0.00    -0.089 SA
BRANCH  33  35
HETATM   35  C17 UNL     1     -14.369 -13.778 -15.474  1.00  0.00     0.249 C 
BRANCH  35  36
HETATM   36  C18 UNL     1     -14.661 -15.074 -16.074  1.00  0.00     0.197 C 
HETATM   37  O5  UNL     1     -14.915 -15.223 -17.293  1.00  0.00    -0.647 OA
HETATM   38  O6  UNL     1     -14.670 -16.230 -15.302  1.00  0.00    -0.647 OA
ENDBRANCH  35  36
BRANCH  35  39
HETATM   39  S3  UNL     1     -12.854 -13.726 -14.542  1.00  0.00     0.167 S 
HETATM   40  O7  UNL     1     -12.338 -12.302 -14.450  1.00  0.00    -0.226 OA
HETATM   41  O8  UNL     1     -13.100 -14.169 -13.124  1.00  0.00    -0.226 OA
BRANCH  39  42
HETATM   42  C19 UNL     1     -11.635 -14.683 -15.345  1.00  0.00     0.180 C 
BRANCH  42  43
HETATM   43  C20 UNL     1     -10.312 -14.068 -15.468  1.00  0.00    -0.044 A 
HETATM   44  C21 UNL     1      -9.474 -14.102 -14.344  1.00  0.00     0.008 A 
HETATM   45  C22 UNL     1      -8.218 -13.541 -14.358  1.00  0.00     0.001 A 
HETATM   46  C23 UNL     1      -7.728 -12.922 -15.471  1.00  0.00     0.000 A 
HETATM   47  C24 UNL     1      -8.546 -12.878 -16.599  1.00  0.00     0.001 A 
HETATM   48  C25 UNL     1      -9.811 -13.442 -16.589  1.00  0.00     0.008 A 
ENDBRANCH  42  43
ENDBRANCH  39  42
ENDBRANCH  35  39
ENDBRANCH  33  35
ENDBRANCH   1  30
TORSDOF 13
ENDMDL
MODEL 4
REMARK VINA RESULT: -7.915000019      4.046      8.262
REMARK  13 active torsions:
REMARK  status: ('A' for Active; 'I' for Inactive)
REMARK       I    between atoms: C2_2  and  N1_4 
REMARK    1  A    between atoms: N1_4  and  C3_5 
REMARK    2  A    between atoms: C3_5  and  C4_6 
REMARK    3  A    between atoms: C3_5  and  C13_30 
REMARK       I    between atoms: C4_6  and  N2_8 
REMARK    4  A    between atoms: C5_10  and  C6_11 
REMARK    5  A    between atoms: C5_10  and  C10_18 
REMARK    6  A    between atoms: C6_11  and  C7_12 
REMARK    7  A    between atoms: C11_20  and  N4_21 
REMARK    8  A    between atoms: C12_26  and  N6_27 
REMARK    9  A    between atoms: C16_33  and  C17_34 
REMARK   10  A    between atoms: C17_34  and  C18_35 
REMARK   11  A    between atoms: C17_34  and  S3_38 
REMARK   12  A    between atoms: S3_38  and  C19_41 
REMARK   13  A    between atoms: C19_41  and  C20_42 
ROOT
HETATM    1  C3  UNL     1     -12.595 -17.077 -19.316  1.00  0.00     0.195 C 
ENDROOT
BRANCH   1   2
HETATM    2  N1  UNL     1     -12.884 -18.193 -19.047  1.00  0.00    -0.364 NA
HETATM    3  C2  UNL     1     -13.221 -19.445 -18.769  1.00  0.00     0.288 C 
HETATM    4  C1  UNL     1     -12.264 -20.479 -18.213  1.00  0.00     0.135 C 
HETATM    5  O1  UNL     1     -14.424 -19.859 -18.968  1.00  0.00    -0.258 OA
ENDBRANCH   1   2
BRANCH   1   6
HETATM    6  C4  UNL     1     -13.030 -16.471 -20.604  1.00  0.00     0.288 C 
HETATM    7  O2  UNL     1     -12.123 -15.928 -21.315  1.00  0.00    -0.264 OA
HETATM    8  N2  UNL     1     -14.311 -16.503 -20.990  1.00  0.00    -0.323 N 
HETATM    9  C5  UNL     1     -15.344 -15.733 -20.992  1.00  0.00     0.039 C 
ATOM     10  H2  UNL     1     -14.537 -17.406 -21.406  1.00  0.00     0.169 HD
BRANCH   9  11
HETATM   11  C6  UNL     1     -16.564 -16.349 -21.589  1.00  0.00     0.116 C 
BRANCH  11  12
HETATM   12  C7  UNL     1     -16.277 -16.608 -23.081  1.00  0.00     0.021 A 
HETATM   13  C8  UNL     1     -16.471 -17.840 -23.638  1.00  0.00     0.076 A 
HETATM   14  S1  UNL     1     -16.015 -17.544 -25.273  1.00  0.00    -0.095 SA
HETATM   15  C9  UNL     1     -15.614 -15.890 -25.127  1.00  0.00     0.138 A 
HETATM   16  N3  UNL     1     -15.850 -15.656 -23.846  1.00  0.00    -0.363 N 
ATOM     17  H3  UNL     1     -15.694 -14.724 -23.461  1.00  0.00     0.165 HD
ENDBRANCH  11  12
ENDBRANCH   9  11
BRANCH   9  18
HETATM   18  C10 UNL     1     -15.169 -14.414 -20.410  1.00  0.00     0.081 A 
HETATM   19  S2  UNL     1     -15.540 -14.095 -18.707  1.00  0.00    -0.049 SA
HETATM   20  C11 UNL     1     -15.190 -12.463 -18.661  1.00  0.00     0.144 A 
HETATM   21  N5  UNL     1     -14.814 -12.199 -19.887  1.00  0.00    -0.317 N 
HETATM   22  C12 UNL     1     -14.789 -13.173 -20.814  1.00  0.00     0.195 A 
ATOM     23  H5  UNL     1     -14.538 -11.250 -20.139  1.00  0.00     0.169 HD
BRANCH  20  24
HETATM   24  N4  UNL     1     -15.259 -11.605 -17.656  1.00  0.00    -0.380 N 
ATOM     25  H42 UNL     1     -14.546 -10.927 -17.388  1.00  0.00     0.158 HD
ATOM     26  H41 UNL     1     -16.000 -11.450 -16.973  1.00  0.00     0.158 HD
ENDBRANCH  20  24
BRANCH  22  27
HETATM   27  N6  UNL     1     -14.346 -12.836 -22.143  1.00  0.00    -0.096 N 
HETATM   28  O3  UNL     1     -15.006 -12.720 -23.128  1.00  0.00    -0.530 OA
HETATM   29  O4  UNL     1     -12.974 -12.615 -22.365  1.00  0.00    -0.530 OA
ENDBRANCH  22  27
ENDBRANCH   9  18
ENDBRANCH   1   6
BRANCH   1  30
HETATM   30  C13 UNL     1     -11.770 -16.212 -18.415  1.00  0.00     0.051 A 
HETATM   31  C14 UNL     1     -10.564 -16.510 -17.852  1.00  0.00     0.023 A 
HETATM   32  C15 UNL     1     -10.013 -15.581 -17.058  1.00  0.00     0.018 A 
HETATM   33  C16 UNL     1     -10.711 -14.411 -16.881  1.00  0.00     0.012 A 
HETATM   34  S4  UNL     1     -12.106 -14.657 -17.828  1.00  0.00    -0.089 SA
BRANCH  33  35
HETATM   35  C17 UNL     1     -10.277 -13.230 -16.049  1.00  0.00     0.249 C 
BRANCH  35  36
HETATM   36  C18 UNL     1     -10.126 -13.686 -14.673  1.00  0.00     0.197 C 
HETATM   37  O5  UNL     1     -11.057 -14.217 -14.022  1.00  0.00    -0.647 OA
HETATM   38  O6  UNL     1      -8.915 -13.549 -14.006  1.00  0.00    -0.647 OA
ENDBRANCH  35  36
BRANCH  35  39
HETATM   39  S3  UNL     1      -8.782 -12.602 -16.782  1.00  0.00     0.167 S 
HETATM   40  O7  UNL     1      -8.448 -11.235 -16.215  1.00  0.00    -0.226 OA
HETATM   41  O8  UNL     1      -7.618 -13.492 -16.433  1.00  0.00    -0.226 OA
BRANCH  39  42
HETATM   42  C19 UNL     1      -9.002 -12.424 -18.505  1.00  0.00     0.180 C 
BRANCH  42  43
HETATM   43  C20 UNL     1      -9.769 -11.255 -18.938  1.00  0.00    -0.044 A 
HETATM   44  C21 UNL     1     -11.058 -11.477 -19.444  1.00  0.00     0.008 A 
HETATM   45  C22 UNL     1     -11.852 -10.443 -19.886  1.00  0.00     0.001 A 
HETATM   46  C23 UNL     1     -11.419  -9.150 -19.853  1.00  0.00     0.000 A 
HETATM   47  C24 UNL     1     -10.140  -8.909 -19.353  1.00  0.00     0.001 A 
HETATM   48  C25 UNL     1      -9.338  -9.946 -18.907  1.00  0.00     0.008 A 
ENDBRANCH  42  43
ENDBRANCH  39  42
ENDBRANCH  35  39
ENDBRANCH  33  35
ENDBRANCH   1  30
TORSDOF 13
ENDMDL
MODEL 5
REMARK VINA RESULT: -7.793124888      1.887      3.750
REMARK  13 active torsions:
REMARK  status: ('A' for Active; 'I' for Inactive)
REMARK       I    between atoms: C2_2  and  N1_4 
REMARK    1  A    between atoms: N1_4  and  C3_5 
REMARK    2  A    between atoms: C3_5  and  C4_6 
REMARK    3  A    between atoms: C3_5  and  C13_30 
REMARK       I    between atoms: C4_6  and  N2_8 
REMARK    4  A    between atoms: C5_10  and  C6_11 
REMARK    5  A    between atoms: C5_10  and  C10_18 
REMARK    6  A    between atoms: C6_11  and  C7_12 
REMARK    7  A    between atoms: C11_20  and  N4_21 
REMARK    8  A    between atoms: C12_26  and  N6_27 
REMARK    9  A    between atoms: C16_33  and  C17_34 
REMARK   10  A    between atoms: C17_34  and  C18_35 
REMARK   11  A    between atoms: C17_34  and  S3_38 
REMARK   12  A    between atoms: S3_38  and  C19_41 
REMARK   13  A    between atoms: C19_41  and  C20_42 
ROOT
HETATM    1  C3  UNL     1     -11.912 -12.509 -19.003  1.00  0.00     0.195 C 
ENDROOT
BRANCH   1   2
HETATM    2  N1  UNL     1     -10.890 -11.944 -18.808  1.00  0.00    -0.364 NA
HETATM    3  C2  UNL     1      -9.732 -11.334 -18.599  1.00  0.00     0.288 C 
HETATM    4  C1  UNL     1      -9.441  -9.903 -19.002  1.00  0.00     0.135 C 
HETATM    5  O1  UNL     1      -8.760 -11.952 -18.023  1.00  0.00    -0.258 OA
ENDBRANCH   1   2
BRANCH   1   6
HETATM    6  C4  UNL     1     -12.828 -12.830 -17.874  1.00  0.00     0.288 C 
HETATM    7  O2  UNL     1     -13.444 -11.850 -17.343  1.00  0.00    -0.264 OA
HETATM    8  N2  UNL     1     -12.993 -14.088 -17.448  1.00  0.00    -0.323 N 
HETATM    9  C5  UNL     1     -12.567 -14.858 -16.507  1.00  0.00     0.039 C 
ATOM     10  H2  UNL     1     -13.653 -14.585 -18.047  1.00  0.00     0.169 HD
BRANCH   9  11
HETATM   11  C6  UNL     1     -13.137 -16.236 -16.541  1.00  0.00     0.116 C 
BRANCH  11  12
HETATM   12  C7  UNL     1     -14.637 -16.131 -16.205  1.00  0.00     0.021 A 
HETATM   13  C8  UNL     1     -15.590 -16.636 -17.044  1.00  0.00     0.076 A 
HETATM   14  S1  UNL     1     -17.033 -16.255 -16.181  1.00  0.00    -0.095 SA
HETATM   15  C9  UNL     1     -16.322 -15.488 -14.830  1.00  0.00     0.138 A 
HETATM   16  N3  UNL     1     -15.031 -15.565 -15.110  1.00  0.00    -0.363 N 
ATOM     17  H3  UNL     1     -14.345 -15.177 -14.462  1.00  0.00     0.165 HD
ENDBRANCH  11  12
ENDBRANCH   9  11
BRANCH   9  18
HETATM   18  C10 UNL     1     -11.603 -14.282 -15.586  1.00  0.00     0.081 A 
HETATM   19  S2  UNL     1      -9.859 -14.406 -15.871  1.00  0.00    -0.049 SA
HETATM   20  C11 UNL     1      -9.311 -13.623 -14.502  1.00  0.00     0.144 A 
HETATM   21  N5  UNL     1     -10.415 -13.295 -13.878  1.00  0.00    -0.317 N 
HETATM   22  C12 UNL     1     -11.612 -13.615 -14.401  1.00  0.00     0.195 A 
ATOM     23  H5  UNL     1     -10.366 -12.794 -12.991  1.00  0.00     0.169 HD
BRANCH  20  24
HETATM   24  N4  UNL     1      -8.076 -13.370 -14.101  1.00  0.00    -0.380 N 
ATOM     25  H42 UNL     1      -7.361 -12.863 -14.623  1.00  0.00     0.158 HD
ATOM     26  H41 UNL     1      -7.602 -13.618 -13.233  1.00  0.00     0.158 HD
ENDBRANCH  20  24
BRANCH  22  27
HETATM   27  N6  UNL     1     -12.797 -13.212 -13.688  1.00  0.00    -0.096 N 
HETATM   28  O3  UNL     1     -13.821 -12.802 -14.139  1.00  0.00    -0.530 OA
HETATM   29  O4  UNL     1     -12.797 -13.280 -12.283  1.00  0.00    -0.530 OA
ENDBRANCH  22  27
ENDBRANCH   9  18
ENDBRANCH   1   6
BRANCH   1  30
HETATM   30  C13 UNL     1     -12.346 -12.957 -20.363  1.00  0.00     0.051 A 
HETATM   31  C14 UNL     1     -11.629 -13.685 -21.268  1.00  0.00     0.023 A 
HETATM   32  C15 UNL     1     -12.219 -13.957 -22.440  1.00  0.00     0.018 A 
HETATM   33  C16 UNL     1     -13.493 -13.479 -22.628  1.00  0.00     0.012 A 
HETATM   34  S4  UNL     1     -13.814 -12.670 -21.163  1.00  0.00    -0.089 SA
BRANCH  33  35
HETATM   35  C17 UNL     1     -14.349 -13.676 -23.855  1.00  0.00     0.249 C 
BRANCH  35  36
HETATM   36  C18 UNL     1     -13.740 -12.928 -24.947  1.00  0.00     0.197 C 
HETATM   37  O5  UNL     1     -13.972 -13.171 -26.156  1.00  0.00    -0.647 OA
HETATM   38  O6  UNL     1     -12.856 -11.887 -24.692  1.00  0.00    -0.647 OA
ENDBRANCH  35  36
BRANCH  35  39
HETATM   39  S3  UNL     1     -14.452 -15.431 -24.136  1.00  0.00     0.167 S 
HETATM   40  O7  UNL     1     -15.567 -15.746 -25.115  1.00  0.00    -0.226 OA
HETATM   41  O8  UNL     1     -13.184 -15.930 -24.778  1.00  0.00    -0.226 OA
BRANCH  39  42
HETATM   42  C19 UNL     1     -14.815 -16.247 -22.636  1.00  0.00     0.180 C 
BRANCH  42  43
HETATM   43  C20 UNL     1     -16.212 -16.201 -22.201  1.00  0.00    -0.044 A 
HETATM   44  C21 UNL     1     -17.014 -17.318 -22.477  1.00  0.00     0.008 A 
HETATM   45  C22 UNL     1     -18.342 -17.365 -22.119  1.00  0.00     0.001 A 
HETATM   46  C23 UNL     1     -18.942 -16.322 -21.475  1.00  0.00     0.000 A 
HETATM   47  C24 UNL     1     -18.161 -15.202 -21.192  1.00  0.00     0.001 A 
HETATM   48  C25 UNL     1     -16.824 -15.151 -21.551  1.00  0.00     0.008 A 
ENDBRANCH  42  43
ENDBRANCH  39  42
ENDBRANCH  35  39
ENDBRANCH  33  35
ENDBRANCH   1  30
TORSDOF 13
ENDMDL
