MODEL 1
REMARK VINA RESULT: -6.656274547      0.000      0.000
REMARK  13 active torsions:
REMARK  status: ('A' for Active; 'I' for Inactive)
REMARK    1  A    between atoms: O1_2  and  C2_3 
REMARK    2  A    between atoms: C2_3  and  C3_4 
REMARK    3  A    between atoms: C3_4  and  N1_5 
REMARK    4  A    between atoms: N1_5  and  C5_7 
REMARK    5  A    between atoms: C5_7  and  C6_8 
REMARK    6  A    between atoms: C6_8  and  C7_9 
REMARK    7  A    between atoms: N2_12  and  C10_13 
REMARK    8  A    between atoms: C10_13  and  C11_14 
REMARK    9  A    between atoms: C11_14  and  C12_15 
REMARK   10  A    between atoms: C12_15  and  N3_16 
REMARK       I    between atoms: N3_16  and  C14_18 
REMARK   11  A    between atoms: C14_18  and  C15_20 
REMARK   12  A    between atoms: C27_34  and  C28_35 
REMARK   13  A    between atoms: C28_35  and  C29_36 
ROOT
HETATM    1  C15 UNL     1      40.460  15.466  71.923  1.00  0.00     0.219 C 
HETATM    2  C16 UNL     1      40.483  16.932  71.459  1.00  0.00     0.078 C 
HETATM    3  C17 UNL     1      41.278  16.919  70.130  1.00  0.00     0.151 C 
HETATM    4  C18 UNL     1      41.855  18.247  69.983  1.00  0.00     0.007 C 
HETATM    5  C19 UNL     1      42.017  19.014  68.933  1.00  0.00    -0.085 C 
HETATM    6  C20 UNL     1      42.671  20.383  69.109  1.00  0.00     0.043 C 
HETATM    7  C21 UNL     1      41.642  18.725  67.529  1.00  0.00     0.033 C 
HETATM    8  C22 UNL     1      42.880  18.247  66.811  1.00  0.00     0.005 C 
HETATM    9  C23 UNL     1      42.694  17.967  65.362  1.00  0.00     0.014 C 
HETATM   10  C24 UNL     1      41.622  16.989  65.015  1.00  0.00     0.081 C 
HETATM   11  C25 UNL     1      40.955  17.424  63.698  1.00  0.00     0.020 C 
HETATM   12  C26 UNL     1      42.083  15.604  64.851  1.00  0.00     0.263 C 
HETATM   13  O3  UNL     1      42.963  15.394  63.948  1.00  0.00    -0.265 OA
HETATM   14  O4  UNL     1      41.661  14.510  65.575  1.00  0.00    -0.315 OA
HETATM   15  C27 UNL     1      41.441  14.459  66.962  1.00  0.00     0.139 C 
HETATM   16  C32 UNL     1      39.945  14.463  67.220  1.00  0.00     0.116 C 
HETATM   17  C33 UNL     1      39.612  14.297  68.640  1.00  0.00     0.183 C 
HETATM   18  O5  UNL     1      39.152  13.221  69.032  1.00  0.00    -0.292 OA
HETATM   19  C34 UNL     1      39.781  15.340  69.692  1.00  0.00     0.332 C 
HETATM   20  O6  UNL     1      40.393  16.487  69.186  1.00  0.00    -0.345 OA
HETATM   21  O7  UNL     1      40.522  14.750  70.699  1.00  0.00    -0.339 OA
ENDROOT
BRANCH   1  22
HETATM   22  C14 UNL     1      39.253  15.117  72.670  1.00  0.00     0.248 C 
HETATM   23  N3  UNL     1      38.996  15.585  73.975  1.00  0.00    -0.354 N 
HETATM   24  C13 UNL     1      39.892  16.429  74.729  1.00  0.00     0.152 C 
HETATM   25  O2  UNL     1      38.409  14.359  72.115  1.00  0.00    -0.270 OA
BRANCH  23  26
HETATM   26  C12 UNL     1      37.720  15.180  74.603  1.00  0.00     0.127 C 
BRANCH  26  27
HETATM   27  C11 UNL     1      36.674  16.259  74.518  1.00  0.00     0.050 C 
BRANCH  27  28
HETATM   28  C10 UNL     1      35.634  16.092  73.485  1.00  0.00     0.274 C 
BRANCH  28  29
HETATM   29  N2  UNL     1      35.511  17.289  72.687  1.00  0.00     0.088 N 
HETATM   30  C9  UNL     1      35.082  17.007  71.346  1.00  0.00     0.272 C 
HETATM   31  C8  UNL     1      36.219  16.797  70.364  1.00  0.00     0.035 C 
HETATM   32  C7  UNL     1      37.247  17.887  70.464  1.00  0.00    -0.010 C 
HETATM   33  C36 UNL     1      36.768  18.922  71.469  1.00  0.00     0.035 C 
HETATM   34  C35 UNL     1      36.653  18.149  72.791  1.00  0.00     0.272 C 
BRANCH  32  35
HETATM   35  C6  UNL     1      37.585  18.520  69.116  1.00  0.00     0.035 C 
BRANCH  35  36
HETATM   36  C5  UNL     1      36.511  18.147  68.179  1.00  0.00     0.272 C 
BRANCH  36  37
HETATM   37  N1  UNL     1      36.767  18.230  66.765  1.00  0.00     0.086 N 
HETATM   38  C4  UNL     1      38.090  17.485  66.675  1.00  0.00     0.310 C 
BRANCH  37  39
HETATM   39  C3  UNL     1      37.155  19.556  66.294  1.00  0.00     0.297 C 
BRANCH  39  40
HETATM   40  C2  UNL     1      38.470  19.569  65.587  1.00  0.00     0.197 C 
BRANCH  40  41
HETATM   41  O1  UNL     1      39.172  20.718  65.837  1.00  0.00    -0.394 OA
HETATM   42  C1  UNL     1      38.797  21.294  67.025  1.00  0.00     0.201 C 
ENDBRANCH  40  41
ENDBRANCH  39  40
ENDBRANCH  37  39
ENDBRANCH  36  37
ENDBRANCH  35  36
ENDBRANCH  32  35
ENDBRANCH  28  29
ENDBRANCH  27  28
ENDBRANCH  26  27
ENDBRANCH  23  26
ENDBRANCH   1  22
BRANCH  15  43
HETATM   43  C28 UNL     1      42.001  13.197  67.579  1.00  0.00     0.037 C 
BRANCH  43  44
HETATM   44  C29 UNL     1      43.339  13.424  68.229  1.00  0.00    -0.020 C 
HETATM   45  C30 UNL     1      43.672  14.872  68.406  1.00  0.00     0.009 C 
HETATM   46  C31 UNL     1      43.386  12.799  69.622  1.00  0.00     0.009 C 
ENDBRANCH  43  44
ENDBRANCH  15  43
TORSDOF 13
ENDMDL
MODEL 2
REMARK VINA RESULT: -6.430670806      2.219      6.218
REMARK  13 active torsions:
REMARK  status: ('A' for Active; 'I' for Inactive)
REMARK    1  A    between atoms: O1_2  and  C2_3 
REMARK    2  A    between atoms: C2_3  and  C3_4 
REMARK    3  A    between atoms: C3_4  and  N1_5 
REMARK    4  A    between atoms: N1_5  and  C5_7 
REMARK    5  A    between atoms: C5_7  and  C6_8 
REMARK    6  A    between atoms: C6_8  and  C7_9 
REMARK    7  A    between atoms: N2_12  and  C10_13 
REMARK    8  A    between atoms: C10_13  and  C11_14 
REMARK    9  A    between atoms: C11_14  and  C12_15 
REMARK   10  A    between atoms: C12_15  and  N3_16 
REMARK       I    between atoms: N3_16  and  C14_18 
REMARK   11  A    between atoms: C14_18  and  C15_20 
REMARK   12  A    between atoms: C27_34  and  C28_35 
REMARK   13  A    between atoms: C28_35  and  C29_36 
ROOT
HETATM    1  C15 UNL     1      39.505  17.047  66.375  1.00  0.00     0.219 C 
HETATM    2  C16 UNL     1      39.617  15.523  66.546  1.00  0.00     0.078 C 
HETATM    3  C17 UNL     1      40.911  15.305  67.367  1.00  0.00     0.151 C 
HETATM    4  C18 UNL     1      41.390  13.972  67.032  1.00  0.00     0.007 C 
HETATM    5  C19 UNL     1      41.936  13.033  67.766  1.00  0.00    -0.085 C 
HETATM    6  C20 UNL     1      42.339  11.716  67.105  1.00  0.00     0.043 C 
HETATM    7  C21 UNL     1      42.237  13.072  69.216  1.00  0.00     0.033 C 
HETATM    8  C22 UNL     1      43.697  13.419  69.374  1.00  0.00     0.005 C 
HETATM    9  C23 UNL     1      44.187  13.442  70.778  1.00  0.00     0.014 C 
HETATM   10  C24 UNL     1      43.453  14.343  71.714  1.00  0.00     0.081 C 
HETATM   11  C25 UNL     1      43.399  13.685  73.104  1.00  0.00     0.020 C 
HETATM   12  C26 UNL     1      44.045  15.679  71.870  1.00  0.00     0.263 C 
HETATM   13  O3  UNL     1      45.245  15.728  72.308  1.00  0.00    -0.265 OA
HETATM   14  O4  UNL     1      43.434  16.882  71.591  1.00  0.00    -0.315 OA
HETATM   15  C27 UNL     1      42.633  17.174  70.473  1.00  0.00     0.139 C 
HETATM   16  C32 UNL     1      41.180  17.214  70.910  1.00  0.00     0.116 C 
HETATM   17  C33 UNL     1      40.273  17.625  69.832  1.00  0.00     0.183 C 
HETATM   18  O5  UNL     1      39.772  18.753  69.858  1.00  0.00    -0.292 OA
HETATM   19  C34 UNL     1      39.884  16.781  68.665  1.00  0.00     0.332 C 
HETATM   20  O6  UNL     1      40.565  15.564  68.660  1.00  0.00    -0.345 OA
HETATM   21  O7  UNL     1      40.152  17.539  67.540  1.00  0.00    -0.339 OA
ENDROOT
BRANCH   1  22
HETATM   22  C14 UNL     1      38.124  17.521  66.308  1.00  0.00     0.248 C 
HETATM   23  N3  UNL     1      37.779  18.887  66.342  1.00  0.00    -0.354 N 
HETATM   24  C13 UNL     1      38.731  19.965  66.473  1.00  0.00     0.152 C 
HETATM   25  O2  UNL     1      37.204  16.660  66.219  1.00  0.00    -0.270 OA
BRANCH  23  26
HETATM   26  C12 UNL     1      36.345  19.229  66.234  1.00  0.00     0.127 C 
BRANCH  26  27
HETATM   27  C11 UNL     1      35.718  19.496  67.576  1.00  0.00     0.050 C 
BRANCH  27  28
HETATM   28  C10 UNL     1      34.781  18.476  68.084  1.00  0.00     0.274 C 
BRANCH  28  29
HETATM   29  N2  UNL     1      34.961  18.279  69.502  1.00  0.00     0.088 N 
HETATM   30  C9  UNL     1      36.277  17.801  69.822  1.00  0.00     0.272 C 
HETATM   31  C8  UNL     1      36.389  16.289  69.874  1.00  0.00     0.035 C 
HETATM   32  C7  UNL     1      35.296  15.679  70.702  1.00  0.00    -0.010 C 
HETATM   33  C36 UNL     1      34.462  16.795  71.313  1.00  0.00     0.035 C 
HETATM   34  C35 UNL     1      33.886  17.548  70.105  1.00  0.00     0.272 C 
BRANCH  32  35
HETATM   35  C6  UNL     1      35.815  14.712  71.764  1.00  0.00     0.035 C 
BRANCH  35  36
HETATM   36  C5  UNL     1      37.284  14.707  71.668  1.00  0.00     0.272 C 
BRANCH  36  37
HETATM   37  N1  UNL     1      37.983  13.457  71.814  1.00  0.00     0.086 N 
HETATM   38  C4  UNL     1      39.413  13.902  71.547  1.00  0.00     0.310 C 
BRANCH  37  39
HETATM   39  C3  UNL     1      37.770  12.512  70.723  1.00  0.00     0.297 C 
BRANCH  39  40
HETATM   40  C2  UNL     1      38.583  12.821  69.508  1.00  0.00     0.197 C 
BRANCH  40  41
HETATM   41  O1  UNL     1      37.802  13.249  68.468  1.00  0.00    -0.394 OA
HETATM   42  C1  UNL     1      36.550  12.687  68.508  1.00  0.00     0.201 C 
ENDBRANCH  40  41
ENDBRANCH  39  40
ENDBRANCH  37  39
ENDBRANCH  36  37
ENDBRANCH  35  36
ENDBRANCH  32  35
ENDBRANCH  28  29
ENDBRANCH  27  28
ENDBRANCH  26  27
ENDBRANCH  23  26
ENDBRANCH   1  22
BRANCH  15  43
HETATM   43  C28 UNL     1      42.962  18.525  69.877  1.00  0.00     0.037 C 
BRANCH  43  44
HETATM   44  C29 UNL     1      43.799  18.411  68.632  1.00  0.00    -0.020 C 
HETATM   45  C30 UNL     1      44.025  16.997  68.199  1.00  0.00     0.009 C 
HETATM   46  C31 UNL     1      43.130  19.118  67.455  1.00  0.00     0.009 C 
ENDBRANCH  43  44
ENDBRANCH  15  43
TORSDOF 13
ENDMDL
MODEL 3
REMARK VINA RESULT: -6.395860256      2.446      5.683
REMARK  13 active torsions:
REMARK  status: ('A' for Active; 'I' for Inactive)
REMARK    1  A    between atoms: O1_2  and  C2_3 
REMARK    2  A    between atoms: C2_3  and  C3_4 
REMARK    3  A    between atoms: C3_4  and  N1_5 
REMARK    4  A    between atoms: N1_5  and  C5_7 
REMARK    5  A    between atoms: C5_7  and  C6_8 
REMARK    6  A    between atoms: C6_8  and  C7_9 
REMARK    7  A    between atoms: N2_12  and  C10_13 
REMARK    8  A    between atoms: C10_13  and  C11_14 
REMARK    9  A    between atoms: C11_14  and  C12_15 
REMARK   10  A    between atoms: C12_15  and  N3_16 
REMARK       I    between atoms: N3_16  and  C14_18 
REMARK   11  A    between atoms: C14_18  and  C15_20 
REMARK   12  A    between atoms: C27_34  and  C28_35 
REMARK   13  A    between atoms: C28_35  and  C29_36 
ROOT
HETATM    1  C15 UNL     1      39.542  17.442  72.013  1.00  0.00     0.219 C 
HETATM    2  C16 UNL     1      38.499  17.082  70.941  1.00  0.00     0.078 C 
HETATM    3  C17 UNL     1      39.069  17.654  69.620  1.00  0.00     0.151 C 
HETATM    4  C18 UNL     1      37.926  17.906  68.755  1.00  0.00     0.007 C 
HETATM    5  C19 UNL     1      37.757  17.742  67.465  1.00  0.00    -0.085 C 
HETATM    6  C20 UNL     1      36.411  18.107  66.841  1.00  0.00     0.043 C 
HETATM    7  C21 UNL     1      38.736  17.232  66.477  1.00  0.00     0.033 C 
HETATM    8  C22 UNL     1      39.358  18.423  65.789  1.00  0.00     0.005 C 
HETATM    9  C23 UNL     1      40.330  18.087  64.714  1.00  0.00     0.014 C 
HETATM   10  C24 UNL     1      41.469  17.209  65.111  1.00  0.00     0.081 C 
HETATM   11  C25 UNL     1      41.814  16.275  63.937  1.00  0.00     0.020 C 
HETATM   12  C26 UNL     1      42.693  17.925  65.493  1.00  0.00     0.263 C 
HETATM   13  O3  UNL     1      43.215  18.684  64.607  1.00  0.00    -0.265 OA
HETATM   14  O4  UNL     1      43.334  17.858  66.711  1.00  0.00    -0.315 OA
HETATM   15  C27 UNL     1      42.725  17.864  67.978  1.00  0.00     0.139 C 
HETATM   16  C32 UNL     1      42.768  16.457  68.547  1.00  0.00     0.116 C 
HETATM   17  C33 UNL     1      42.256  16.383  69.920  1.00  0.00     0.183 C 
HETATM   18  O5  UNL     1      43.048  16.227  70.855  1.00  0.00    -0.292 OA
HETATM   19  C34 UNL     1      40.820  16.481  70.311  1.00  0.00     0.332 C 
HETATM   20  O6  UNL     1      40.005  16.751  69.211  1.00  0.00    -0.345 OA
HETATM   21  O7  UNL     1      40.753  17.472  71.272  1.00  0.00    -0.339 OA
ENDROOT
BRANCH   1  22
HETATM   22  C14 UNL     1      39.618  16.463  73.095  1.00  0.00     0.248 C 
HETATM   23  N3  UNL     1      40.458  16.623  74.216  1.00  0.00    -0.354 N 
HETATM   24  C13 UNL     1      41.349  17.741  74.414  1.00  0.00     0.152 C 
HETATM   25  O2  UNL     1      38.898  15.428  73.013  1.00  0.00    -0.270 OA
BRANCH  23  26
HETATM   26  C12 UNL     1      40.413  15.570  75.254  1.00  0.00     0.127 C 
BRANCH  26  27
HETATM   27  C11 UNL     1      41.652  14.714  75.252  1.00  0.00     0.050 C 
BRANCH  27  28
HETATM   28  C10 UNL     1      41.620  13.504  74.409  1.00  0.00     0.274 C 
BRANCH  28  29
HETATM   29  N2  UNL     1      42.314  13.732  73.164  1.00  0.00     0.088 N 
HETATM   30  C9  UNL     1      41.552  13.292  72.028  1.00  0.00     0.272 C 
HETATM   31  C8  UNL     1      41.835  11.862  71.610  1.00  0.00     0.035 C 
HETATM   32  C7  UNL     1      43.309  11.597  71.502  1.00  0.00    -0.010 C 
HETATM   33  C36 UNL     1      44.061  12.893  71.759  1.00  0.00     0.035 C 
HETATM   34  C35 UNL     1      43.674  13.282  73.193  1.00  0.00     0.272 C 
BRANCH  32  35
HETATM   35  C6  UNL     1      43.709  10.964  70.170  1.00  0.00     0.035 C 
BRANCH  35  36
HETATM   36  C5  UNL     1      42.625  11.242  69.213  1.00  0.00     0.272 C 
BRANCH  36  37
HETATM   37  N1  UNL     1      42.970  11.661  67.880  1.00  0.00     0.086 N 
HETATM   38  C4  UNL     1      43.574  13.028  68.163  1.00  0.00     0.310 C 
BRANCH  37  39
HETATM   39  C3  UNL     1      41.830  12.021  67.042  1.00  0.00     0.297 C 
BRANCH  39  40
HETATM   40  C2  UNL     1      41.811  13.465  66.662  1.00  0.00     0.197 C 
BRANCH  40  41
HETATM   41  O1  UNL     1      40.562  14.010  66.795  1.00  0.00    -0.394 OA
HETATM   42  C1  UNL     1      39.951  13.606  67.956  1.00  0.00     0.201 C 
ENDBRANCH  40  41
ENDBRANCH  39  40
ENDBRANCH  37  39
ENDBRANCH  36  37
ENDBRANCH  35  36
ENDBRANCH  32  35
ENDBRANCH  28  29
ENDBRANCH  27  28
ENDBRANCH  26  27
ENDBRANCH  23  26
ENDBRANCH   1  22
BRANCH  15  43
HETATM   43  C28 UNL     1      43.450  18.766  68.952  1.00  0.00     0.037 C 
BRANCH  43  44
HETATM   44  C29 UNL     1      42.602  19.928  69.393  1.00  0.00    -0.020 C 
HETATM   45  C30 UNL     1      43.305  21.246  69.289  1.00  0.00     0.009 C 
HETATM   46  C31 UNL     1      41.342  20.045  68.538  1.00  0.00     0.009 C 
ENDBRANCH  43  44
ENDBRANCH  15  43
TORSDOF 13
ENDMDL
MODEL 4
REMARK VINA RESULT: -6.350675151      2.405      6.223
REMARK  13 active torsions:
REMARK  status: ('A' for Active; 'I' for Inactive)
REMARK    1  A    between atoms: O1_2  and  C2_3 
REMARK    2  A    between atoms: C2_3  and  C3_4 
REMARK    3  A    between atoms: C3_4  and  N1_5 
REMARK    4  A    between atoms: N1_5  and  C5_7 
REMARK    5  A    between atoms: C5_7  and  C6_8 
REMARK    6  A    between atoms: C6_8  and  C7_9 
REMARK    7  A    between atoms: N2_12  and  C10_13 
REMARK    8  A    between atoms: C10_13  and  C11_14 
REMARK    9  A    between atoms: C11_14  and  C12_15 
REMARK   10  A    between atoms: C12_15  and  N3_16 
REMARK       I    between atoms: N3_16  and  C14_18 
REMARK   11  A    between atoms: C14_18  and  C15_20 
REMARK   12  A    between atoms: C27_34  and  C28_35 
REMARK   13  A    between atoms: C28_35  and  C29_36 
ROOT
HETATM    1  C15 UNL     1      39.453  17.085  66.389  1.00  0.00     0.219 C 
HETATM    2  C16 UNL     1      39.558  15.561  66.559  1.00  0.00     0.078 C 
HETATM    3  C17 UNL     1      40.859  15.336  67.369  1.00  0.00     0.151 C 
HETATM    4  C18 UNL     1      41.328  14.001  67.031  1.00  0.00     0.007 C 
HETATM    5  C19 UNL     1      41.875  13.060  67.760  1.00  0.00    -0.085 C 
HETATM    6  C20 UNL     1      42.266  11.740  67.097  1.00  0.00     0.043 C 
HETATM    7  C21 UNL     1      42.189  13.098  69.208  1.00  0.00     0.033 C 
HETATM    8  C22 UNL     1      43.653  13.437  69.353  1.00  0.00     0.005 C 
HETATM    9  C23 UNL     1      44.155  13.458  70.753  1.00  0.00     0.014 C 
HETATM   10  C24 UNL     1      43.434  14.364  71.694  1.00  0.00     0.081 C 
HETATM   11  C25 UNL     1      43.389  13.707  73.085  1.00  0.00     0.020 C 
HETATM   12  C26 UNL     1      44.034  15.696  71.844  1.00  0.00     0.263 C 
HETATM   13  O3  UNL     1      45.238  15.740  72.272  1.00  0.00    -0.265 OA
HETATM   14  O4  UNL     1      43.427  16.902  71.570  1.00  0.00    -0.315 OA
HETATM   15  C27 UNL     1      42.618  17.198  70.459  1.00  0.00     0.139 C 
HETATM   16  C32 UNL     1      41.169  17.246  70.909  1.00  0.00     0.116 C 
HETATM   17  C33 UNL     1      40.255  17.661  69.839  1.00  0.00     0.183 C 
HETATM   18  O5  UNL     1      39.760  18.792  69.869  1.00  0.00    -0.292 OA
HETATM   19  C34 UNL     1      39.850  16.819  68.676  1.00  0.00     0.332 C 
HETATM   20  O6  UNL     1      40.525  15.598  68.665  1.00  0.00    -0.345 OA
HETATM   21  O7  UNL     1      40.113  17.575  67.548  1.00  0.00    -0.339 OA
ENDROOT
BRANCH   1  22
HETATM   22  C14 UNL     1      38.074  17.566  66.334  1.00  0.00     0.248 C 
HETATM   23  N3  UNL     1      37.735  18.933  66.390  1.00  0.00    -0.354 N 
HETATM   24  C13 UNL     1      38.692  20.005  66.534  1.00  0.00     0.152 C 
HETATM   25  O2  UNL     1      37.149  16.711  66.235  1.00  0.00    -0.270 OA
BRANCH  23  26
HETATM   26  C12 UNL     1      36.302  19.283  66.292  1.00  0.00     0.127 C 
BRANCH  26  27
HETATM   27  C11 UNL     1      35.572  19.071  67.591  1.00  0.00     0.050 C 
BRANCH  27  28
HETATM   28  C10 UNL     1      36.361  19.233  68.827  1.00  0.00     0.274 C 
BRANCH  28  29
HETATM   29  N2  UNL     1      35.614  18.772  69.973  1.00  0.00     0.088 N 
HETATM   30  C9  UNL     1      36.424  18.008  70.879  1.00  0.00     0.272 C 
HETATM   31  C8  UNL     1      36.410  16.515  70.612  1.00  0.00     0.035 C 
HETATM   32  C7  UNL     1      35.012  15.994  70.449  1.00  0.00    -0.010 C 
HETATM   33  C36 UNL     1      34.032  17.129  70.699  1.00  0.00     0.035 C 
HETATM   34  C35 UNL     1      34.364  18.167  69.618  1.00  0.00     0.272 C 
BRANCH  32  35
HETATM   35  C6  UNL     1      34.715  14.783  71.332  1.00  0.00     0.035 C 
BRANCH  35  36
HETATM   36  C5  UNL     1      35.556  13.675  70.849  1.00  0.00     0.272 C 
BRANCH  36  37
HETATM   37  N1  UNL     1      35.145  12.958  69.670  1.00  0.00     0.086 N 
HETATM   38  C4  UNL     1      34.546  11.708  70.296  1.00  0.00     0.310 C 
BRANCH  37  39
HETATM   39  C3  UNL     1      36.241  12.391  68.892  1.00  0.00     0.297 C 
BRANCH  39  40
HETATM   40  C2  UNL     1      37.297  13.389  68.545  1.00  0.00     0.197 C 
BRANCH  40  41
HETATM   41  O1  UNL     1      38.546  12.955  68.902  1.00  0.00    -0.394 OA
HETATM   42  C1  UNL     1      38.501  11.728  69.514  1.00  0.00     0.201 C 
ENDBRANCH  40  41
ENDBRANCH  39  40
ENDBRANCH  37  39
ENDBRANCH  36  37
ENDBRANCH  35  36
ENDBRANCH  32  35
ENDBRANCH  28  29
ENDBRANCH  27  28
ENDBRANCH  26  27
ENDBRANCH  23  26
ENDBRANCH   1  22
BRANCH  15  43
HETATM   43  C28 UNL     1      42.948  18.547  69.860  1.00  0.00     0.037 C 
BRANCH  43  44
HETATM   44  C29 UNL     1      43.785  18.429  68.614  1.00  0.00    -0.020 C 
HETATM   45  C30 UNL     1      43.998  17.014  68.178  1.00  0.00     0.009 C 
HETATM   46  C31 UNL     1      43.124  19.146  67.439  1.00  0.00     0.009 C 
ENDBRANCH  43  44
ENDBRANCH  15  43
TORSDOF 13
ENDMDL
MODEL 5
REMARK VINA RESULT: -6.266233950      2.493      6.818
REMARK  13 active torsions:
REMARK  status: ('A' for Active; 'I' for Inactive)
REMARK    1  A    between atoms: O1_2  and  C2_3 
REMARK    2  A    between atoms: C2_3  and  C3_4 
REMARK    3  A    between atoms: C3_4  and  N1_5 
REMARK    4  A    between atoms: N1_5  and  C5_7 
REMARK    5  A    between atoms: C5_7  and  C6_8 
REMARK    6  A    between atoms: C6_8  and  C7_9 
REMARK    7  A    between atoms: N2_12  and  C10_13 
REMARK    8  A    between atoms: C10_13  and  C11_14 
REMARK    9  A    between atoms: C11_14  and  C12_15 
REMARK   10  A    between atoms: C12_15  and  N3_16 
REMARK       I    between atoms: N3_16  and  C14_18 
REMARK   11  A    between atoms: C14_18  and  C15_20 
REMARK   12  A    between atoms: C27_34  and  C28_35 
REMARK   13  A    between atoms: C28_35  and  C29_36 
ROOT
HETATM    1  C15 UNL     1      40.539  16.900  72.024  1.00  0.00     0.219 C 
HETATM    2  C16 UNL     1      39.430  17.016  73.082  1.00  0.00     0.078 C 
HETATM    3  C17 UNL     1      38.291  17.801  72.385  1.00  0.00     0.151 C 
HETATM    4  C18 UNL     1      37.541  18.462  73.443  1.00  0.00     0.007 C 
HETATM    5  C19 UNL     1      36.256  18.668  73.600  1.00  0.00    -0.085 C 
HETATM    6  C20 UNL     1      35.772  19.410  74.844  1.00  0.00     0.043 C 
HETATM    7  C21 UNL     1      35.153  18.267  72.696  1.00  0.00     0.033 C 
HETATM    8  C22 UNL     1      34.785  19.468  71.859  1.00  0.00     0.005 C 
HETATM    9  C23 UNL     1      33.644  19.257  70.929  1.00  0.00     0.014 C 
HETATM   10  C24 UNL     1      33.780  18.122  69.971  1.00  0.00     0.081 C 
HETATM   11  C25 UNL     1      32.399  17.477  69.758  1.00  0.00     0.020 C 
HETATM   12  C26 UNL     1      34.313  18.491  68.652  1.00  0.00     0.263 C 
HETATM   13  O3  UNL     1      33.644  19.351  67.983  1.00  0.00    -0.265 OA
HETATM   14  O4  UNL     1      35.461  18.003  68.068  1.00  0.00    -0.315 OA
HETATM   15  C27 UNL     1      36.696  17.787  68.702  1.00  0.00     0.139 C 
HETATM   16  C32 UNL     1      36.880  16.296  68.918  1.00  0.00     0.116 C 
HETATM   17  C33 UNL     1      38.196  15.961  69.475  1.00  0.00     0.183 C 
HETATM   18  O5  UNL     1      39.045  15.434  68.748  1.00  0.00    -0.292 OA
HETATM   19  C34 UNL     1      38.624  16.203  70.883  1.00  0.00     0.332 C 
HETATM   20  O6  UNL     1      37.647  16.885  71.607  1.00  0.00    -0.345 OA
HETATM   21  O7  UNL     1      39.810  16.909  70.805  1.00  0.00    -0.339 OA
ENDROOT
BRANCH   1  22
HETATM   22  C14 UNL     1      41.330  15.677  72.149  1.00  0.00     0.248 C 
HETATM   23  N3  UNL     1      42.597  15.519  71.552  1.00  0.00    -0.354 N 
HETATM   24  C13 UNL     1      43.245  16.519  70.737  1.00  0.00     0.152 C 
HETATM   25  O2  UNL     1      40.847  14.722  72.820  1.00  0.00    -0.270 OA
BRANCH  23  26
HETATM   26  C12 UNL     1      43.303  14.241  71.785  1.00  0.00     0.127 C 
BRANCH  26  27
HETATM   27  C11 UNL     1      43.666  13.547  70.499  1.00  0.00     0.050 C 
BRANCH  27  28
HETATM   28  C10 UNL     1      42.569  12.876  69.776  1.00  0.00     0.274 C 
BRANCH  28  29
HETATM   29  N2  UNL     1      42.840  12.839  68.359  1.00  0.00     0.088 N 
HETATM   30  C9  UNL     1      43.326  14.097  67.865  1.00  0.00     0.272 C 
HETATM   31  C8  UNL     1      42.239  15.024  67.357  1.00  0.00     0.035 C 
HETATM   32  C7  UNL     1      41.301  14.318  66.422  1.00  0.00    -0.010 C 
HETATM   33  C36 UNL     1      41.800  12.899  66.204  1.00  0.00     0.035 C 
HETATM   34  C35 UNL     1      41.769  12.262  67.601  1.00  0.00     0.272 C 
BRANCH  32  35
HETATM   35  C6  UNL     1      41.100  15.058  65.101  1.00  0.00     0.035 C 
BRANCH  35  36
HETATM   36  C5  UNL     1      40.158  16.160  65.357  1.00  0.00     0.272 C 
BRANCH  36  37
HETATM   37  N1  UNL     1      40.515  17.489  64.934  1.00  0.00     0.086 N 
HETATM   38  C4  UNL     1      41.607  17.177  63.922  1.00  0.00     0.310 C 
BRANCH  37  39
HETATM   39  C3  UNL     1      41.257  18.262  65.924  1.00  0.00     0.297 C 
BRANCH  39  40
HETATM   40  C2  UNL     1      42.707  18.402  65.596  1.00  0.00     0.197 C 
BRANCH  40  41
HETATM   41  O1  UNL     1      43.335  19.290  66.429  1.00  0.00    -0.394 OA
HETATM   42  C1  UNL     1      43.352  18.845  67.727  1.00  0.00     0.201 C 
ENDBRANCH  40  41
ENDBRANCH  39  40
ENDBRANCH  37  39
ENDBRANCH  36  37
ENDBRANCH  35  36
ENDBRANCH  32  35
ENDBRANCH  28  29
ENDBRANCH  27  28
ENDBRANCH  26  27
ENDBRANCH  23  26
ENDBRANCH   1  22
BRANCH  15  43
HETATM   43  C28 UNL     1      37.857  18.267  67.861  1.00  0.00     0.037 C 
BRANCH  43  44
HETATM   44  C29 UNL     1      38.461  19.539  68.392  1.00  0.00    -0.020 C 
HETATM   45  C30 UNL     1      38.435  20.664  67.405  1.00  0.00     0.009 C 
HETATM   46  C31 UNL     1      37.705  20.032  69.625  1.00  0.00     0.009 C 
ENDBRANCH  43  44
ENDBRANCH  15  43
TORSDOF 13
ENDMDL
