MODEL 1
REMARK VINA RESULT: -6.041127265      0.000      0.000
REMARK  11 active torsions:
REMARK  status: ('A' for Active; 'I' for Inactive)
REMARK    1  A    between atoms: C2_2  and  C3_3 
REMARK    2  A    between atoms: C3_3  and  C4_4 
REMARK    3  A    between atoms: C4_4  and  C5_5 
REMARK    4  A    between atoms: C5_5  and  C6_6 
REMARK    5  A    between atoms: C6_6  and  C7_7 
REMARK    6  A    between atoms: C7_7  and  C8_8 
REMARK    7  A    between atoms: C8_8  and  C9_9 
REMARK    8  A    between atoms: C9_9  and  O1_10 
REMARK    9  A    between atoms: C9_9  and  N1_12 
REMARK   10  A    between atoms: C17_23  and  C18_24 
REMARK   11  A    between atoms: C19_25  and  C20_26 
ROOT
HETATM    1  N1  UNL     1      49.523  18.155   2.985  1.00  0.00    -0.270 N 
HETATM    2  N2  UNL     1      50.844  18.514   3.453  1.00  0.00    -0.134 NA
HETATM    3  C10 UNL     1      51.147  19.752   2.822  1.00  0.00     0.167 C 
HETATM    4  C11 UNL     1      50.896  19.789   1.331  1.00  0.00     0.150 C 
HETATM    5  O2  UNL     1      51.963  20.393   0.747  1.00  0.00    -0.349 OA
HETATM    6  C12 UNL     1      52.722  19.738  -0.147  1.00  0.00     0.157 C 
HETATM    7  C13 UNL     1      53.095  20.592  -1.365  1.00  0.00     0.078 C 
HETATM    8  C14 UNL     1      54.075  19.456   0.534  1.00  0.00     0.078 C 
HETATM    9  O3  UNL     1      52.294  18.540  -0.639  1.00  0.00    -0.355 OA
HETATM   10  C15 UNL     1      51.703  17.723   0.347  1.00  0.00     0.181 C 
HETATM   11  C16 UNL     1      50.463  18.486   0.756  1.00  0.00     0.068 C 
HETATM   12  C17 UNL     1      49.533  17.697   1.646  1.00  0.00     0.137 C 
ENDROOT
BRANCH   1  13
HETATM   13  C9  UNL     1      48.500  18.303   3.890  1.00  0.00     0.130 C 
BRANCH  13  14
HETATM   14  C8  UNL     1      47.885  17.355   4.819  1.00  0.00     0.085 C 
BRANCH  14  15
HETATM   15  C7  UNL     1      46.679  16.617   4.267  1.00  0.00     0.008 C 
BRANCH  15  16
HETATM   16  C6  UNL     1      46.724  15.143   4.387  1.00  0.00     0.000 C 
BRANCH  16  17
HETATM   17  C5  UNL     1      48.019  14.624   3.742  1.00  0.00     0.000 C 
BRANCH  17  18
HETATM   18  C4  UNL     1      47.669  13.494   2.790  1.00  0.00     0.000 C 
BRANCH  18  19
HETATM   19  C3  UNL     1      46.182  13.312   2.672  1.00  0.00    -0.000 C 
BRANCH  19  20
HETATM   20  C2  UNL     1      45.863  11.916   2.169  1.00  0.00    -0.005 C 
HETATM   21  C1  UNL     1      46.785  10.918   2.835  1.00  0.00     0.005 C 
ENDBRANCH  19  20
ENDBRANCH  18  19
ENDBRANCH  17  18
ENDBRANCH  16  17
ENDBRANCH  15  16
ENDBRANCH  14  15
ENDBRANCH  13  14
BRANCH  13  22
HETATM   22  O1  UNL     1      47.962  19.492   3.952  1.00  0.00    -0.348 OA
ATOM     23  H1  UNL     1      47.034  19.464   4.152  1.00  0.00     0.219 HD
ENDBRANCH  13  22
ENDBRANCH   1  13
BRANCH  12  24
HETATM   24  C18 UNL     1      48.215  17.489   1.038  1.00  0.00    -0.003 C 
HETATM   25  C19 UNL     1      47.811  16.343   0.504  1.00  0.00    -0.025 C 
BRANCH  25  26
HETATM   26  C20 UNL     1      46.471  16.161  -0.106  1.00  0.00    -0.001 C 
HETATM   27  C21 UNL     1      46.299  14.760  -0.696  1.00  0.00     0.013 C 
HETATM   28  C22 UNL     1      45.359  16.427   0.882  1.00  0.00     0.013 C 
ENDBRANCH  25  26
ENDBRANCH  12  24
TORSDOF 11
ENDMDL
MODEL 2
REMARK VINA RESULT: -5.996388384      2.248      6.742
REMARK  11 active torsions:
REMARK  status: ('A' for Active; 'I' for Inactive)
REMARK    1  A    between atoms: C2_2  and  C3_3 
REMARK    2  A    between atoms: C3_3  and  C4_4 
REMARK    3  A    between atoms: C4_4  and  C5_5 
REMARK    4  A    between atoms: C5_5  and  C6_6 
REMARK    5  A    between atoms: C6_6  and  C7_7 
REMARK    6  A    between atoms: C7_7  and  C8_8 
REMARK    7  A    between atoms: C8_8  and  C9_9 
REMARK    8  A    between atoms: C9_9  and  O1_10 
REMARK    9  A    between atoms: C9_9  and  N1_12 
REMARK   10  A    between atoms: C17_23  and  C18_24 
REMARK   11  A    between atoms: C19_25  and  C20_26 
ROOT
HETATM    1  N1  UNL     1      48.648  19.687   2.667  1.00  0.00    -0.270 N 
HETATM    2  N2  UNL     1      48.014  19.381   3.930  1.00  0.00    -0.134 NA
HETATM    3  C10 UNL     1      48.600  18.159   4.363  1.00  0.00     0.167 C 
HETATM    4  C11 UNL     1      48.649  17.067   3.319  1.00  0.00     0.150 C 
HETATM    5  O2  UNL     1      48.255  15.910   3.912  1.00  0.00    -0.349 OA
HETATM    6  C12 UNL     1      47.168  15.249   3.481  1.00  0.00     0.157 C 
HETATM    7  C13 UNL     1      47.375  13.732   3.399  1.00  0.00     0.078 C 
HETATM    8  C14 UNL     1      46.084  15.415   4.564  1.00  0.00     0.078 C 
HETATM    9  O3  UNL     1      46.582  15.618   2.306  1.00  0.00    -0.355 OA
HETATM   10  C15 UNL     1      46.531  17.017   2.135  1.00  0.00     0.181 C 
HETATM   11  C16 UNL     1      47.984  17.424   2.036  1.00  0.00     0.068 C 
HETATM   12  C17 UNL     1      48.182  18.861   1.617  1.00  0.00     0.137 C 
ENDROOT
BRANCH   1  13
HETATM   13  C9  UNL     1      49.570  20.706   2.685  1.00  0.00     0.130 C 
BRANCH  13  14
HETATM   14  C8  UNL     1      51.022  20.700   2.508  1.00  0.00     0.085 C 
BRANCH  14  15
HETATM   15  C7  UNL     1      51.747  19.595   3.253  1.00  0.00     0.008 C 
BRANCH  15  16
HETATM   16  C6  UNL     1      52.564  18.691   2.414  1.00  0.00     0.000 C 
BRANCH  16  17
HETATM   17  C5  UNL     1      53.428  19.530   1.460  1.00  0.00     0.000 C 
BRANCH  17  18
HETATM   18  C4  UNL     1      54.861  19.518   1.961  1.00  0.00     0.000 C 
BRANCH  18  19
HETATM   19  C3  UNL     1      55.754  18.715   1.058  1.00  0.00    -0.000 C 
BRANCH  19  20
HETATM   20  C2  UNL     1      55.075  18.481  -0.280  1.00  0.00    -0.005 C 
HETATM   21  C1  UNL     1      55.347  17.065  -0.741  1.00  0.00     0.005 C 
ENDBRANCH  19  20
ENDBRANCH  18  19
ENDBRANCH  17  18
ENDBRANCH  16  17
ENDBRANCH  15  16
ENDBRANCH  14  15
ENDBRANCH  13  14
BRANCH  13  22
HETATM   22  O1  UNL     1      49.091  21.903   2.894  1.00  0.00    -0.348 OA
ATOM     23  H1  UNL     1      49.759  22.523   3.163  1.00  0.00     0.219 HD
ENDBRANCH  13  22
ENDBRANCH   1  13
BRANCH  12  24
HETATM   24  C18 UNL     1      48.906  18.981   0.347  1.00  0.00    -0.003 C 
HETATM   25  C19 UNL     1      49.896  18.181  -0.027  1.00  0.00    -0.025 C 
BRANCH  25  26
HETATM   26  C20 UNL     1      50.612  18.326  -1.318  1.00  0.00    -0.001 C 
HETATM   27  C21 UNL     1      51.252  19.708  -1.462  1.00  0.00     0.013 C 
HETATM   28  C22 UNL     1      51.670  17.263  -1.501  1.00  0.00     0.013 C 
ENDBRANCH  25  26
ENDBRANCH  12  24
TORSDOF 11
ENDMDL
MODEL 3
REMARK VINA RESULT: -5.954400165      1.485      1.879
REMARK  11 active torsions:
REMARK  status: ('A' for Active; 'I' for Inactive)
REMARK    1  A    between atoms: C2_2  and  C3_3 
REMARK    2  A    between atoms: C3_3  and  C4_4 
REMARK    3  A    between atoms: C4_4  and  C5_5 
REMARK    4  A    between atoms: C5_5  and  C6_6 
REMARK    5  A    between atoms: C6_6  and  C7_7 
REMARK    6  A    between atoms: C7_7  and  C8_8 
REMARK    7  A    between atoms: C8_8  and  C9_9 
REMARK    8  A    between atoms: C9_9  and  O1_10 
REMARK    9  A    between atoms: C9_9  and  N1_12 
REMARK   10  A    between atoms: C17_23  and  C18_24 
REMARK   11  A    between atoms: C19_25  and  C20_26 
ROOT
HETATM    1  N1  UNL     1      49.858  18.601   3.004  1.00  0.00    -0.270 N 
HETATM    2  N2  UNL     1      51.240  18.195   3.134  1.00  0.00    -0.134 NA
HETATM    3  C10 UNL     1      52.006  19.328   2.742  1.00  0.00     0.167 C 
HETATM    4  C11 UNL     1      51.582  19.968   1.439  1.00  0.00     0.150 C 
HETATM    5  O2  UNL     1      52.706  20.230   0.723  1.00  0.00    -0.349 OA
HETATM    6  C12 UNL     1      52.905  19.665  -0.480  1.00  0.00     0.157 C 
HETATM    7  C13 UNL     1      53.456  20.642  -1.525  1.00  0.00     0.078 C 
HETATM    8  C14 UNL     1      54.036  18.632  -0.307  1.00  0.00     0.078 C 
HETATM    9  O3  UNL     1      51.879  18.998  -1.084  1.00  0.00    -0.355 OA
HETATM   10  C15 UNL     1      51.123  18.222  -0.182  1.00  0.00     0.181 C 
HETATM   11  C16 UNL     1      50.490  19.244   0.735  1.00  0.00     0.068 C 
HETATM   12  C17 UNL     1      49.440  18.664   1.653  1.00  0.00     0.137 C 
ENDROOT
BRANCH   1  13
HETATM   13  C9  UNL     1      49.186  18.847   4.177  1.00  0.00     0.130 C 
BRANCH  13  14
HETATM   14  C8  UNL     1      48.319  17.996   4.992  1.00  0.00     0.085 C 
BRANCH  14  15
HETATM   15  C7  UNL     1      47.978  16.655   4.368  1.00  0.00     0.008 C 
BRANCH  15  16
HETATM   16  C6  UNL     1      46.706  16.607   3.615  1.00  0.00     0.000 C 
BRANCH  16  17
HETATM   17  C5  UNL     1      46.903  15.762   2.346  1.00  0.00     0.000 C 
BRANCH  17  18
HETATM   18  C4  UNL     1      48.190  14.969   2.483  1.00  0.00     0.000 C 
BRANCH  18  19
HETATM   19  C3  UNL     1      47.991  13.525   2.117  1.00  0.00    -0.000 C 
BRANCH  19  20
HETATM   20  C2  UNL     1      46.909  12.909   2.985  1.00  0.00    -0.005 C 
HETATM   21  C1  UNL     1      45.957  12.117   2.116  1.00  0.00     0.005 C 
ENDBRANCH  19  20
ENDBRANCH  18  19
ENDBRANCH  17  18
ENDBRANCH  16  17
ENDBRANCH  15  16
ENDBRANCH  14  15
ENDBRANCH  13  14
BRANCH  13  22
HETATM   22  O1  UNL     1      49.331  20.045   4.676  1.00  0.00    -0.348 OA
ATOM     23  H1  UNL     1      49.031  20.727   4.086  1.00  0.00     0.219 HD
ENDBRANCH  13  22
ENDBRANCH   1  13
BRANCH  12  24
HETATM   24  C18 UNL     1      48.113  19.244   1.426  1.00  0.00    -0.003 C 
HETATM   25  C19 UNL     1      47.308  18.900   0.429  1.00  0.00    -0.025 C 
BRANCH  25  26
HETATM   26  C20 UNL     1      45.969  19.504   0.223  1.00  0.00    -0.001 C 
HETATM   27  C21 UNL     1      44.880  18.751   0.991  1.00  0.00     0.013 C 
HETATM   28  C22 UNL     1      45.940  20.963   0.616  1.00  0.00     0.013 C 
ENDBRANCH  25  26
ENDBRANCH  12  24
TORSDOF 11
ENDMDL
MODEL 4
REMARK VINA RESULT: -5.929750675      1.727      2.249
REMARK  11 active torsions:
REMARK  status: ('A' for Active; 'I' for Inactive)
REMARK    1  A    between atoms: C2_2  and  C3_3 
REMARK    2  A    between atoms: C3_3  and  C4_4 
REMARK    3  A    between atoms: C4_4  and  C5_5 
REMARK    4  A    between atoms: C5_5  and  C6_6 
REMARK    5  A    between atoms: C6_6  and  C7_7 
REMARK    6  A    between atoms: C7_7  and  C8_8 
REMARK    7  A    between atoms: C8_8  and  C9_9 
REMARK    8  A    between atoms: C9_9  and  O1_10 
REMARK    9  A    between atoms: C9_9  and  N1_12 
REMARK   10  A    between atoms: C17_23  and  C18_24 
REMARK   11  A    between atoms: C19_25  and  C20_26 
ROOT
HETATM    1  N1  UNL     1      49.960  18.741   2.850  1.00  0.00    -0.270 N 
HETATM    2  N2  UNL     1      51.308  18.317   3.159  1.00  0.00    -0.134 NA
HETATM    3  C10 UNL     1      52.141  19.414   2.803  1.00  0.00     0.167 C 
HETATM    4  C11 UNL     1      51.885  19.994   1.430  1.00  0.00     0.150 C 
HETATM    5  O2  UNL     1      53.089  20.199   0.837  1.00  0.00    -0.349 OA
HETATM    6  C12 UNL     1      53.411  19.569  -0.305  1.00  0.00     0.157 C 
HETATM    7  C13 UNL     1      54.102  20.480  -1.326  1.00  0.00     0.078 C 
HETATM    8  C14 UNL     1      54.490  18.526   0.047  1.00  0.00     0.078 C 
HETATM    9  O3  UNL     1      52.446  18.890  -0.991  1.00  0.00    -0.355 OA
HETATM   10  C15 UNL     1      51.573  18.175  -0.146  1.00  0.00     0.181 C 
HETATM   11  C16 UNL     1      50.863  19.254   0.641  1.00  0.00     0.068 C 
HETATM   12  C17 UNL     1      49.702  18.741   1.458  1.00  0.00     0.137 C 
ENDROOT
BRANCH   1  13
HETATM   13  C9  UNL     1      49.165  19.058   3.924  1.00  0.00     0.130 C 
BRANCH  13  14
HETATM   14  C8  UNL     1      48.220  18.254   4.700  1.00  0.00     0.085 C 
BRANCH  14  15
HETATM   15  C7  UNL     1      46.863  18.063   4.046  1.00  0.00     0.008 C 
BRANCH  15  16
HETATM   16  C6  UNL     1      46.577  16.696   3.558  1.00  0.00     0.000 C 
BRANCH  16  17
HETATM   17  C5  UNL     1      47.481  15.697   4.297  1.00  0.00     0.000 C 
BRANCH  17  18
HETATM   18  C4  UNL     1      48.161  14.806   3.273  1.00  0.00     0.000 C 
BRANCH  18  19
HETATM   19  C3  UNL     1      47.769  15.178   1.871  1.00  0.00    -0.000 C 
BRANCH  19  20
HETATM   20  C2  UNL     1      48.995  15.211   0.975  1.00  0.00    -0.005 C 
HETATM   21  C1  UNL     1      50.242  15.096   1.825  1.00  0.00     0.005 C 
ENDBRANCH  19  20
ENDBRANCH  18  19
ENDBRANCH  17  18
ENDBRANCH  16  17
ENDBRANCH  15  16
ENDBRANCH  14  15
ENDBRANCH  13  14
BRANCH  13  22
HETATM   22  O1  UNL     1      49.247  20.290   4.350  1.00  0.00    -0.348 OA
ATOM     23  H1  UNL     1      49.564  20.888   3.683  1.00  0.00     0.219 HD
ENDBRANCH  13  22
ENDBRANCH   1  13
BRANCH  12  24
HETATM   24  C18 UNL     1      48.423  19.332   1.051  1.00  0.00    -0.003 C 
HETATM   25  C19 UNL     1      47.441  18.658   0.468  1.00  0.00    -0.025 C 
BRANCH  25  26
HETATM   26  C20 UNL     1      46.157  19.283   0.066  1.00  0.00    -0.001 C 
HETATM   27  C21 UNL     1      44.955  18.428   0.477  1.00  0.00     0.013 C 
HETATM   28  C22 UNL     1      46.000  20.673   0.636  1.00  0.00     0.013 C 
ENDBRANCH  25  26
ENDBRANCH  12  24
TORSDOF 11
ENDMDL
MODEL 5
REMARK VINA RESULT: -5.844414744      1.824      3.587
REMARK  11 active torsions:
REMARK  status: ('A' for Active; 'I' for Inactive)
REMARK    1  A    between atoms: C2_2  and  C3_3 
REMARK    2  A    between atoms: C3_3  and  C4_4 
REMARK    3  A    between atoms: C4_4  and  C5_5 
REMARK    4  A    between atoms: C5_5  and  C6_6 
REMARK    5  A    between atoms: C6_6  and  C7_7 
REMARK    6  A    between atoms: C7_7  and  C8_8 
REMARK    7  A    between atoms: C8_8  and  C9_9 
REMARK    8  A    between atoms: C9_9  and  O1_10 
REMARK    9  A    between atoms: C9_9  and  N1_12 
REMARK   10  A    between atoms: C17_23  and  C18_24 
REMARK   11  A    between atoms: C19_25  and  C20_26 
ROOT
HETATM    1  N1  UNL     1      47.319  19.319   2.259  1.00  0.00    -0.270 N 
HETATM    2  N2  UNL     1      48.043  20.376   1.588  1.00  0.00    -0.134 NA
HETATM    3  C10 UNL     1      48.632  19.767   0.446  1.00  0.00     0.167 C 
HETATM    4  C11 UNL     1      49.368  18.475   0.717  1.00  0.00     0.150 C 
HETATM    5  O2  UNL     1      50.545  18.520   0.040  1.00  0.00    -0.349 OA
HETATM    6  C12 UNL     1      51.718  18.459   0.691  1.00  0.00     0.157 C 
HETATM    7  C13 UNL     1      52.742  17.543   0.011  1.00  0.00     0.078 C 
HETATM    8  C14 UNL     1      52.356  19.859   0.597  1.00  0.00     0.078 C 
HETATM    9  O3  UNL     1      51.733  18.130   2.015  1.00  0.00    -0.355 OA
HETATM   10  C15 UNL     1      50.683  18.730   2.741  1.00  0.00     0.181 C 
HETATM   11  C16 UNL     1      49.435  18.106   2.157  1.00  0.00     0.068 C 
HETATM   12  C17 UNL     1      48.180  18.422   2.935  1.00  0.00     0.137 C 
ENDROOT
BRANCH   1  13
HETATM   13  C9  UNL     1      45.950  19.355   2.144  1.00  0.00     0.130 C 
BRANCH  13  14
HETATM   14  C8  UNL     1      45.056  18.905   1.077  1.00  0.00     0.085 C 
BRANCH  14  15
HETATM   15  C7  UNL     1      45.490  17.627   0.384  1.00  0.00     0.008 C 
BRANCH  15  16
HETATM   16  C6  UNL     1      45.000  16.372   0.995  1.00  0.00     0.000 C 
BRANCH  16  17
HETATM   17  C5  UNL     1      45.799  15.188   0.428  1.00  0.00     0.000 C 
BRANCH  17  18
HETATM   18  C4  UNL     1      47.180  15.679   0.031  1.00  0.00     0.000 C 
BRANCH  18  19
HETATM   19  C3  UNL     1      48.150  14.540  -0.116  1.00  0.00    -0.000 C 
BRANCH  19  20
HETATM   20  C2  UNL     1      49.569  15.068  -0.212  1.00  0.00    -0.005 C 
HETATM   21  C1  UNL     1      50.348  14.646   1.015  1.00  0.00     0.005 C 
ENDBRANCH  19  20
ENDBRANCH  18  19
ENDBRANCH  17  18
ENDBRANCH  16  17
ENDBRANCH  15  16
ENDBRANCH  14  15
ENDBRANCH  13  14
BRANCH  13  22
HETATM   22  O1  UNL     1      45.308  19.880   3.153  1.00  0.00    -0.348 OA
ATOM     23  H1  UNL     1      45.306  19.318   3.919  1.00  0.00     0.219 HD
ENDBRANCH  13  22
ENDBRANCH   1  13
BRANCH  12  24
HETATM   24  C18 UNL     1      47.542  17.222   3.484  1.00  0.00    -0.003 C 
HETATM   25  C19 UNL     1      48.169  16.072   3.694  1.00  0.00    -0.025 C 
BRANCH  25  26
HETATM   26  C20 UNL     1      47.497  14.872   4.250  1.00  0.00    -0.001 C 
HETATM   27  C21 UNL     1      46.070  15.180   4.710  1.00  0.00     0.013 C 
HETATM   28  C22 UNL     1      47.468  13.730   3.261  1.00  0.00     0.013 C 
ENDBRANCH  25  26
ENDBRANCH  12  24
TORSDOF 11
ENDMDL
