MODEL 1
REMARK VINA RESULT: -7.971689977      0.000      0.000
REMARK  10 active torsions:
REMARK  status: ('A' for Active; 'I' for Inactive)
REMARK    1  A    between atoms: C2_2  and  C4_4 
REMARK    2  A    between atoms: C4_4  and  C5_5 
REMARK    3  A    between atoms: C5_5  and  N1_6 
REMARK    4  A    between atoms: C5_5  and  C19_29 
REMARK       I    between atoms: N1_6  and  C6_8 
REMARK    5  A    between atoms: C6_8  and  C7_10 
REMARK    6  A    between atoms: C7_10  and  N2_11 
REMARK    7  A    between atoms: C7_10  and  C8_15 
REMARK    8  A    between atoms: C8_15  and  N3_17 
REMARK       I    between atoms: N3_17  and  C10_19 
REMARK    9  A    between atoms: C10_19  and  C11_21 
REMARK   10  A    between atoms: C12_22  and  C13_23 
ROOT
HETATM    1  C7  UNL     1      16.992   8.743  12.361  1.00  0.00     0.296 C 
ENDROOT
BRANCH   1   2
HETATM    2  C6  UNL     1      16.259  10.003  12.363  1.00  0.00     0.251 C 
HETATM    3  N1  UNL     1      14.902  10.038  12.746  1.00  0.00    -0.346 N 
ATOM      4  H1  UNL     1      14.446   9.168  13.021  1.00  0.00     0.163 HD
HETATM    5  O1  UNL     1      16.777  11.118  12.036  1.00  0.00    -0.271 OA
BRANCH   3   6
HETATM    6  C5  UNL     1      14.112  11.304  12.760  1.00  0.00     0.174 C 
BRANCH   6   7
HETATM    7  C4  UNL     1      13.157  11.125  13.866  1.00  0.00     0.038 C 
BRANCH   7   8
HETATM    8  C2  UNL     1      13.421  11.632  15.219  1.00  0.00    -0.020 C 
HETATM    9  C1  UNL     1      13.332  10.697  16.366  1.00  0.00     0.009 C 
HETATM   10  C3  UNL     1      12.597  12.903  15.523  1.00  0.00     0.009 C 
ENDBRANCH   7   8
ENDBRANCH   6   7
BRANCH   6  11
HETATM   11  C19 UNL     1      13.646  11.621  11.429  1.00  0.00     0.254 C 
HETATM   12  N4  UNL     1      13.444  12.872  10.828  1.00  0.00    -0.060 NA
HETATM   13  O3  UNL     1      13.379  10.614  10.667  1.00  0.00    -0.275 OA
ENDBRANCH   6  11
ENDBRANCH   3   6
ENDBRANCH   1   2
BRANCH   1  14
HETATM   14  N2  UNL     1      17.686   8.615  11.062  1.00  0.00    -0.065 N 
ATOM     15  H23 UNL     1      17.344   7.828  10.509  1.00  0.00     0.275 HD
ATOM     16  H22 UNL     1      17.440   9.359  10.410  1.00  0.00     0.275 HD
ATOM     17  H21 UNL     1      18.689   8.563  11.241  1.00  0.00     0.275 HD
ENDBRANCH   1  14
BRANCH   1  18
HETATM   18  C8  UNL     1      16.116   7.524  12.453  1.00  0.00     0.120 C 
HETATM   19  C9  UNL     1      16.428   6.504  11.389  1.00  0.00     0.035 C 
BRANCH  18  20
HETATM   20  N3  UNL     1      16.199   6.902  13.770  1.00  0.00    -0.351 N 
HETATM   21  C10 UNL     1      15.217   7.110  14.768  1.00  0.00     0.241 C 
HETATM   22  O2  UNL     1      14.207   7.843  14.577  1.00  0.00    -0.269 OA
ATOM     23  H3  UNL     1      16.992   6.296  13.978  1.00  0.00     0.163 HD
BRANCH  21  24
HETATM   24  C11 UNL     1      15.361   6.469  16.055  1.00  0.00     0.070 C 
HETATM   25  C12 UNL     1      16.439   5.808  16.399  1.00  0.00    -0.017 C 
BRANCH  25  26
HETATM   26  C13 UNL     1      16.493   5.176  17.760  1.00  0.00     0.008 C 
HETATM   27  C14 UNL     1      15.313   5.686  18.582  1.00  0.00     0.008 C 
HETATM   28  C15 UNL     1      14.710   4.556  19.352  1.00  0.00     0.001 C 
HETATM   29  C16 UNL     1      15.807   3.679  19.904  1.00  0.00     0.000 C 
HETATM   30  C17 UNL     1      16.605   2.998  18.818  1.00  0.00     0.001 C 
HETATM   31  C18 UNL     1      16.291   3.695  17.520  1.00  0.00     0.008 C 
ENDBRANCH  25  26
ENDBRANCH  21  24
ENDBRANCH  18  20
ENDBRANCH   1  18
TORSDOF 10
ENDMDL
MODEL 2
REMARK VINA RESULT: -7.950774923      4.270      7.698
REMARK  10 active torsions:
REMARK  status: ('A' for Active; 'I' for Inactive)
REMARK    1  A    between atoms: C2_2  and  C4_4 
REMARK    2  A    between atoms: C4_4  and  C5_5 
REMARK    3  A    between atoms: C5_5  and  N1_6 
REMARK    4  A    between atoms: C5_5  and  C19_29 
REMARK       I    between atoms: N1_6  and  C6_8 
REMARK    5  A    between atoms: C6_8  and  C7_10 
REMARK    6  A    between atoms: C7_10  and  N2_11 
REMARK    7  A    between atoms: C7_10  and  C8_15 
REMARK    8  A    between atoms: C8_15  and  N3_17 
REMARK       I    between atoms: N3_17  and  C10_19 
REMARK    9  A    between atoms: C10_19  and  C11_21 
REMARK   10  A    between atoms: C12_22  and  C13_23 
ROOT
HETATM    1  C7  UNL     1      13.265  12.002  13.826  1.00  0.00     0.296 C 
ENDROOT
BRANCH   1   2
HETATM    2  C6  UNL     1      13.046  12.440  15.199  1.00  0.00     0.251 C 
HETATM    3  N1  UNL     1      13.319  11.571  16.276  1.00  0.00    -0.346 N 
ATOM      4  H1  UNL     1      13.671  10.635  16.077  1.00  0.00     0.163 HD
HETATM    5  O1  UNL     1      12.615  13.596  15.509  1.00  0.00    -0.271 OA
BRANCH   3   6
HETATM    6  C5  UNL     1      13.108  11.975  17.698  1.00  0.00     0.174 C 
BRANCH   6   7
HETATM    7  C4  UNL     1      14.468  12.134  18.237  1.00  0.00     0.038 C 
BRANCH   7   8
HETATM    8  C2  UNL     1      14.973  13.424  18.723  1.00  0.00    -0.020 C 
HETATM    9  C1  UNL     1      16.324  13.870  18.304  1.00  0.00     0.009 C 
HETATM   10  C3  UNL     1      14.839  13.549  20.257  1.00  0.00     0.009 C 
ENDBRANCH   7   8
ENDBRANCH   6   7
BRANCH   6  11
HETATM   11  C19 UNL     1      12.160  11.090  18.337  1.00  0.00     0.254 C 
HETATM   12  N4  UNL     1      10.938  11.388  18.956  1.00  0.00    -0.060 NA
HETATM   13  O3  UNL     1      12.468   9.836  18.339  1.00  0.00    -0.275 OA
ENDBRANCH   6  11
ENDBRANCH   3   6
ENDBRANCH   1   2
BRANCH   1  14
HETATM   14  N2  UNL     1      12.008  11.403  13.328  1.00  0.00    -0.065 N 
ATOM     15  H23 UNL     1      11.909  10.422  13.590  1.00  0.00     0.275 HD
ATOM     16  H22 UNL     1      11.184  11.760  13.812  1.00  0.00     0.275 HD
ATOM     17  H21 UNL     1      11.966  11.547  12.319  1.00  0.00     0.275 HD
ENDBRANCH   1  14
BRANCH   1  18
HETATM   18  C8  UNL     1      14.294  10.914  13.686  1.00  0.00     0.120 C 
HETATM   19  C9  UNL     1      13.972   9.702  14.522  1.00  0.00     0.035 C 
BRANCH  18  20
HETATM   20  N3  UNL     1      14.470  10.519  12.293  1.00  0.00    -0.351 N 
HETATM   21  C10 UNL     1      15.724  10.587  11.640  1.00  0.00     0.241 C 
HETATM   22  O2  UNL     1      16.767  10.989  12.226  1.00  0.00    -0.269 OA
ATOM     23  H3  UNL     1      13.661  10.181  11.772  1.00  0.00     0.163 HD
BRANCH  21  24
HETATM   24  C11 UNL     1      15.831  10.185  10.256  1.00  0.00     0.070 C 
HETATM   25  C12 UNL     1      16.393   9.060   9.888  1.00  0.00    -0.017 C 
BRANCH  25  26
HETATM   26  C13 UNL     1      16.456   8.731   8.425  1.00  0.00     0.008 C 
HETATM   27  C14 UNL     1      17.624   9.492   7.804  1.00  0.00     0.008 C 
HETATM   28  C15 UNL     1      18.357   8.601   6.854  1.00  0.00     0.001 C 
HETATM   29  C16 UNL     1      17.367   7.781   6.063  1.00  0.00     0.000 C 
HETATM   30  C17 UNL     1      16.583   6.827   6.930  1.00  0.00     0.001 C 
HETATM   31  C18 UNL     1      16.775   7.252   8.362  1.00  0.00     0.008 C 
ENDBRANCH  25  26
ENDBRANCH  21  24
ENDBRANCH  18  20
ENDBRANCH   1  18
TORSDOF 10
ENDMDL
MODEL 3
REMARK VINA RESULT: -7.949856638      3.816      7.106
REMARK  10 active torsions:
REMARK  status: ('A' for Active; 'I' for Inactive)
REMARK    1  A    between atoms: C2_2  and  C4_4 
REMARK    2  A    between atoms: C4_4  and  C5_5 
REMARK    3  A    between atoms: C5_5  and  N1_6 
REMARK    4  A    between atoms: C5_5  and  C19_29 
REMARK       I    between atoms: N1_6  and  C6_8 
REMARK    5  A    between atoms: C6_8  and  C7_10 
REMARK    6  A    between atoms: C7_10  and  N2_11 
REMARK    7  A    between atoms: C7_10  and  C8_15 
REMARK    8  A    between atoms: C8_15  and  N3_17 
REMARK       I    between atoms: N3_17  and  C10_19 
REMARK    9  A    between atoms: C10_19  and  C11_21 
REMARK   10  A    between atoms: C12_22  and  C13_23 
ROOT
HETATM    1  C7  UNL     1      16.001   9.916   9.995  1.00  0.00     0.296 C 
ENDROOT
BRANCH   1   2
HETATM    2  C6  UNL     1      16.815   9.577   8.834  1.00  0.00     0.251 C 
HETATM    3  N1  UNL     1      16.926   8.237   8.408  1.00  0.00    -0.346 N 
ATOM      4  H1  UNL     1      16.425   7.514   8.924  1.00  0.00     0.163 HD
HETATM    5  O1  UNL     1      17.456  10.437   8.149  1.00  0.00    -0.271 OA
BRANCH   3   6
HETATM    6  C5  UNL     1      17.750   7.844   7.227  1.00  0.00     0.174 C 
BRANCH   6   7
HETATM    7  C4  UNL     1      16.913   6.870   6.507  1.00  0.00     0.038 C 
BRANCH   7   8
HETATM    8  C2  UNL     1      17.087   5.420   6.662  1.00  0.00    -0.020 C 
HETATM    9  C1  UNL     1      17.121   4.568   5.450  1.00  0.00     0.009 C 
HETATM   10  C3  UNL     1      16.088   4.831   7.682  1.00  0.00     0.009 C 
ENDBRANCH   7   8
ENDBRANCH   6   7
BRANCH   6  11
HETATM   11  C19 UNL     1      19.091   7.497   7.643  1.00  0.00     0.254 C 
HETATM   12  N4  UNL     1      20.275   7.458   6.894  1.00  0.00    -0.060 NA
HETATM   13  O3  UNL     1      19.235   7.183   8.887  1.00  0.00    -0.275 OA
ENDBRANCH   6  11
ENDBRANCH   3   6
ENDBRANCH   1   2
BRANCH   1  14
HETATM   14  N2  UNL     1      16.358  11.284  10.426  1.00  0.00    -0.065 N 
ATOM     15  H23 UNL     1      17.278  11.331  10.865  1.00  0.00     0.275 HD
ATOM     16  H22 UNL     1      16.549  11.907   9.640  1.00  0.00     0.275 HD
ATOM     17  H21 UNL     1      15.615  11.631  11.032  1.00  0.00     0.275 HD
ENDBRANCH   1  14
BRANCH   1  18
HETATM   18  C8  UNL     1      16.259   9.052  11.199  1.00  0.00     0.120 C 
HETATM   19  C9  UNL     1      17.699   9.092  11.642  1.00  0.00     0.035 C 
BRANCH  18  20
HETATM   20  N3  UNL     1      15.391   9.412  12.314  1.00  0.00    -0.351 N 
HETATM   21  C10 UNL     1      15.204   8.564  13.431  1.00  0.00     0.241 C 
HETATM   22  O2  UNL     1      15.781   7.446  13.532  1.00  0.00    -0.269 OA
ATOM     23  H3  UNL     1      14.902  10.307  12.287  1.00  0.00     0.163 HD
BRANCH  21  24
HETATM   24  C11 UNL     1      14.325   8.977  14.502  1.00  0.00     0.070 C 
HETATM   25  C12 UNL     1      13.869  10.200  14.608  1.00  0.00    -0.017 C 
BRANCH  25  26
HETATM   26  C13 UNL     1      12.960  10.533  15.757  1.00  0.00     0.008 C 
HETATM   27  C14 UNL     1      13.583   9.996  17.042  1.00  0.00     0.008 C 
HETATM   28  C15 UNL     1      13.430  11.004  18.135  1.00  0.00     0.001 C 
HETATM   29  C16 UNL     1      12.057  11.628  18.058  1.00  0.00     0.000 C 
HETATM   30  C17 UNL     1      11.855  12.426  16.793  1.00  0.00     0.001 C 
HETATM   31  C18 UNL     1      12.955  12.046  15.836  1.00  0.00     0.008 C 
ENDBRANCH  25  26
ENDBRANCH  21  24
ENDBRANCH  18  20
ENDBRANCH   1  18
TORSDOF 10
ENDMDL
MODEL 4
REMARK VINA RESULT: -7.943438473      2.910      6.412
REMARK  10 active torsions:
REMARK  status: ('A' for Active; 'I' for Inactive)
REMARK    1  A    between atoms: C2_2  and  C4_4 
REMARK    2  A    between atoms: C4_4  and  C5_5 
REMARK    3  A    between atoms: C5_5  and  N1_6 
REMARK    4  A    between atoms: C5_5  and  C19_29 
REMARK       I    between atoms: N1_6  and  C6_8 
REMARK    5  A    between atoms: C6_8  and  C7_10 
REMARK    6  A    between atoms: C7_10  and  N2_11 
REMARK    7  A    between atoms: C7_10  and  C8_15 
REMARK    8  A    between atoms: C8_15  and  N3_17 
REMARK       I    between atoms: N3_17  and  C10_19 
REMARK    9  A    between atoms: C10_19  and  C11_21 
REMARK   10  A    between atoms: C12_22  and  C13_23 
ROOT
HETATM    1  C7  UNL     1      15.125  10.344  10.934  1.00  0.00     0.296 C 
ENDROOT
BRANCH   1   2
HETATM    2  C6  UNL     1      15.855   9.609  11.959  1.00  0.00     0.251 C 
HETATM    3  N1  UNL     1      15.323   8.420  12.499  1.00  0.00    -0.346 N 
ATOM      4  H1  UNL     1      14.422   8.084  12.159  1.00  0.00     0.163 HD
HETATM    5  O1  UNL     1      16.984   9.975  12.418  1.00  0.00    -0.271 OA
BRANCH   3   6
HETATM    6  C5  UNL     1      16.035   7.636  13.553  1.00  0.00     0.174 C 
BRANCH   6   7
HETATM    7  C4  UNL     1      16.572   6.467  12.837  1.00  0.00     0.038 C 
BRANCH   7   8
HETATM    8  C2  UNL     1      15.706   5.517  12.126  1.00  0.00    -0.020 C 
HETATM    9  C1  UNL     1      15.214   4.318  12.846  1.00  0.00     0.009 C 
HETATM   10  C3  UNL     1      16.315   5.095  10.770  1.00  0.00     0.009 C 
ENDBRANCH   7   8
ENDBRANCH   6   7
BRANCH   6  11
HETATM   11  C19 UNL     1      15.185   7.465  14.711  1.00  0.00     0.254 C 
HETATM   12  N4  UNL     1      15.368   6.651  15.838  1.00  0.00    -0.060 NA
HETATM   13  O3  UNL     1      14.100   8.162  14.726  1.00  0.00    -0.275 OA
ENDBRANCH   6  11
ENDBRANCH   3   6
ENDBRANCH   1   2
BRANCH   1  14
HETATM   14  N2  UNL     1      16.034  10.567   9.790  1.00  0.00    -0.065 N 
ATOM     15  H23 UNL     1      16.972  10.200   9.955  1.00  0.00     0.275 HD
ATOM     16  H22 UNL     1      15.800   9.988   8.983  1.00  0.00     0.275 HD
ATOM     17  H21 UNL     1      16.035  11.563   9.574  1.00  0.00     0.275 HD
ENDBRANCH   1  14
BRANCH   1  18
HETATM   18  C8  UNL     1      14.691  11.720  11.358  1.00  0.00     0.120 C 
HETATM   19  C9  UNL     1      13.443  12.178  10.649  1.00  0.00     0.035 C 
BRANCH  18  20
HETATM   20  N3  UNL     1      14.495  11.800  12.800  1.00  0.00    -0.351 N 
HETATM   21  C10 UNL     1      13.230  11.605  13.404  1.00  0.00     0.241 C 
HETATM   22  O2  UNL     1      12.195  11.344  12.729  1.00  0.00    -0.269 OA
ATOM     23  H3  UNL     1      15.298  12.004  13.395  1.00  0.00     0.163 HD
BRANCH  21  24
HETATM   24  C11 UNL     1      13.101  11.703  14.840  1.00  0.00     0.070 C 
HETATM   25  C12 UNL     1      12.665  12.784  15.437  1.00  0.00    -0.017 C 
BRANCH  25  26
HETATM   26  C13 UNL     1      12.565  12.789  16.936  1.00  0.00     0.008 C 
HETATM   27  C14 UNL     1      11.631  11.663  17.366  1.00  0.00     0.008 C 
HETATM   28  C15 UNL     1      12.198  10.966  18.561  1.00  0.00     0.001 C 
HETATM   29  C16 UNL     1      12.786  11.985  19.508  1.00  0.00     0.000 C 
HETATM   30  C17 UNL     1      13.967  12.713  18.913  1.00  0.00     0.001 C 
HETATM   31  C18 UNL     1      13.958  12.455  17.429  1.00  0.00     0.008 C 
ENDBRANCH  25  26
ENDBRANCH  21  24
ENDBRANCH  18  20
ENDBRANCH   1  18
TORSDOF 10
ENDMDL
MODEL 5
REMARK VINA RESULT: -7.875624996      4.663      7.134
REMARK  10 active torsions:
REMARK  status: ('A' for Active; 'I' for Inactive)
REMARK    1  A    between atoms: C2_2  and  C4_4 
REMARK    2  A    between atoms: C4_4  and  C5_5 
REMARK    3  A    between atoms: C5_5  and  N1_6 
REMARK    4  A    between atoms: C5_5  and  C19_29 
REMARK       I    between atoms: N1_6  and  C6_8 
REMARK    5  A    between atoms: C6_8  and  C7_10 
REMARK    6  A    between atoms: C7_10  and  N2_11 
REMARK    7  A    between atoms: C7_10  and  C8_15 
REMARK    8  A    between atoms: C8_15  and  N3_17 
REMARK       I    between atoms: N3_17  and  C10_19 
REMARK    9  A    between atoms: C10_19  and  C11_21 
REMARK   10  A    between atoms: C12_22  and  C13_23 
ROOT
HETATM    1  C7  UNL     1      16.691  10.637  11.284  1.00  0.00     0.296 C 
ENDROOT
BRANCH   1   2
HETATM    2  C6  UNL     1      17.041  10.166   9.949  1.00  0.00     0.251 C 
HETATM    3  N1  UNL     1      17.092   8.784   9.671  1.00  0.00    -0.346 N 
ATOM      4  H1  UNL     1      16.878   8.123  10.419  1.00  0.00     0.163 HD
HETATM    5  O1  UNL     1      17.309  10.942   8.977  1.00  0.00    -0.271 OA
BRANCH   3   6
HETATM    6  C5  UNL     1      17.447   8.257   8.321  1.00  0.00     0.174 C 
BRANCH   6   7
HETATM    7  C4  UNL     1      16.376   7.295   8.012  1.00  0.00     0.038 C 
BRANCH   7   8
HETATM    8  C2  UNL     1      16.658   5.918   7.586  1.00  0.00    -0.020 C 
HETATM    9  C1  UNL     1      16.669   5.603   6.138  1.00  0.00     0.009 C 
HETATM   10  C3  UNL     1      15.771   4.897   8.332  1.00  0.00     0.009 C 
ENDBRANCH   7   8
ENDBRANCH   6   7
BRANCH   6  11
HETATM   11  C19 UNL     1      18.834   7.850   8.289  1.00  0.00     0.254 C 
HETATM   12  N4  UNL     1      19.717   7.774   7.202  1.00  0.00    -0.060 NA
HETATM   13  O3  UNL     1      19.352   7.512   9.422  1.00  0.00    -0.275 OA
ENDBRANCH   6  11
ENDBRANCH   3   6
ENDBRANCH   1   2
BRANCH   1  14
HETATM   14  N2  UNL     1      16.796   9.496  12.218  1.00  0.00    -0.065 N 
ATOM     15  H23 UNL     1      15.942   8.939  12.257  1.00  0.00     0.275 HD
ATOM     16  H22 UNL     1      17.421   8.764  11.877  1.00  0.00     0.275 HD
ATOM     17  H21 UNL     1      17.073   9.856  13.131  1.00  0.00     0.275 HD
ENDBRANCH   1  14
BRANCH   1  18
HETATM   18  C8  UNL     1      15.270  11.113  11.414  1.00  0.00     0.120 C 
HETATM   19  C9  UNL     1      14.305  10.282  10.607  1.00  0.00     0.035 C 
BRANCH  18  20
HETATM   20  N3  UNL     1      14.842  11.149  12.807  1.00  0.00    -0.351 N 
HETATM   21  C10 UNL     1      13.666  11.820  13.220  1.00  0.00     0.241 C 
HETATM   22  O2  UNL     1      12.913  12.422  12.405  1.00  0.00    -0.269 OA
ATOM     23  H3  UNL     1      15.411  10.675  13.509  1.00  0.00     0.163 HD
BRANCH  21  24
HETATM   24  C11 UNL     1      13.300  11.824  14.618  1.00  0.00     0.070 C 
HETATM   25  C12 UNL     1      13.204  12.926  15.319  1.00  0.00    -0.017 C 
BRANCH  25  26
HETATM   26  C13 UNL     1      12.816  12.828  16.767  1.00  0.00     0.008 C 
HETATM   27  C14 UNL     1      11.863  11.649  16.937  1.00  0.00     0.008 C 
HETATM   28  C15 UNL     1      12.216  10.890  18.176  1.00  0.00     0.001 C 
HETATM   29  C16 UNL     1      12.567  11.858  19.279  1.00  0.00     0.000 C 
HETATM   30  C17 UNL     1      13.810  12.659  18.972  1.00  0.00     0.001 C 
HETATM   31  C18 UNL     1      14.100  12.501  17.502  1.00  0.00     0.008 C 
ENDBRANCH  25  26
ENDBRANCH  21  24
ENDBRANCH  18  20
ENDBRANCH   1  18
TORSDOF 10
ENDMDL
