MODEL 1
REMARK VINA RESULT: -10.977353935      0.000      0.000
REMARK  1 active torsions:
REMARK  status: ('A' for Active; 'I' for Inactive)
REMARK    1  A    between atoms: C13_23  and  C14_24 
ROOT
HETATM    1  N1  UNL     1      34.078  42.376   9.218  1.00  0.00    -0.191 NA
HETATM    2  C1  UNL     1      33.911  42.963  10.201  1.00  0.00     0.102 C 
HETATM    3  C2  UNL     1      33.677  43.690  11.423  1.00  0.00     0.085 C 
HETATM    4  C3  UNL     1      32.352  44.096  11.580  1.00  0.00     0.070 A 
HETATM    5  N2  UNL     1      31.469  43.677  10.650  1.00  0.00    -0.321 N 
ATOM      6  H2  UNL     1      31.705  43.091   9.849  1.00  0.00     0.169 HD
HETATM    7  C4  UNL     1      30.244  44.137  10.920  1.00  0.00     0.257 A 
HETATM    8  O1  UNL     1      29.241  43.891  10.207  1.00  0.00    -0.267 OA
HETATM    9  C5  UNL     1      30.246  44.909  12.078  1.00  0.00     0.047 A 
HETATM   10  C6  UNL     1      29.237  45.569  12.726  1.00  0.00     0.018 A 
HETATM   11  C7  UNL     1      29.585  46.259  13.882  1.00  0.00     0.003 A 
HETATM   12  C8  UNL     1      30.881  46.277  14.354  1.00  0.00     0.030 A 
HETATM   13  C9  UNL     1      31.876  45.595  13.668  1.00  0.00     0.047 A 
HETATM   14  N3  UNL     1      33.020  45.802  14.370  1.00  0.00    -0.340 N 
ATOM     15  H3  UNL     1      32.875  46.372  15.203  1.00  0.00     0.167 HD
HETATM   16  C10 UNL     1      34.306  45.424  14.213  1.00  0.00     0.135 A 
HETATM   17  N4  UNL     1      35.168  45.919  15.123  1.00  0.00    -0.337 N 
ATOM     18  H4  UNL     1      34.924  46.538  15.896  1.00  0.00     0.168 HD
HETATM   19  C11 UNL     1      36.403  45.463  14.847  1.00  0.00     0.182 A 
HETATM   20  N5  UNL     1      36.339  44.675  13.760  1.00  0.00    -0.349 N 
ATOM     21  H5  UNL     1      37.122  44.192  13.321  1.00  0.00     0.167 HD
HETATM   22  C12 UNL     1      35.057  44.641  13.358  1.00  0.00     0.090 A 
HETATM   23  C13 UNL     1      34.770  43.870  12.235  1.00  0.00     0.028 C 
HETATM   24  C20 UNL     1      31.561  44.896  12.510  1.00  0.00     0.035 A 
ENDROOT
BRANCH  23  25
HETATM   25  C14 UNL     1      35.876  43.036  11.786  1.00  0.00    -0.022 A 
HETATM   26  C15 UNL     1      35.790  41.656  11.773  1.00  0.00     0.012 A 
HETATM   27  C16 UNL     1      36.850  40.850  11.348  1.00  0.00     0.001 A 
HETATM   28  C17 UNL     1      38.014  41.464  10.930  1.00  0.00     0.000 A 
HETATM   29  C18 UNL     1      38.121  42.835  10.934  1.00  0.00     0.001 A 
HETATM   30  C19 UNL     1      37.067  43.611  11.356  1.00  0.00     0.012 A 
ENDBRANCH  23  25
TORSDOF 1
ENDMDL
MODEL 2
REMARK VINA RESULT: -10.277654713      1.622      5.734
REMARK  1 active torsions:
REMARK  status: ('A' for Active; 'I' for Inactive)
REMARK    1  A    between atoms: C13_23  and  C14_24 
ROOT
HETATM    1  N1  UNL     1      30.417  43.129  11.096  1.00  0.00    -0.191 NA
HETATM    2  C1  UNL     1      31.440  43.445  11.536  1.00  0.00     0.102 C 
HETATM    3  C2  UNL     1      32.726  43.830  12.062  1.00  0.00     0.085 C 
HETATM    4  C3  UNL     1      33.797  43.249  11.383  1.00  0.00     0.070 A 
HETATM    5  N2  UNL     1      33.503  42.511  10.293  1.00  0.00    -0.321 N 
ATOM      6  H2  UNL     1      32.561  42.352   9.937  1.00  0.00     0.169 HD
HETATM    7  C4  UNL     1      34.617  42.016   9.743  1.00  0.00     0.257 A 
HETATM    8  O1  UNL     1      34.618  41.293   8.717  1.00  0.00    -0.267 OA
HETATM    9  C5  UNL     1      35.743  42.410  10.460  1.00  0.00     0.047 A 
HETATM   10  C6  UNL     1      37.073  42.147  10.269  1.00  0.00     0.018 A 
HETATM   11  C7  UNL     1      37.956  42.707  11.186  1.00  0.00     0.003 A 
HETATM   12  C8  UNL     1      37.516  43.488  12.234  1.00  0.00     0.030 A 
HETATM   13  C9  UNL     1      36.160  43.731  12.393  1.00  0.00     0.047 A 
HETATM   14  N3  UNL     1      36.049  44.517  13.496  1.00  0.00    -0.340 N 
ATOM     15  H3  UNL     1      36.952  44.740  13.913  1.00  0.00     0.167 HD
HETATM   16  C10 UNL     1      35.014  45.067  14.163  1.00  0.00     0.135 A 
HETATM   17  N4  UNL     1      35.343  45.739  15.285  1.00  0.00    -0.337 N 
ATOM     18  H4  UNL     1      36.288  45.855  15.651  1.00  0.00     0.168 HD
HETATM   19  C11 UNL     1      34.222  46.230  15.842  1.00  0.00     0.182 A 
HETATM   20  N5  UNL     1      33.171  45.877  15.084  1.00  0.00    -0.349 N 
ATOM     21  H5  UNL     1      32.194  46.110  15.262  1.00  0.00     0.167 HD
HETATM   22  C12 UNL     1      33.641  45.162  14.047  1.00  0.00     0.090 A 
HETATM   23  C13 UNL     1      32.705  44.695  13.128  1.00  0.00     0.028 C 
HETATM   24  C20 UNL     1      35.251  43.187  11.495  1.00  0.00     0.035 A 
ENDROOT
BRANCH  23  25
HETATM   25  C14 UNL     1      31.366  45.238  13.313  1.00  0.00    -0.022 A 
HETATM   26  C15 UNL     1      30.484  44.703  14.234  1.00  0.00     0.012 A 
HETATM   27  C16 UNL     1      29.196  45.217  14.411  1.00  0.00     0.001 A 
HETATM   28  C17 UNL     1      28.805  46.290  13.638  1.00  0.00     0.000 A 
HETATM   29  C18 UNL     1      29.667  46.839  12.716  1.00  0.00     0.001 A 
HETATM   30  C19 UNL     1      30.930  46.319  12.556  1.00  0.00     0.012 A 
ENDBRANCH  23  25
TORSDOF 1
ENDMDL
MODEL 3
REMARK VINA RESULT: -10.162976435      2.444      5.901
REMARK  1 active torsions:
REMARK  status: ('A' for Active; 'I' for Inactive)
REMARK    1  A    between atoms: C13_23  and  C14_24 
ROOT
HETATM    1  N1  UNL     1      37.530  45.432  14.846  1.00  0.00    -0.191 NA
HETATM    2  C1  UNL     1      36.513  45.211  14.339  1.00  0.00     0.102 C 
HETATM    3  C2  UNL     1      35.258  44.915  13.694  1.00  0.00     0.085 C 
HETATM    4  C3  UNL     1      35.388  44.066  12.596  1.00  0.00     0.070 A 
HETATM    5  N2  UNL     1      36.615  43.564  12.351  1.00  0.00    -0.321 N 
ATOM      6  H2  UNL     1      37.445  43.762  12.910  1.00  0.00     0.169 HD
HETATM    7  C4  UNL     1      36.596  42.772  11.275  1.00  0.00     0.257 A 
HETATM    8  O1  UNL     1      37.612  42.180  10.834  1.00  0.00    -0.267 OA
HETATM    9  C5  UNL     1      35.317  42.703  10.731  1.00  0.00     0.047 A 
HETATM   10  C6  UNL     1      34.832  42.024   9.645  1.00  0.00     0.018 A 
HETATM   11  C7  UNL     1      33.477  42.174   9.371  1.00  0.00     0.003 A 
HETATM   12  C8  UNL     1      32.662  42.965  10.152  1.00  0.00     0.030 A 
HETATM   13  C9  UNL     1      33.191  43.637  11.244  1.00  0.00     0.047 A 
HETATM   14  N3  UNL     1      32.156  44.320  11.799  1.00  0.00    -0.340 N 
ATOM     15  H3  UNL     1      31.275  44.168  11.308  1.00  0.00     0.167 HD
HETATM   16  C10 UNL     1      32.031  45.153  12.852  1.00  0.00     0.135 A 
HETATM   17  N4  UNL     1      30.805  45.688  13.022  1.00  0.00    -0.337 N 
ATOM     18  H4  UNL     1      29.994  45.512  12.429  1.00  0.00     0.168 HD
HETATM   19  C11 UNL     1      30.827  46.492  14.100  1.00  0.00     0.182 A 
HETATM   20  N5  UNL     1      32.063  46.478  14.626  1.00  0.00    -0.349 N 
ATOM     21  H5  UNL     1      32.373  46.994  15.449  1.00  0.00     0.167 HD
HETATM   22  C12 UNL     1      32.815  45.659  13.871  1.00  0.00     0.090 A 
HETATM   23  C13 UNL     1      34.145  45.500  14.248  1.00  0.00     0.028 C 
HETATM   24  C20 UNL     1      34.541  43.509  11.546  1.00  0.00     0.035 A 
ENDROOT
BRANCH  23  25
HETATM   25  C14 UNL     1      34.471  46.082  15.544  1.00  0.00    -0.022 A 
HETATM   26  C15 UNL     1      34.611  47.446  15.714  1.00  0.00     0.012 A 
HETATM   27  C16 UNL     1      34.929  48.010  16.954  1.00  0.00     0.001 A 
HETATM   28  C17 UNL     1      35.106  47.167  18.032  1.00  0.00     0.000 A 
HETATM   29  C18 UNL     1      34.971  45.805  17.884  1.00  0.00     0.001 A 
HETATM   30  C19 UNL     1      34.658  45.270  16.657  1.00  0.00     0.012 A 
ENDBRANCH  23  25
TORSDOF 1
ENDMDL
MODEL 4
REMARK VINA RESULT: -9.656243398      2.504      5.912
REMARK  1 active torsions:
REMARK  status: ('A' for Active; 'I' for Inactive)
REMARK    1  A    between atoms: C13_23  and  C14_24 
ROOT
HETATM    1  N1  UNL     1      37.456  45.498  14.850  1.00  0.00    -0.191 NA
HETATM    2  C1  UNL     1      36.474  45.337  14.259  1.00  0.00     0.102 C 
HETATM    3  C2  UNL     1      35.260  45.113  13.514  1.00  0.00     0.085 C 
HETATM    4  C3  UNL     1      35.393  44.142  12.522  1.00  0.00     0.070 A 
HETATM    5  N2  UNL     1      36.569  43.485  12.461  1.00  0.00    -0.321 N 
ATOM      6  H2  UNL     1      37.359  43.650  13.085  1.00  0.00     0.169 HD
HETATM    7  C4  UNL     1      36.558  42.589  11.469  1.00  0.00     0.257 A 
HETATM    8  O1  UNL     1      37.533  41.846  11.200  1.00  0.00    -0.267 OA
HETATM    9  C5  UNL     1      35.339  42.602  10.799  1.00  0.00     0.047 A 
HETATM   10  C6  UNL     1      34.883  41.867   9.737  1.00  0.00     0.018 A 
HETATM   11  C7  UNL     1      33.589  42.135   9.305  1.00  0.00     0.003 A 
HETATM   12  C8  UNL     1      32.802  43.089   9.914  1.00  0.00     0.030 A 
HETATM   13  C9  UNL     1      33.301  43.813  10.988  1.00  0.00     0.047 A 
HETATM   14  N3  UNL     1      32.306  44.661  11.360  1.00  0.00    -0.340 N 
ATOM     15  H3  UNL     1      31.465  44.554  10.794  1.00  0.00     0.167 HD
HETATM   16  C10 UNL     1      32.181  45.611  12.309  1.00  0.00     0.135 A 
HETATM   17  N4  UNL     1      31.018  46.292  12.293  1.00  0.00    -0.337 N 
ATOM     18  H4  UNL     1      30.252  46.143  11.636  1.00  0.00     0.168 HD
HETATM   19  C11 UNL     1      31.031  47.200  13.285  1.00  0.00     0.182 A 
HETATM   20  N5  UNL     1      32.200  47.107  13.941  1.00  0.00    -0.349 N 
ATOM     21  H5  UNL     1      32.490  47.671  14.739  1.00  0.00     0.167 HD
HETATM   22  C12 UNL     1      32.919  46.134  13.353  1.00  0.00     0.090 A 
HETATM   23  C13 UNL     1      34.178  45.872  13.885  1.00  0.00     0.028 C 
HETATM   24  C20 UNL     1      34.590  43.571  11.445  1.00  0.00     0.035 A 
ENDROOT
BRANCH  23  25
HETATM   25  C14 UNL     1      34.445  46.550  15.147  1.00  0.00    -0.022 A 
HETATM   26  C15 UNL     1      34.481  45.866  16.348  1.00  0.00     0.012 A 
HETATM   27  C16 UNL     1      34.731  46.512  17.562  1.00  0.00     0.001 A 
HETATM   28  C17 UNL     1      34.946  47.875  17.548  1.00  0.00     0.000 A 
HETATM   29  C18 UNL     1      34.916  48.576  16.364  1.00  0.00     0.001 A 
HETATM   30  C19 UNL     1      34.668  47.922  15.180  1.00  0.00     0.012 A 
ENDBRANCH  23  25
TORSDOF 1
ENDMDL
MODEL 5
REMARK VINA RESULT: -9.339905092      1.605      5.810
REMARK  1 active torsions:
REMARK  status: ('A' for Active; 'I' for Inactive)
REMARK    1  A    between atoms: C13_23  and  C14_24 
ROOT
HETATM    1  N1  UNL     1      29.989  43.556  10.674  1.00  0.00    -0.191 NA
HETATM    2  C1  UNL     1      31.026  43.749  11.149  1.00  0.00     0.102 C 
HETATM    3  C2  UNL     1      32.330  43.978  11.720  1.00  0.00     0.085 C 
HETATM    4  C3  UNL     1      33.343  43.255  11.091  1.00  0.00     0.070 A 
HETATM    5  N2  UNL     1      33.000  42.541   9.999  1.00  0.00    -0.321 N 
ATOM      6  H2  UNL     1      32.059  42.496   9.609  1.00  0.00     0.169 HD
HETATM    7  C4  UNL     1      34.061  41.901   9.500  1.00  0.00     0.257 A 
HETATM    8  O1  UNL     1      34.009  41.166   8.484  1.00  0.00    -0.267 OA
HETATM    9  C5  UNL     1      35.201  42.162  10.255  1.00  0.00     0.047 A 
HETATM   10  C6  UNL     1      36.493  41.731  10.120  1.00  0.00     0.018 A 
HETATM   11  C7  UNL     1      37.405  42.191  11.063  1.00  0.00     0.003 A 
HETATM   12  C8  UNL     1      37.029  43.039  12.083  1.00  0.00     0.030 A 
HETATM   13  C9  UNL     1      35.709  43.453  12.186  1.00  0.00     0.047 A 
HETATM   14  N3  UNL     1      35.658  44.266  13.274  1.00  0.00    -0.340 N 
ATOM     15  H3  UNL     1      36.566  44.381  13.724  1.00  0.00     0.167 HD
HETATM   16  C10 UNL     1      34.677  44.954  13.894  1.00  0.00     0.135 A 
HETATM   17  N4  UNL     1      35.045  45.598  15.019  1.00  0.00    -0.337 N 
ATOM     18  H4  UNL     1      35.983  45.600  15.420  1.00  0.00     0.168 HD
HETATM   19  C11 UNL     1      33.976  46.236  15.526  1.00  0.00     0.182 A 
HETATM   20  N5  UNL     1      32.918  46.005  14.731  1.00  0.00    -0.349 N 
ATOM     21  H5  UNL     1      31.972  46.362  14.868  1.00  0.00     0.167 HD
HETATM   22  C12 UNL     1      33.331  45.218  13.723  1.00  0.00     0.090 A 
HETATM   23  C13 UNL     1      32.379  44.857  12.774  1.00  0.00     0.028 C 
HETATM   24  C20 UNL     1      34.773  43.012  11.260  1.00  0.00     0.035 A 
ENDROOT
BRANCH  23  25
HETATM   25  C14 UNL     1      31.113  45.567  12.900  1.00  0.00    -0.022 A 
HETATM   26  C15 UNL     1      30.867  46.742  12.214  1.00  0.00     0.012 A 
HETATM   27  C16 UNL     1      29.657  47.431  12.334  1.00  0.00     0.001 A 
HETATM   28  C17 UNL     1      28.686  46.912  13.167  1.00  0.00     0.000 A 
HETATM   29  C18 UNL     1      28.909  45.743  13.858  1.00  0.00     0.001 A 
HETATM   30  C19 UNL     1      30.107  45.081  13.726  1.00  0.00     0.012 A 
ENDBRANCH  23  25
TORSDOF 1
ENDMDL
