MODEL 1
REMARK VINA RESULT: -6.331191324      0.000      0.000
REMARK  5 active torsions:
REMARK  status: ('A' for Active; 'I' for Inactive)
REMARK    1  A    between atoms: N1_1  and  N2_4 
REMARK    2  A    between atoms: N2_4  and  N3_5 
REMARK    3  A    between atoms: N3_5  and  C1_7 
REMARK    4  A    between atoms: C8_17  and  C9_18 
REMARK    5  A    between atoms: C9_18  and  O4_19 
ROOT
HETATM    1  C1  UNL     1      -3.318  -6.330  15.036  1.00  0.00     0.148 C 
HETATM    2  C2  UNL     1      -3.349  -7.450  13.987  1.00  0.00     0.078 C 
HETATM    3  C3  UNL     1      -4.737  -8.010  14.199  1.00  0.00     0.145 C 
HETATM    4  C4  UNL     1      -5.523  -8.000  12.908  1.00  0.00     0.213 C 
HETATM    5  O1  UNL     1      -5.487  -9.247  12.291  1.00  0.00    -0.387 OA
HETATM    6  C5  UNL     1      -6.214 -10.211  12.952  1.00  0.00     0.175 C 
HETATM    7  C6  UNL     1      -5.931 -10.236  14.443  1.00  0.00     0.108 C 
HETATM    8  C7  UNL     1      -4.687  -9.440  14.653  1.00  0.00     0.165 C 
HETATM    9  O2  UNL     1      -3.680  -9.901  15.162  1.00  0.00    -0.294 OA
HETATM   10  O3  UNL     1      -5.331  -7.286  15.205  1.00  0.00    -0.360 OA
HETATM   11  C8  UNL     1      -4.273  -6.906  16.047  1.00  0.00     0.172 C 
ENDROOT
BRANCH   1  12
HETATM   12  N3  UNL     1      -1.990  -6.165  15.546  1.00  0.00    -0.245 N 
ATOM     13  H3  UNL     1      -1.383  -5.423  15.200  1.00  0.00     0.197 HD
BRANCH  12  14
HETATM   14  N2  UNL     1      -1.606  -6.946  16.415  1.00  0.00    -0.248 NA
BRANCH  14  15
HETATM   15  N1  UNL     1      -1.216  -7.820  17.208  1.00  0.00    -0.261 N 
ATOM     16  H12 UNL     1      -0.832  -6.999  17.677  1.00  0.00     0.193 HD
ATOM     17  H11 UNL     1      -0.938  -8.602  17.802  1.00  0.00     0.193 HD
ENDBRANCH  14  15
ENDBRANCH  12  14
ENDBRANCH   1  12
BRANCH  11  18
HETATM   18  C9  UNL     1      -4.715  -5.902  17.077  1.00  0.00     0.198 C 
BRANCH  18  19
HETATM   19  O4  UNL     1      -4.664  -4.638  16.530  1.00  0.00    -0.398 OA
ATOM     20  H4  UNL     1      -3.929  -4.165  16.903  1.00  0.00     0.209 HD
ENDBRANCH  18  19
ENDBRANCH  11  18
TORSDOF 5
ENDMDL
MODEL 2
REMARK VINA RESULT: -6.295343807      3.106      4.615
REMARK  5 active torsions:
REMARK  status: ('A' for Active; 'I' for Inactive)
REMARK    1  A    between atoms: N1_1  and  N2_4 
REMARK    2  A    between atoms: N2_4  and  N3_5 
REMARK    3  A    between atoms: N3_5  and  C1_7 
REMARK    4  A    between atoms: C8_17  and  C9_18 
REMARK    5  A    between atoms: C9_18  and  O4_19 
ROOT
HETATM    1  C1  UNL     1      -4.929  -7.846  13.645  1.00  0.00     0.148 C 
HETATM    2  C2  UNL     1      -5.432  -7.662  15.084  1.00  0.00     0.078 C 
HETATM    3  C3  UNL     1      -4.134  -7.408  15.817  1.00  0.00     0.145 C 
HETATM    4  C4  UNL     1      -4.195  -6.105  16.581  1.00  0.00     0.213 C 
HETATM    5  O1  UNL     1      -4.509  -6.323  17.919  1.00  0.00    -0.387 OA
HETATM    6  C5  UNL     1      -3.495  -6.919  18.634  1.00  0.00     0.175 C 
HETATM    7  C6  UNL     1      -2.904  -8.120  17.920  1.00  0.00     0.108 C 
HETATM    8  C7  UNL     1      -3.860  -8.481  16.831  1.00  0.00     0.165 C 
HETATM    9  O2  UNL     1      -4.395  -9.572  16.750  1.00  0.00    -0.294 OA
HETATM   10  O3  UNL     1      -3.117  -7.453  14.894  1.00  0.00    -0.360 OA
HETATM   11  C8  UNL     1      -3.549  -8.376  13.928  1.00  0.00     0.172 C 
ENDROOT
BRANCH   1  12
HETATM   12  N3  UNL     1      -5.758  -8.778  12.945  1.00  0.00    -0.245 N 
ATOM     13  H3  UNL     1      -6.025  -8.620  11.974  1.00  0.00     0.197 HD
BRANCH  12  14
HETATM   14  N2  UNL     1      -6.140  -9.778  13.552  1.00  0.00    -0.248 NA
BRANCH  14  15
HETATM   15  N1  UNL     1      -6.443 -10.763  14.247  1.00  0.00    -0.261 N 
ATOM     16  H12 UNL     1      -6.381 -10.062  14.986  1.00  0.00     0.193 HD
ATOM     17  H11 UNL     1      -6.693 -11.623  14.736  1.00  0.00     0.193 HD
ENDBRANCH  14  15
ENDBRANCH  12  14
ENDBRANCH   1  12
BRANCH  11  18
HETATM   18  C9  UNL     1      -2.657  -8.372  12.716  1.00  0.00     0.198 C 
BRANCH  18  19
HETATM   19  O4  UNL     1      -2.257  -7.079  12.452  1.00  0.00    -0.398 OA
ATOM     20  H4  UNL     1      -1.760  -7.065  11.642  1.00  0.00     0.209 HD
ENDBRANCH  18  19
ENDBRANCH  11  18
TORSDOF 5
ENDMDL
MODEL 3
REMARK VINA RESULT: -6.205279904      3.236      4.222
REMARK  5 active torsions:
REMARK  status: ('A' for Active; 'I' for Inactive)
REMARK    1  A    between atoms: N1_1  and  N2_4 
REMARK    2  A    between atoms: N2_4  and  N3_5 
REMARK    3  A    between atoms: N3_5  and  C1_7 
REMARK    4  A    between atoms: C8_17  and  C9_18 
REMARK    5  A    between atoms: C9_18  and  O4_19 
ROOT
HETATM    1  C1  UNL     1      -4.271  -8.723  14.451  1.00  0.00     0.148 C 
HETATM    2  C2  UNL     1      -4.538 -10.093  13.811  1.00  0.00     0.078 C 
HETATM    3  C3  UNL     1      -3.269 -10.296  13.015  1.00  0.00     0.145 C 
HETATM    4  C4  UNL     1      -2.602 -11.600  13.390  1.00  0.00     0.213 C 
HETATM    5  O1  UNL     1      -2.924 -12.605  12.482  1.00  0.00    -0.387 OA
HETATM    6  C5  UNL     1      -2.342 -12.440  11.246  1.00  0.00     0.175 C 
HETATM    7  C6  UNL     1      -2.503 -11.030  10.709  1.00  0.00     0.108 C 
HETATM    8  C7  UNL     1      -3.553 -10.374  11.543  1.00  0.00     0.165 C 
HETATM    9  O2  UNL     1      -4.585  -9.921  11.079  1.00  0.00    -0.294 OA
HETATM   10  O3  UNL     1      -2.469  -9.196  13.216  1.00  0.00    -0.360 OA
HETATM   11  C8  UNL     1      -3.364  -8.131  13.405  1.00  0.00     0.172 C 
ENDROOT
BRANCH   1  12
HETATM   12  N3  UNL     1      -5.497  -8.001  14.607  1.00  0.00    -0.245 N 
ATOM     13  H3  UNL     1      -5.983  -7.978  15.503  1.00  0.00     0.197 HD
BRANCH  12  14
HETATM   14  N2  UNL     1      -5.945  -7.409  13.626  1.00  0.00    -0.248 NA
BRANCH  14  15
HETATM   15  N1  UNL     1      -6.380  -6.710  12.695  1.00  0.00    -0.261 N 
ATOM     16  H12 UNL     1      -5.551  -6.163  12.929  1.00  0.00     0.193 HD
ATOM     17  H11 UNL     1      -6.810  -6.199  11.924  1.00  0.00     0.193 HD
ENDBRANCH  14  15
ENDBRANCH  12  14
ENDBRANCH   1  12
BRANCH  11  18
HETATM   18  C9  UNL     1      -2.658  -6.888  13.875  1.00  0.00     0.198 C 
BRANCH  18  19
HETATM   19  O4  UNL     1      -3.488  -5.801  13.700  1.00  0.00    -0.398 OA
ATOM     20  H4  UNL     1      -2.965  -5.043  13.466  1.00  0.00     0.209 HD
ENDBRANCH  18  19
ENDBRANCH  11  18
TORSDOF 5
ENDMDL
MODEL 4
REMARK VINA RESULT: -6.171935177      2.137      2.630
REMARK  5 active torsions:
REMARK  status: ('A' for Active; 'I' for Inactive)
REMARK    1  A    between atoms: N1_1  and  N2_4 
REMARK    2  A    between atoms: N2_4  and  N3_5 
REMARK    3  A    between atoms: N3_5  and  C1_7 
REMARK    4  A    between atoms: C8_17  and  C9_18 
REMARK    5  A    between atoms: C9_18  and  O4_19 
ROOT
HETATM    1  C1  UNL     1      -3.478  -8.869  16.669  1.00  0.00     0.148 C 
HETATM    2  C2  UNL     1      -3.724 -10.002  15.662  1.00  0.00     0.078 C 
HETATM    3  C3  UNL     1      -3.956  -9.217  14.391  1.00  0.00     0.145 C 
HETATM    4  C4  UNL     1      -3.006  -9.665  13.303  1.00  0.00     0.213 C 
HETATM    5  O1  UNL     1      -3.619 -10.574  12.446  1.00  0.00    -0.387 OA
HETATM    6  C5  UNL     1      -4.584 -10.011  11.641  1.00  0.00     0.175 C 
HETATM    7  C6  UNL     1      -5.544  -9.125  12.413  1.00  0.00     0.108 C 
HETATM    8  C7  UNL     1      -5.343  -9.437  13.858  1.00  0.00     0.165 C 
HETATM    9  O2  UNL     1      -6.235  -9.844  14.582  1.00  0.00    -0.294 OA
HETATM   10  O3  UNL     1      -3.846  -7.882  14.697  1.00  0.00    -0.360 OA
HETATM   11  C8  UNL     1      -4.293  -7.780  16.024  1.00  0.00     0.172 C 
ENDROOT
BRANCH   1  12
HETATM   12  N3  UNL     1      -3.961  -9.243  17.963  1.00  0.00    -0.245 N 
ATOM     13  H3  UNL     1      -4.820  -8.843  18.340  1.00  0.00     0.197 HD
BRANCH  12  14
HETATM   14  N2  UNL     1      -3.307 -10.062  18.607  1.00  0.00    -0.248 NA
BRANCH  14  15
HETATM   15  N1  UNL     1      -2.566 -10.803  19.276  1.00  0.00    -0.261 N 
ATOM     16  H12 UNL     1      -3.251 -10.573  19.997  1.00  0.00     0.193 HD
ATOM     17  H11 UNL     1      -1.904 -11.421  19.744  1.00  0.00     0.193 HD
ENDBRANCH  14  15
ENDBRANCH  12  14
ENDBRANCH   1  12
BRANCH  11  18
HETATM   18  C9  UNL     1      -4.017  -6.418  16.601  1.00  0.00     0.198 C 
BRANCH  18  19
HETATM   19  O4  UNL     1      -5.197  -5.709  16.677  1.00  0.00    -0.398 OA
ATOM     20  H4  UNL     1      -5.099  -5.006  17.309  1.00  0.00     0.209 HD
ENDBRANCH  18  19
ENDBRANCH  11  18
TORSDOF 5
ENDMDL
MODEL 5
REMARK VINA RESULT: -6.164527047      3.501      5.133
REMARK  5 active torsions:
REMARK  status: ('A' for Active; 'I' for Inactive)
REMARK    1  A    between atoms: N1_1  and  N2_4 
REMARK    2  A    between atoms: N2_4  and  N3_5 
REMARK    3  A    between atoms: N3_5  and  C1_7 
REMARK    4  A    between atoms: C8_17  and  C9_18 
REMARK    5  A    between atoms: C9_18  and  O4_19 
ROOT
HETATM    1  C1  UNL     1      -4.297  -8.498  15.320  1.00  0.00     0.148 C 
HETATM    2  C2  UNL     1      -3.404  -7.971  16.452  1.00  0.00     0.078 C 
HETATM    3  C3  UNL     1      -2.941  -9.264  17.084  1.00  0.00     0.145 C 
HETATM    4  C4  UNL     1      -1.430  -9.328  17.131  1.00  0.00     0.213 C 
HETATM    5  O1  UNL     1      -0.953  -8.946  18.382  1.00  0.00    -0.387 OA
HETATM    6  C5  UNL     1      -1.216  -9.860  19.376  1.00  0.00     0.175 C 
HETATM    7  C6  UNL     1      -2.657 -10.332  19.369  1.00  0.00     0.108 C 
HETATM    8  C7  UNL     1      -3.413  -9.379  18.505  1.00  0.00     0.165 C 
HETATM    9  O2  UNL     1      -4.360  -8.724  18.905  1.00  0.00    -0.294 OA
HETATM   10  O3  UNL     1      -3.509 -10.300  16.383  1.00  0.00    -0.360 OA
HETATM   11  C8  UNL     1      -4.742  -9.798  15.937  1.00  0.00     0.172 C 
ENDROOT
BRANCH   1  12
HETATM   12  N3  UNL     1      -5.377  -7.591  15.078  1.00  0.00    -0.245 N 
ATOM     13  H3  UNL     1      -5.873  -7.145  15.849  1.00  0.00     0.197 HD
BRANCH  12  14
HETATM   14  N2  UNL     1      -5.689  -7.366  13.909  1.00  0.00    -0.248 NA
BRANCH  14  15
HETATM   15  N1  UNL     1      -6.011  -7.258  12.714  1.00  0.00    -0.261 N 
ATOM     16  H12 UNL     1      -6.884  -6.946  13.140  1.00  0.00     0.193 HD
ATOM     17  H11 UNL     1      -6.185  -7.200  11.710  1.00  0.00     0.193 HD
ENDBRANCH  14  15
ENDBRANCH  12  14
ENDBRANCH   1  12
BRANCH  11  18
HETATM   18  C9  UNL     1      -5.395 -10.724  14.948  1.00  0.00     0.198 C 
BRANCH  18  19
HETATM   19  O4  UNL     1      -6.453 -10.075  14.348  1.00  0.00    -0.398 OA
ATOM     20  H4  UNL     1      -6.244  -9.152  14.259  1.00  0.00     0.209 HD
ENDBRANCH  18  19
ENDBRANCH  11  18
TORSDOF 5
ENDMDL
