MODEL 1
REMARK VINA RESULT: -9.219308436      0.000      0.000
REMARK  3 active torsions:
REMARK  status: ('A' for Active; 'I' for Inactive)
REMARK    1  A    between atoms: C4_6  and  C5_7 
REMARK    2  A    between atoms: C6_8  and  C7_9 
REMARK    3  A    between atoms: C7_9  and  O2_10 
ROOT
HETATM    1  C7  UNL     1     -52.084 -11.642 -10.207  1.00  0.00     0.261 C 
HETATM    2  C8  UNL     1     -53.455 -11.562  -9.609  1.00  0.00     0.091 C 
HETATM    3  C9  UNL     1     -53.587 -10.393  -8.678  1.00  0.00     0.078 C 
HETATM    4  C10 UNL     1     -52.289  -9.938  -8.088  1.00  0.00     0.258 C 
HETATM    5  C11 UNL     1     -51.977 -10.650  -6.800  1.00  0.00     0.072 C 
HETATM    6  C12 UNL     1     -52.161  -9.802  -5.584  1.00  0.00     0.007 C 
HETATM    7  C13 UNL     1     -53.360  -8.897  -5.648  1.00  0.00     0.028 C 
HETATM    8  C14 UNL     1     -53.522  -8.254  -7.007  1.00  0.00     0.236 C 
HETATM    9  N2  UNL     1     -52.346  -8.496  -7.796  1.00  0.00    -0.040 N 
ATOM     10  H21 UNL     1     -52.309  -7.920  -8.638  1.00  0.00     0.280 HD
ATOM     11  H22 UNL     1     -51.494  -8.148  -7.356  1.00  0.00     0.280 HD
HETATM   12  O3  UNL     1     -51.206 -10.104  -8.951  1.00  0.00    -0.196 OA
HETATM   13  O4  UNL     1     -51.123 -11.397  -9.205  1.00  0.00    -0.184 OA
ENDROOT
BRANCH   1  14
HETATM   14  C6  UNL     1     -51.829 -12.908 -10.847  1.00  0.00    -0.030 C 
HETATM   15  C5  UNL     1     -51.634 -13.976 -11.375  1.00  0.00    -0.057 C 
BRANCH  15  16
HETATM   16  C4  UNL     1     -51.427 -15.248 -12.006  1.00  0.00     0.068 A 
HETATM   17  C1  UNL     1     -52.305 -15.922 -12.826  1.00  0.00     0.175 A 
HETATM   18  N1  UNL     1     -53.593 -15.424 -13.173  1.00  0.00    -0.073 NA
HETATM   19  O1  UNL     1     -51.754 -17.052 -13.205  1.00  0.00    -0.307 OA
HETATM   20  C2  UNL     1     -50.554 -17.199 -12.699  1.00  0.00     0.145 A 
HETATM   21  C3  UNL     1     -50.312 -16.076 -11.935  1.00  0.00     0.049 A 
ENDBRANCH  15  16
ENDBRANCH   1  14
BRANCH   1  22
HETATM   22  O2  UNL     1     -51.960 -10.559 -11.104  1.00  0.00    -0.354 OA
ATOM     23  H2  UNL     1     -52.461  -9.803 -10.822  1.00  0.00     0.214 HD
ENDBRANCH   1  22
TORSDOF 3
ENDMDL
MODEL 2
REMARK VINA RESULT: -8.975886944      1.061      1.338
REMARK  3 active torsions:
REMARK  status: ('A' for Active; 'I' for Inactive)
REMARK    1  A    between atoms: C4_6  and  C5_7 
REMARK    2  A    between atoms: C6_8  and  C7_9 
REMARK    3  A    between atoms: C7_9  and  O2_10 
ROOT
HETATM    1  C7  UNL     1     -52.378 -11.735 -10.450  1.00  0.00     0.261 C 
HETATM    2  C8  UNL     1     -53.714 -11.482  -9.820  1.00  0.00     0.091 C 
HETATM    3  C9  UNL     1     -53.664 -10.335  -8.855  1.00  0.00     0.078 C 
HETATM    4  C10 UNL     1     -52.304 -10.084  -8.281  1.00  0.00     0.258 C 
HETATM    5  C11 UNL     1     -52.071 -10.871  -7.020  1.00  0.00     0.072 C 
HETATM    6  C12 UNL     1     -52.113 -10.043  -5.777  1.00  0.00     0.007 C 
HETATM    7  C13 UNL     1     -53.174  -8.978  -5.790  1.00  0.00     0.028 C 
HETATM    8  C14 UNL     1     -53.269  -8.277  -7.126  1.00  0.00     0.236 C 
HETATM    9  N2  UNL     1     -52.153  -8.658  -7.949  1.00  0.00    -0.040 N 
ATOM     10  H21 UNL     1     -52.051  -8.067  -8.774  1.00  0.00     0.280 HD
ATOM     11  H22 UNL     1     -51.253  -8.445  -7.518  1.00  0.00     0.280 HD
HETATM   12  O3  UNL     1     -51.271 -10.373  -9.172  1.00  0.00    -0.196 OA
HETATM   13  O4  UNL     1     -51.374 -11.657  -9.463  1.00  0.00    -0.184 OA
ENDROOT
BRANCH   1  14
HETATM   14  C6  UNL     1     -52.314 -13.004 -11.130  1.00  0.00    -0.030 C 
HETATM   15  C5  UNL     1     -52.279 -14.062 -11.710  1.00  0.00    -0.057 C 
BRANCH  15  16
HETATM   16  C4  UNL     1     -52.248 -15.309 -12.420  1.00  0.00     0.068 A 
HETATM   17  C1  UNL     1     -51.301 -16.304 -12.312  1.00  0.00     0.175 A 
HETATM   18  N1  UNL     1     -50.176 -16.224 -11.444  1.00  0.00    -0.073 NA
HETATM   19  O1  UNL     1     -51.621 -17.287 -13.123  1.00  0.00    -0.307 OA
HETATM   20  C2  UNL     1     -52.726 -17.033 -13.780  1.00  0.00     0.145 A 
HETATM   21  C3  UNL     1     -53.152 -15.789 -13.361  1.00  0.00     0.049 A 
ENDBRANCH  15  16
ENDBRANCH   1  14
BRANCH   1  22
HETATM   22  O2  UNL     1     -52.120 -10.653 -11.319  1.00  0.00    -0.354 OA
ATOM     23  H2  UNL     1     -51.190 -10.478 -11.405  1.00  0.00     0.214 HD
ENDBRANCH   1  22
TORSDOF 3
ENDMDL
MODEL 3
REMARK VINA RESULT: -8.542697049      1.642      1.792
REMARK  3 active torsions:
REMARK  status: ('A' for Active; 'I' for Inactive)
REMARK    1  A    between atoms: C4_6  and  C5_7 
REMARK    2  A    between atoms: C6_8  and  C7_9 
REMARK    3  A    between atoms: C7_9  and  O2_10 
ROOT
HETATM    1  C7  UNL     1     -53.249 -11.681 -10.492  1.00  0.00     0.261 C 
HETATM    2  C8  UNL     1     -54.423 -11.345  -9.625  1.00  0.00     0.091 C 
HETATM    3  C9  UNL     1     -54.097 -10.254  -8.648  1.00  0.00     0.078 C 
HETATM    4  C10 UNL     1     -52.640 -10.149  -8.320  1.00  0.00     0.258 C 
HETATM    5  C11 UNL     1     -52.264 -11.014  -7.147  1.00  0.00     0.072 C 
HETATM    6  C12 UNL     1     -52.009 -10.246  -5.891  1.00  0.00     0.007 C 
HETATM    7  C13 UNL     1     -52.952  -9.094  -5.679  1.00  0.00     0.028 C 
HETATM    8  C14 UNL     1     -53.213  -8.324  -6.954  1.00  0.00     0.236 C 
HETATM    9  N2  UNL     1     -52.300  -8.759  -7.975  1.00  0.00    -0.040 N 
ATOM     10  H21 UNL     1     -52.289  -8.141  -8.786  1.00  0.00     0.280 HD
ATOM     11  H22 UNL     1     -51.323  -8.646  -7.706  1.00  0.00     0.280 HD
HETATM   12  O3  UNL     1     -51.812 -10.484  -9.390  1.00  0.00    -0.196 OA
HETATM   13  O4  UNL     1     -52.084 -11.738  -9.700  1.00  0.00    -0.184 OA
ENDROOT
BRANCH   1  14
HETATM   14  C6  UNL     1     -53.425 -12.917 -11.213  1.00  0.00    -0.030 C 
HETATM   15  C5  UNL     1     -53.593 -13.947 -11.820  1.00  0.00    -0.057 C 
BRANCH  15  16
HETATM   16  C4  UNL     1     -53.812 -15.161 -12.553  1.00  0.00     0.068 A 
HETATM   17  C1  UNL     1     -54.947 -15.942 -12.548  1.00  0.00     0.175 A 
HETATM   18  N1  UNL     1     -56.105 -15.636 -11.780  1.00  0.00    -0.073 NA
HETATM   19  O1  UNL     1     -54.762 -16.969 -13.347  1.00  0.00    -0.307 OA
HETATM   20  C2  UNL     1     -53.574 -16.944 -13.900  1.00  0.00     0.145 A 
HETATM   21  C3  UNL     1     -52.944 -15.813 -13.422  1.00  0.00     0.049 A 
ENDBRANCH  15  16
ENDBRANCH   1  14
BRANCH   1  22
HETATM   22  O2  UNL     1     -53.047 -10.585 -11.359  1.00  0.00    -0.354 OA
ATOM     23  H2  UNL     1     -52.353 -10.012 -11.054  1.00  0.00     0.214 HD
ENDBRANCH   1  22
TORSDOF 3
ENDMDL
MODEL 4
REMARK VINA RESULT: -8.373787973      1.480      1.657
REMARK  3 active torsions:
REMARK  status: ('A' for Active; 'I' for Inactive)
REMARK    1  A    between atoms: C4_6  and  C5_7 
REMARK    2  A    between atoms: C6_8  and  C7_9 
REMARK    3  A    between atoms: C7_9  and  O2_10 
ROOT
HETATM    1  C7  UNL     1     -51.918 -12.710 -10.298  1.00  0.00     0.261 C 
HETATM    2  C8  UNL     1     -53.294 -12.339  -9.837  1.00  0.00     0.091 C 
HETATM    3  C9  UNL     1     -53.292 -11.057  -9.060  1.00  0.00     0.078 C 
HETATM    4  C10 UNL     1     -51.979 -10.742  -8.412  1.00  0.00     0.258 C 
HETATM    5  C11 UNL     1     -51.880 -11.327  -7.029  1.00  0.00     0.072 C 
HETATM    6  C12 UNL     1     -52.002 -10.313  -5.938  1.00  0.00     0.007 C 
HETATM    7  C13 UNL     1     -53.025  -9.246  -6.210  1.00  0.00     0.028 C 
HETATM    8  C14 UNL     1     -52.982  -8.761  -7.641  1.00  0.00     0.236 C 
HETATM    9  N2  UNL     1     -51.813  -9.284  -8.292  1.00  0.00    -0.040 N 
ATOM     10  H21 UNL     1     -51.622  -8.832  -9.186  1.00  0.00     0.280 HD
ATOM     11  H22 UNL     1     -50.947  -9.023  -7.820  1.00  0.00     0.280 HD
HETATM   12  O3  UNL     1     -50.883 -11.185  -9.151  1.00  0.00    -0.196 OA
HETATM   13  O4  UNL     1     -51.000 -12.497  -9.249  1.00  0.00    -0.184 OA
ENDROOT
BRANCH   1  14
HETATM   14  C6  UNL     1     -51.835 -14.071 -10.766  1.00  0.00    -0.030 C 
HETATM   15  C5  UNL     1     -51.780 -15.217 -11.142  1.00  0.00    -0.057 C 
BRANCH  15  16
HETATM   16  C4  UNL     1     -51.736 -16.583 -11.579  1.00  0.00     0.068 A 
HETATM   17  C1  UNL     1     -50.738 -17.191 -12.310  1.00  0.00     0.175 A 
HETATM   18  N1  UNL     1     -49.565 -16.515 -12.748  1.00  0.00    -0.073 NA
HETATM   19  O1  UNL     1     -51.063 -18.447 -12.513  1.00  0.00    -0.307 OA
HETATM   20  C2  UNL     1     -52.218 -18.743 -11.969  1.00  0.00     0.145 A 
HETATM   21  C3  UNL     1     -52.674 -17.588 -11.369  1.00  0.00     0.049 A 
ENDBRANCH  15  16
ENDBRANCH   1  14
BRANCH   1  22
HETATM   22  O2  UNL     1     -51.552 -11.782 -11.297  1.00  0.00    -0.354 OA
ATOM     23  H2  UNL     1     -50.908 -12.139 -11.898  1.00  0.00     0.214 HD
ENDBRANCH   1  22
TORSDOF 3
ENDMDL
MODEL 5
REMARK VINA RESULT: -8.120059414      2.172      2.630
REMARK  3 active torsions:
REMARK  status: ('A' for Active; 'I' for Inactive)
REMARK    1  A    between atoms: C4_6  and  C5_7 
REMARK    2  A    between atoms: C6_8  and  C7_9 
REMARK    3  A    between atoms: C7_9  and  O2_10 
ROOT
HETATM    1  C7  UNL     1     -53.864 -12.261 -10.605  1.00  0.00     0.261 C 
HETATM    2  C8  UNL     1     -54.889 -11.699  -9.667  1.00  0.00     0.091 C 
HETATM    3  C9  UNL     1     -54.326 -10.590  -8.830  1.00  0.00     0.078 C 
HETATM    4  C10 UNL     1     -52.841 -10.659  -8.650  1.00  0.00     0.258 C 
HETATM    5  C11 UNL     1     -52.458 -11.471  -7.442  1.00  0.00     0.072 C 
HETATM    6  C12 UNL     1     -51.977 -10.648  -6.292  1.00  0.00     0.007 C 
HETATM    7  C13 UNL     1     -52.737  -9.364  -6.101  1.00  0.00     0.028 C 
HETATM    8  C14 UNL     1     -53.030  -8.670  -7.411  1.00  0.00     0.236 C 
HETATM    9  N2  UNL     1     -52.292  -9.306  -8.468  1.00  0.00    -0.040 N 
ATOM     10  H21 UNL     1     -52.287  -8.761  -9.330  1.00  0.00     0.280 HD
ATOM     11  H22 UNL     1     -51.285  -9.306  -8.303  1.00  0.00     0.280 HD
HETATM   12  O3  UNL     1     -52.178 -11.187  -9.757  1.00  0.00    -0.196 OA
HETATM   13  O4  UNL     1     -52.640 -12.414  -9.922  1.00  0.00    -0.184 OA
ENDROOT
BRANCH   1  14
HETATM   14  C6  UNL     1     -54.272 -13.515 -11.189  1.00  0.00    -0.030 C 
HETATM   15  C5  UNL     1     -54.627 -14.566 -11.662  1.00  0.00    -0.057 C 
BRANCH  15  16
HETATM   16  C4  UNL     1     -55.074 -15.812 -12.216  1.00  0.00     0.068 A 
HETATM   17  C1  UNL     1     -54.439 -16.570 -13.177  1.00  0.00     0.175 A 
HETATM   18  N1  UNL     1     -53.201 -16.202 -13.773  1.00  0.00    -0.073 NA
HETATM   19  O1  UNL     1     -55.160 -17.640 -13.421  1.00  0.00    -0.307 OA
HETATM   20  C2  UNL     1     -56.249 -17.668 -12.691  1.00  0.00     0.145 A 
HETATM   21  C3  UNL     1     -56.228 -16.527 -11.916  1.00  0.00     0.049 A 
ENDBRANCH  15  16
ENDBRANCH   1  14
BRANCH   1  22
HETATM   22  O2  UNL     1     -53.615 -11.275 -11.584  1.00  0.00    -0.354 OA
ATOM     23  H2  UNL     1     -54.370 -10.717 -11.729  1.00  0.00     0.214 HD
ENDBRANCH   1  22
TORSDOF 3
ENDMDL
