MODEL 1
REMARK VINA RESULT: -8.545710150      0.000      0.000
REMARK  15 active torsions:
REMARK  status: ('A' for Active; 'I' for Inactive)
REMARK    1  A    between atoms: C2_2  and  C4_4 
REMARK    2  A    between atoms: C4_4  and  C5_5 
REMARK    3  A    between atoms: C5_5  and  C6_6 
REMARK    4  A    between atoms: C5_5  and  C10_16 
REMARK    5  A    between atoms: C6_6  and  N1_7 
REMARK    6  A    between atoms: N1_7  and  C7_9 
REMARK    7  A    between atoms: C10_16  and  N3_17 
REMARK    8  A    between atoms: N3_17  and  C11_20 
REMARK    9  A    between atoms: C11_20  and  O2_21 
REMARK   10  A    between atoms: C11_20  and  C12_23 
REMARK   11  A    between atoms: C12_23  and  O3_24 
REMARK   12  A    between atoms: C12_23  and  C13_26 
REMARK   13  A    between atoms: C13_26  and  N4_27 
REMARK   14  A    between atoms: C13_26  and  C14_31 
REMARK   15  A    between atoms: C14_31  and  C15_32 
ROOT
HETATM    1  N3  UNL     1      28.082 -14.633  11.823  1.00  0.00    -0.046 N 
ATOM      2  H31 UNL     1      27.182 -14.487  12.280  1.00  0.00     0.280 HD
ATOM      3  H32 UNL     1      28.379 -13.658  11.801  1.00  0.00     0.280 HD
ENDROOT
BRANCH   1   4
HETATM    4  C10 UNL     1      27.957 -15.222  10.493  1.00  0.00     0.241 C 
BRANCH   4   5
HETATM    5  C5  UNL     1      28.433 -14.263   9.400  1.00  0.00     0.029 C 
BRANCH   5   6
HETATM    6  C4  UNL     1      29.877 -14.391   9.137  1.00  0.00     0.011 C 
BRANCH   6   7
HETATM    7  C2  UNL     1      30.726 -13.178   9.200  1.00  0.00    -0.022 C 
HETATM    8  C1  UNL     1      30.179 -11.976   8.468  1.00  0.00     0.009 C 
HETATM    9  C3  UNL     1      30.919 -12.817  10.682  1.00  0.00     0.009 C 
ENDBRANCH   6   7
ENDBRANCH   5   6
BRANCH   5  10
HETATM   10  C6  UNL     1      27.478 -14.392   8.280  1.00  0.00     0.124 C 
BRANCH  10  11
HETATM   11  N1  UNL     1      26.104 -14.561   8.607  1.00  0.00    -0.374 N 
ATOM     12  H1  UNL     1      25.796 -14.788   9.552  1.00  0.00     0.157 HD
BRANCH  11  13
HETATM   13  C7  UNL     1      25.186 -14.395   7.531  1.00  0.00     0.424 C 
HETATM   14  N2  UNL     1      23.874 -13.859   7.959  1.00  0.00    -0.029 N 
HETATM   15  C8  UNL     1      23.106 -14.035   6.707  1.00  0.00     0.263 C 
ATOM     16  H22 UNL     1      23.469 -14.284   8.792  1.00  0.00     0.282 HD
ATOM     17  H21 UNL     1      23.884 -12.915   8.346  1.00  0.00     0.282 HD
HETATM   18  C9  UNL     1      23.833 -15.166   6.020  1.00  0.00     0.200 C 
HETATM   19  O1  UNL     1      24.725 -15.613   6.991  1.00  0.00    -0.343 OA
ENDBRANCH  11  13
ENDBRANCH  10  11
ENDBRANCH   5  10
ENDBRANCH   4   5
ENDBRANCH   1   4
BRANCH   1  20
HETATM   20  C11 UNL     1      28.970 -15.474  12.587  1.00  0.00     0.349 C 
BRANCH  20  21
HETATM   21  O2  UNL     1      29.502 -14.680  13.629  1.00  0.00    -0.368 OA
ATOM     22  H2  UNL     1      30.093 -15.232  14.128  1.00  0.00     0.212 HD
ENDBRANCH  20  21
BRANCH  20  23
HETATM   23  C12 UNL     1      28.332 -16.659  13.248  1.00  0.00     0.204 C 
BRANCH  23  24
HETATM   24  O3  UNL     1      28.185 -16.286  14.636  1.00  0.00    -0.389 OA
ATOM     25  H3  UNL     1      29.052 -16.015  14.915  1.00  0.00     0.210 HD
ENDBRANCH  23  24
BRANCH  23  26
HETATM   26  C13 UNL     1      29.225 -17.878  13.348  1.00  0.00     0.216 C 
BRANCH  26  27
HETATM   27  N4  UNL     1      30.559 -17.419  12.844  1.00  0.00    -0.072 N 
ATOM     28  H43 UNL     1      30.770 -17.722  11.893  1.00  0.00     0.274 HD
ATOM     29  H42 UNL     1      30.611 -16.417  12.660  1.00  0.00     0.274 HD
ATOM     30  H41 UNL     1      31.229 -17.747  13.541  1.00  0.00     0.274 HD
ENDBRANCH  26  27
BRANCH  26  31
HETATM   31  C14 UNL     1      29.500 -18.343  14.736  1.00  0.00     0.040 C 
BRANCH  31  32
HETATM   32  C15 UNL     1      29.001 -19.753  14.973  1.00  0.00    -0.013 C 
HETATM   33  C16 UNL     1      28.769 -20.402  13.615  1.00  0.00     0.005 C 
HETATM   34  C17 UNL     1      28.339 -21.848  13.823  1.00  0.00     0.000 C 
HETATM   35  C18 UNL     1      27.982 -22.105  15.283  1.00  0.00     0.000 C 
HETATM   36  C19 UNL     1      29.127 -21.817  16.220  1.00  0.00     0.000 C 
HETATM   37  C20 UNL     1      29.964 -20.635  15.700  1.00  0.00     0.005 C 
ENDBRANCH  31  32
ENDBRANCH  26  31
ENDBRANCH  23  26
ENDBRANCH  20  23
ENDBRANCH   1  20
TORSDOF 15
ENDMDL
MODEL 2
REMARK VINA RESULT: -8.438892054      0.614      1.316
REMARK  15 active torsions:
REMARK  status: ('A' for Active; 'I' for Inactive)
REMARK    1  A    between atoms: C2_2  and  C4_4 
REMARK    2  A    between atoms: C4_4  and  C5_5 
REMARK    3  A    between atoms: C5_5  and  C6_6 
REMARK    4  A    between atoms: C5_5  and  C10_16 
REMARK    5  A    between atoms: C6_6  and  N1_7 
REMARK    6  A    between atoms: N1_7  and  C7_9 
REMARK    7  A    between atoms: C10_16  and  N3_17 
REMARK    8  A    between atoms: N3_17  and  C11_20 
REMARK    9  A    between atoms: C11_20  and  O2_21 
REMARK   10  A    between atoms: C11_20  and  C12_23 
REMARK   11  A    between atoms: C12_23  and  O3_24 
REMARK   12  A    between atoms: C12_23  and  C13_26 
REMARK   13  A    between atoms: C13_26  and  N4_27 
REMARK   14  A    between atoms: C13_26  and  C14_31 
REMARK   15  A    between atoms: C14_31  and  C15_32 
ROOT
HETATM    1  N3  UNL     1      27.870 -14.503  12.095  1.00  0.00    -0.046 N 
ATOM      2  H31 UNL     1      27.070 -14.355  12.710  1.00  0.00     0.280 HD
ATOM      3  H32 UNL     1      28.157 -13.528  12.012  1.00  0.00     0.280 HD
ENDROOT
BRANCH   1   4
HETATM    4  C10 UNL     1      27.502 -15.101  10.814  1.00  0.00     0.241 C 
BRANCH   4   5
HETATM    5  C5  UNL     1      27.722 -14.131   9.652  1.00  0.00     0.029 C 
BRANCH   5   6
HETATM    6  C4  UNL     1      29.152 -13.913   9.372  1.00  0.00     0.011 C 
BRANCH   6   7
HETATM    7  C2  UNL     1      29.757 -12.603   9.711  1.00  0.00    -0.022 C 
HETATM    8  C1  UNL     1      30.915 -12.665  10.677  1.00  0.00     0.009 C 
HETATM    9  C3  UNL     1      30.231 -11.953   8.400  1.00  0.00     0.009 C 
ENDBRANCH   6   7
ENDBRANCH   5   6
BRANCH   5  10
HETATM   10  C6  UNL     1      26.829 -14.571   8.560  1.00  0.00     0.124 C 
BRANCH  10  11
HETATM   11  N1  UNL     1      25.488 -14.098   8.579  1.00  0.00    -0.374 N 
ATOM     12  H1  UNL     1      25.062 -13.713   9.422  1.00  0.00     0.157 HD
BRANCH  11  13
HETATM   13  C7  UNL     1      24.777 -14.196   7.348  1.00  0.00     0.424 C 
HETATM   14  N2  UNL     1      23.363 -13.771   7.454  1.00  0.00    -0.029 N 
HETATM   15  C8  UNL     1      22.866 -14.211   6.131  1.00  0.00     0.263 C 
ATOM     16  H22 UNL     1      22.851 -14.125   8.261  1.00  0.00     0.282 HD
ATOM     17  H21 UNL     1      23.210 -12.790   7.683  1.00  0.00     0.282 HD
HETATM   18  C9  UNL     1      23.816 -15.328   5.768  1.00  0.00     0.200 C 
HETATM   19  O1  UNL     1      24.547 -15.524   6.936  1.00  0.00    -0.343 OA
ENDBRANCH  11  13
ENDBRANCH  10  11
ENDBRANCH   5  10
ENDBRANCH   4   5
ENDBRANCH   1   4
BRANCH   1  20
HETATM   20  C11 UNL     1      28.886 -15.339  12.685  1.00  0.00     0.349 C 
BRANCH  20  21
HETATM   21  O2  UNL     1      29.542 -14.566  13.670  1.00  0.00    -0.368 OA
ATOM     22  H2  UNL     1      29.976 -15.172  14.259  1.00  0.00     0.212 HD
ENDBRANCH  20  21
BRANCH  20  23
HETATM   23  C12 UNL     1      28.389 -16.570  13.382  1.00  0.00     0.204 C 
BRANCH  23  24
HETATM   24  O3  UNL     1      28.637 -16.337  14.786  1.00  0.00    -0.389 OA
ATOM     25  H3  UNL     1      29.352 -16.920  15.013  1.00  0.00     0.210 HD
ENDBRANCH  23  24
BRANCH  23  26
HETATM   26  C13 UNL     1      29.212 -17.814  13.124  1.00  0.00     0.216 C 
BRANCH  26  27
HETATM   27  N4  UNL     1      30.378 -17.341  12.309  1.00  0.00    -0.072 N 
ATOM     28  H43 UNL     1      30.117 -16.935  11.410  1.00  0.00     0.274 HD
ATOM     29  H42 UNL     1      30.835 -16.510  12.684  1.00  0.00     0.274 HD
ATOM     30  H41 UNL     1      30.991 -18.153  12.235  1.00  0.00     0.274 HD
ENDBRANCH  26  27
BRANCH  26  31
HETATM   31  C14 UNL     1      29.835 -18.418  14.335  1.00  0.00     0.040 C 
BRANCH  31  32
HETATM   32  C15 UNL     1      29.544 -19.900  14.446  1.00  0.00    -0.013 C 
HETATM   33  C16 UNL     1      29.389 -20.237  15.923  1.00  0.00     0.005 C 
HETATM   34  C17 UNL     1      29.019 -21.708  16.060  1.00  0.00     0.000 C 
HETATM   35  C18 UNL     1      29.216 -22.444  14.738  1.00  0.00     0.000 C 
HETATM   36  C19 UNL     1      28.395 -21.856  13.619  1.00  0.00     0.000 C 
HETATM   37  C20 UNL     1      28.275 -20.331  13.783  1.00  0.00     0.005 C 
ENDBRANCH  31  32
ENDBRANCH  26  31
ENDBRANCH  23  26
ENDBRANCH  20  23
ENDBRANCH   1  20
TORSDOF 15
ENDMDL
MODEL 3
REMARK VINA RESULT: -8.382124477      2.611      8.114
REMARK  15 active torsions:
REMARK  status: ('A' for Active; 'I' for Inactive)
REMARK    1  A    between atoms: C2_2  and  C4_4 
REMARK    2  A    between atoms: C4_4  and  C5_5 
REMARK    3  A    between atoms: C5_5  and  C6_6 
REMARK    4  A    between atoms: C5_5  and  C10_16 
REMARK    5  A    between atoms: C6_6  and  N1_7 
REMARK    6  A    between atoms: N1_7  and  C7_9 
REMARK    7  A    between atoms: C10_16  and  N3_17 
REMARK    8  A    between atoms: N3_17  and  C11_20 
REMARK    9  A    between atoms: C11_20  and  O2_21 
REMARK   10  A    between atoms: C11_20  and  C12_23 
REMARK   11  A    between atoms: C12_23  and  O3_24 
REMARK   12  A    between atoms: C12_23  and  C13_26 
REMARK   13  A    between atoms: C13_26  and  N4_27 
REMARK   14  A    between atoms: C13_26  and  C14_31 
REMARK   15  A    between atoms: C14_31  and  C15_32 
ROOT
HETATM    1  N3  UNL     1      29.864 -15.582  11.347  1.00  0.00    -0.046 N 
ATOM      2  H31 UNL     1      29.037 -16.064  10.995  1.00  0.00     0.280 HD
ATOM      3  H32 UNL     1      30.563 -16.165  10.886  1.00  0.00     0.280 HD
ENDROOT
BRANCH   1   4
HETATM    4  C10 UNL     1      29.964 -15.613  12.804  1.00  0.00     0.241 C 
BRANCH   4   5
HETATM    5  C5  UNL     1      28.877 -16.488  13.429  1.00  0.00     0.029 C 
BRANCH   5   6
HETATM    6  C4  UNL     1      29.418 -17.402  14.451  1.00  0.00     0.011 C 
BRANCH   6   7
HETATM    7  C2  UNL     1      29.573 -18.838  14.116  1.00  0.00    -0.022 C 
HETATM    8  C1  UNL     1      29.365 -19.789  15.271  1.00  0.00     0.009 C 
HETATM    9  C3  UNL     1      28.564 -19.171  13.004  1.00  0.00     0.009 C 
ENDBRANCH   6   7
ENDBRANCH   5   6
BRANCH   5  10
HETATM   10  C6  UNL     1      27.760 -15.587  13.781  1.00  0.00     0.124 C 
BRANCH  10  11
HETATM   11  N1  UNL     1      26.498 -15.840  13.178  1.00  0.00    -0.374 N 
ATOM     12  H1  UNL     1      25.908 -16.621  13.465  1.00  0.00     0.157 HD
BRANCH  11  13
HETATM   13  C7  UNL     1      26.110 -14.936  12.148  1.00  0.00     0.424 C 
HETATM   14  N2  UNL     1      26.518 -15.379  10.796  1.00  0.00    -0.029 N 
HETATM   15  C8  UNL     1      26.202 -14.158  10.022  1.00  0.00     0.263 C 
ATOM     16  H22 UNL     1      27.473 -15.725  10.710  1.00  0.00     0.282 HD
ATOM     17  H21 UNL     1      26.089 -16.241  10.462  1.00  0.00     0.282 HD
HETATM   18  C9  UNL     1      26.288 -13.067  11.063  1.00  0.00     0.200 C 
HETATM   19  O1  UNL     1      26.819 -13.718  12.171  1.00  0.00    -0.343 OA
ENDBRANCH  11  13
ENDBRANCH  10  11
ENDBRANCH   5  10
ENDBRANCH   4   5
ENDBRANCH   1   4
BRANCH   1  20
HETATM   20  C11 UNL     1      29.926 -14.201  10.938  1.00  0.00     0.349 C 
BRANCH  20  21
HETATM   21  O2  UNL     1      30.904 -13.572  11.742  1.00  0.00    -0.368 OA
ATOM     22  H2  UNL     1      31.114 -12.742  11.331  1.00  0.00     0.212 HD
ENDBRANCH  20  21
BRANCH  20  23
HETATM   23  C12 UNL     1      30.339 -13.964   9.516  1.00  0.00     0.204 C 
BRANCH  23  24
HETATM   24  O3  UNL     1      31.732 -13.587   9.583  1.00  0.00    -0.389 OA
ATOM     25  H3  UNL     1      32.053 -13.660   8.692  1.00  0.00     0.210 HD
ENDBRANCH  23  24
BRANCH  23  26
HETATM   26  C13 UNL     1      29.717 -12.740   8.878  1.00  0.00     0.216 C 
BRANCH  26  27
HETATM   27  N4  UNL     1      29.412 -11.822  10.023  1.00  0.00    -0.072 N 
ATOM     28  H43 UNL     1      28.979 -10.941   9.745  1.00  0.00     0.274 HD
ATOM     29  H42 UNL     1      28.650 -12.143  10.620  1.00  0.00     0.274 HD
ATOM     30  H41 UNL     1      30.301 -11.709  10.512  1.00  0.00     0.274 HD
ENDBRANCH  26  27
BRANCH  26  31
HETATM   31  C14 UNL     1      30.635 -11.947   8.011  1.00  0.00     0.040 C 
BRANCH  31  32
HETATM   32  C15 UNL     1      30.566 -12.382   6.563  1.00  0.00    -0.013 C 
HETATM   33  C16 UNL     1      30.495 -11.127   5.701  1.00  0.00     0.005 C 
HETATM   34  C17 UNL     1      30.501 -11.533   4.234  1.00  0.00     0.000 C 
HETATM   35  C18 UNL     1      30.270 -13.033   4.082  1.00  0.00     0.000 C 
HETATM   36  C19 UNL     1      31.309 -13.856   4.800  1.00  0.00     0.000 C 
HETATM   37  C20 UNL     1      31.759 -13.147   6.089  1.00  0.00     0.005 C 
ENDBRANCH  31  32
ENDBRANCH  26  31
ENDBRANCH  23  26
ENDBRANCH  20  23
ENDBRANCH   1  20
TORSDOF 15
ENDMDL
MODEL 4
REMARK VINA RESULT: -8.381603249      1.180      1.705
REMARK  15 active torsions:
REMARK  status: ('A' for Active; 'I' for Inactive)
REMARK    1  A    between atoms: C2_2  and  C4_4 
REMARK    2  A    between atoms: C4_4  and  C5_5 
REMARK    3  A    between atoms: C5_5  and  C6_6 
REMARK    4  A    between atoms: C5_5  and  C10_16 
REMARK    5  A    between atoms: C6_6  and  N1_7 
REMARK    6  A    between atoms: N1_7  and  C7_9 
REMARK    7  A    between atoms: C10_16  and  N3_17 
REMARK    8  A    between atoms: N3_17  and  C11_20 
REMARK    9  A    between atoms: C11_20  and  O2_21 
REMARK   10  A    between atoms: C11_20  and  C12_23 
REMARK   11  A    between atoms: C12_23  and  O3_24 
REMARK   12  A    between atoms: C12_23  and  C13_26 
REMARK   13  A    between atoms: C13_26  and  N4_27 
REMARK   14  A    between atoms: C13_26  and  C14_31 
REMARK   15  A    between atoms: C14_31  and  C15_32 
ROOT
HETATM    1  N3  UNL     1      28.699 -15.994  11.439  1.00  0.00    -0.046 N 
ATOM      2  H31 UNL     1      28.214 -15.711  12.291  1.00  0.00     0.280 HD
ATOM      3  H32 UNL     1      29.476 -15.337  11.503  1.00  0.00     0.280 HD
ENDROOT
BRANCH   1   4
HETATM    4  C10 UNL     1      27.892 -15.809  10.236  1.00  0.00     0.241 C 
BRANCH   4   5
HETATM    5  C5  UNL     1      28.103 -14.424   9.619  1.00  0.00     0.029 C 
BRANCH   5   6
HETATM    6  C4  UNL     1      29.530 -14.077   9.506  1.00  0.00     0.011 C 
BRANCH   6   7
HETATM    7  C2  UNL     1      29.960 -12.699   9.844  1.00  0.00    -0.022 C 
HETATM    8  C1  UNL     1      31.135 -12.610  10.789  1.00  0.00     0.009 C 
HETATM    9  C3  UNL     1      30.318 -11.985   8.530  1.00  0.00     0.009 C 
ENDBRANCH   6   7
ENDBRANCH   5   6
BRANCH   5  10
HETATM   10  C6  UNL     1      27.245 -14.363   8.418  1.00  0.00     0.124 C 
BRANCH  10  11
HETATM   11  N1  UNL     1      25.839 -14.290   8.619  1.00  0.00    -0.374 N 
ATOM     12  H1  UNL     1      25.428 -14.232   9.551  1.00  0.00     0.157 HD
BRANCH  11  13
HETATM   13  C7  UNL     1      25.041 -14.304   7.440  1.00  0.00     0.424 C 
HETATM   14  N2  UNL     1      23.682 -13.753   7.645  1.00  0.00    -0.029 N 
HETATM   15  C8  UNL     1      23.059 -14.126   6.356  1.00  0.00     0.263 C 
ATOM     16  H22 UNL     1      23.195 -14.070   8.483  1.00  0.00     0.282 HD
ATOM     17  H21 UNL     1      23.636 -12.765   7.893  1.00  0.00     0.282 HD
HETATM   18  C9  UNL     1      23.874 -15.320   5.919  1.00  0.00     0.200 C 
HETATM   19  O1  UNL     1      24.661 -15.598   7.032  1.00  0.00    -0.343 OA
ENDBRANCH  11  13
ENDBRANCH  10  11
ENDBRANCH   5  10
ENDBRANCH   4   5
ENDBRANCH   1   4
BRANCH   1  20
HETATM   20  C11 UNL     1      29.125 -17.371  11.465  1.00  0.00     0.349 C 
BRANCH  20  21
HETATM   21  O2  UNL     1      30.536 -17.370  11.547  1.00  0.00    -0.368 OA
ATOM     22  H2  UNL     1      30.866 -17.142  10.686  1.00  0.00     0.212 HD
ENDBRANCH  20  21
BRANCH  20  23
HETATM   23  C12 UNL     1      28.640 -18.178  12.632  1.00  0.00     0.204 C 
BRANCH  23  24
HETATM   24  O3  UNL     1      27.626 -17.363  13.262  1.00  0.00    -0.389 OA
ATOM     25  H3  UNL     1      26.823 -17.866  13.191  1.00  0.00     0.210 HD
ENDBRANCH  23  24
BRANCH  23  26
HETATM   26  C13 UNL     1      29.649 -18.335  13.750  1.00  0.00     0.216 C 
BRANCH  26  27
HETATM   27  N4  UNL     1      29.898 -16.941  14.241  1.00  0.00    -0.072 N 
ATOM     28  H43 UNL     1      29.710 -16.218  13.547  1.00  0.00     0.274 HD
ATOM     29  H42 UNL     1      29.221 -16.618  14.932  1.00  0.00     0.274 HD
ATOM     30  H41 UNL     1      30.861 -16.951  14.578  1.00  0.00     0.274 HD
ENDBRANCH  26  27
BRANCH  26  31
HETATM   31  C14 UNL     1      29.148 -19.060  14.952  1.00  0.00     0.040 C 
BRANCH  31  32
HETATM   32  C15 UNL     1      29.314 -20.559  14.822  1.00  0.00    -0.013 C 
HETATM   33  C16 UNL     1      29.472 -21.136  16.223  1.00  0.00     0.005 C 
HETATM   34  C17 UNL     1      29.565 -22.653  16.127  1.00  0.00     0.000 C 
HETATM   35  C18 UNL     1      29.776 -23.096  14.683  1.00  0.00     0.000 C 
HETATM   36  C19 UNL     1      28.672 -22.635  13.767  1.00  0.00     0.000 C 
HETATM   37  C20 UNL     1      28.143 -21.260  14.211  1.00  0.00     0.005 C 
ENDBRANCH  31  32
ENDBRANCH  26  31
ENDBRANCH  23  26
ENDBRANCH  20  23
ENDBRANCH   1  20
TORSDOF 15
ENDMDL
MODEL 5
REMARK VINA RESULT: -8.219054581      2.250      2.685
REMARK  15 active torsions:
REMARK  status: ('A' for Active; 'I' for Inactive)
REMARK    1  A    between atoms: C2_2  and  C4_4 
REMARK    2  A    between atoms: C4_4  and  C5_5 
REMARK    3  A    between atoms: C5_5  and  C6_6 
REMARK    4  A    between atoms: C5_5  and  C10_16 
REMARK    5  A    between atoms: C6_6  and  N1_7 
REMARK    6  A    between atoms: N1_7  and  C7_9 
REMARK    7  A    between atoms: C10_16  and  N3_17 
REMARK    8  A    between atoms: N3_17  and  C11_20 
REMARK    9  A    between atoms: C11_20  and  O2_21 
REMARK   10  A    between atoms: C11_20  and  C12_23 
REMARK   11  A    between atoms: C12_23  and  O3_24 
REMARK   12  A    between atoms: C12_23  and  C13_26 
REMARK   13  A    between atoms: C13_26  and  N4_27 
REMARK   14  A    between atoms: C13_26  and  C14_31 
REMARK   15  A    between atoms: C14_31  and  C15_32 
ROOT
HETATM    1  N3  UNL     1      28.538 -16.616  11.232  1.00  0.00    -0.046 N 
ATOM      2  H31 UNL     1      28.295 -16.636  10.242  1.00  0.00     0.280 HD
ATOM      3  H32 UNL     1      27.588 -16.570  11.601  1.00  0.00     0.280 HD
ENDROOT
BRANCH   1   4
HETATM    4  C10 UNL     1      29.349 -15.457  11.597  1.00  0.00     0.241 C 
BRANCH   4   5
HETATM    5  C5  UNL     1      29.127 -14.286  10.638  1.00  0.00     0.029 C 
BRANCH   5   6
HETATM    6  C4  UNL     1      30.088 -14.291   9.521  1.00  0.00     0.011 C 
BRANCH   6   7
HETATM    7  C2  UNL     1      30.892 -13.072   9.263  1.00  0.00    -0.022 C 
HETATM    8  C1  UNL     1      30.228 -12.044   8.379  1.00  0.00     0.009 C 
HETATM    9  C3  UNL     1      31.218 -12.430  10.622  1.00  0.00     0.009 C 
ENDBRANCH   6   7
ENDBRANCH   5   6
BRANCH   5  10
HETATM   10  C6  UNL     1      27.678 -14.247  10.347  1.00  0.00     0.124 C 
BRANCH  10  11
HETATM   11  N1  UNL     1      26.968 -13.070  10.711  1.00  0.00    -0.374 N 
ATOM     12  H1  UNL     1      27.403 -12.148  10.693  1.00  0.00     0.157 HD
BRANCH  11  13
HETATM   13  C7  UNL     1      25.612 -13.260  11.103  1.00  0.00     0.424 C 
HETATM   14  N2  UNL     1      24.767 -13.830  10.030  1.00  0.00    -0.029 N 
HETATM   15  C8  UNL     1      23.432 -13.674  10.647  1.00  0.00     0.263 C 
ATOM     16  H22 UNL     1      24.881 -13.415   9.105  1.00  0.00     0.282 HD
ATOM     17  H21 UNL     1      25.010 -14.773   9.726  1.00  0.00     0.282 HD
HETATM   18  C9  UNL     1      23.634 -12.524  11.604  1.00  0.00     0.200 C 
HETATM   19  O1  UNL     1      24.904 -12.055  11.282  1.00  0.00    -0.343 OA
ENDBRANCH  11  13
ENDBRANCH  10  11
ENDBRANCH   5  10
ENDBRANCH   4   5
ENDBRANCH   1   4
BRANCH   1  20
HETATM   20  C11 UNL     1      29.251 -17.794  11.661  1.00  0.00     0.349 C 
BRANCH  20  21
HETATM   21  O2  UNL     1      30.552 -17.383  12.029  1.00  0.00    -0.368 OA
ATOM     22  H2  UNL     1      31.141 -17.664  11.338  1.00  0.00     0.212 HD
ENDBRANCH  20  21
BRANCH  20  23
HETATM   23  C12 UNL     1      28.681 -18.497  12.856  1.00  0.00     0.204 C 
BRANCH  23  24
HETATM   24  O3  UNL     1      27.556 -17.691  13.270  1.00  0.00    -0.389 OA
ATOM     25  H3  UNL     1      27.197 -17.333  12.467  1.00  0.00     0.210 HD
ENDBRANCH  23  24
BRANCH  23  26
HETATM   26  C13 UNL     1      29.561 -18.457  14.087  1.00  0.00     0.216 C 
BRANCH  26  27
HETATM   27  N4  UNL     1      29.423 -17.059  14.612  1.00  0.00    -0.072 N 
ATOM     28  H43 UNL     1      28.930 -16.427  13.982  1.00  0.00     0.274 HD
ATOM     29  H42 UNL     1      28.775 -16.973  15.395  1.00  0.00     0.274 HD
ATOM     30  H41 UNL     1      30.376 -16.767  14.830  1.00  0.00     0.274 HD
ENDBRANCH  26  27
BRANCH  26  31
HETATM   31  C14 UNL     1      29.104 -19.316  15.216  1.00  0.00     0.040 C 
BRANCH  31  32
HETATM   32  C15 UNL     1      29.273 -20.790  14.913  1.00  0.00    -0.013 C 
HETATM   33  C16 UNL     1      29.531 -21.512  16.229  1.00  0.00     0.005 C 
HETATM   34  C17 UNL     1      29.629 -23.007  15.963  1.00  0.00     0.000 C 
HETATM   35  C18 UNL     1      29.746 -23.289  14.468  1.00  0.00     0.000 C 
HETATM   36  C19 UNL     1      28.577 -22.749  13.684  1.00  0.00     0.000 C 
HETATM   37  C20 UNL     1      28.069 -21.438  14.310  1.00  0.00     0.005 C 
ENDBRANCH  31  32
ENDBRANCH  26  31
ENDBRANCH  23  26
ENDBRANCH  20  23
ENDBRANCH   1  20
TORSDOF 15
ENDMDL
