MODEL 1
REMARK VINA RESULT: -7.521076336      0.000      0.000
REMARK  5 active torsions:
REMARK  status: ('A' for Active; 'I' for Inactive)
REMARK    1  A    between atoms: O1_2  and  C2_3 
REMARK    2  A    between atoms: C2_3  and  C5_6 
REMARK    3  A    between atoms: C8_12  and  C9_13 
REMARK    4  A    between atoms: C9_13  and  C10_14 
REMARK    5  A    between atoms: C12_21  and  O4_22 
ROOT
HETATM    1  C5  UNL     1      25.243  68.092  11.079  1.00  0.00     0.040 C 
HETATM    2  C6  UNL     1      26.411  67.591  10.926  1.00  0.00     0.040 A 
HETATM    3  N1  UNL     1      26.508  66.521  10.040  1.00  0.00    -0.323 N 
ATOM      4  H1  UNL     1      25.664  66.199   9.567  1.00  0.00     0.169 HD
HETATM    5  C7  UNL     1      27.663  65.897   9.784  1.00  0.00     0.256 A 
HETATM    6  O2  UNL     1      27.714  64.925   8.970  1.00  0.00    -0.267 OA
HETATM    7  C8  UNL     1      28.838  66.281  10.386  1.00  0.00     0.035 A 
HETATM    8  C13 UNL     1      28.802  67.329  11.268  1.00  0.00     0.026 A 
HETATM    9  C14 UNL     1      27.570  67.964  11.517  1.00  0.00    -0.034 A 
HETATM   10  C15 UNL     1      27.646  69.062  12.476  1.00  0.00     0.050 C 
ENDROOT
BRANCH   7  11
HETATM   11  C9  UNL     1      29.984  65.674  10.141  1.00  0.00     0.051 C 
BRANCH  11  12
HETATM   12  C10 UNL     1      30.875  66.112   9.091  1.00  0.00     0.088 A 
HETATM   13  N2  UNL     1      30.441  66.629   7.917  1.00  0.00    -0.305 N 
HETATM   14  C11 UNL     1      31.521  66.928   7.180  1.00  0.00     0.326 A 
ATOM     15  H2  UNL     1      29.468  66.766   7.642  1.00  0.00     0.171 HD
HETATM   16  O3  UNL     1      31.470  67.431   6.019  1.00  0.00    -0.247 OA
HETATM   17  N3  UNL     1      32.653  66.607   7.867  1.00  0.00    -0.287 N 
HETATM   18  C12 UNL     1      32.253  66.109   9.036  1.00  0.00     0.171 A 
ATOM     19  H3  UNL     1      33.615  66.725   7.549  1.00  0.00     0.172 HD
BRANCH  18  20
HETATM   20  O4  UNL     1      33.094  65.656  10.042  1.00  0.00    -0.344 OA
ATOM     21  H4  UNL     1      33.949  66.018  10.247  1.00  0.00     0.219 HD
ENDBRANCH  18  20
ENDBRANCH  11  12
ENDBRANCH   7  11
BRANCH   1  22
HETATM   22  C2  UNL     1      24.543  69.141  11.801  1.00  0.00     0.073 C 
HETATM   23  C3  UNL     1      24.580  68.833  13.286  1.00  0.00     0.050 C 
HETATM   24  C4  UNL     1      22.976  68.964  11.513  1.00  0.00     0.050 C 
BRANCH  22  25
HETATM   25  O1  UNL     1      24.819  70.432  11.467  1.00  0.00    -0.382 OA
HETATM   26  C1  UNL     1      23.733  71.265  11.403  1.00  0.00     0.202 C 
ENDBRANCH  22  25
ENDBRANCH   1  22
TORSDOF 5
ENDMDL
MODEL 2
REMARK VINA RESULT: -7.442612019      2.727      3.331
REMARK  5 active torsions:
REMARK  status: ('A' for Active; 'I' for Inactive)
REMARK    1  A    between atoms: O1_2  and  C2_3 
REMARK    2  A    between atoms: C2_3  and  C5_6 
REMARK    3  A    between atoms: C8_12  and  C9_13 
REMARK    4  A    between atoms: C9_13  and  C10_14 
REMARK    5  A    between atoms: C12_21  and  O4_22 
ROOT
HETATM    1  C5  UNL     1      24.631  64.694  12.166  1.00  0.00     0.040 C 
HETATM    2  C6  UNL     1      25.284  65.091  11.139  1.00  0.00     0.040 A 
HETATM    3  N1  UNL     1      25.098  64.355   9.972  1.00  0.00    -0.323 N 
ATOM      4  H1  UNL     1      24.464  63.557   9.993  1.00  0.00     0.169 HD
HETATM    5  C7  UNL     1      25.717  64.652   8.824  1.00  0.00     0.256 A 
HETATM    6  O2  UNL     1      25.523  63.959   7.778  1.00  0.00    -0.267 OA
HETATM    7  C8  UNL     1      26.582  65.716   8.726  1.00  0.00     0.035 A 
HETATM    8  C13 UNL     1      26.804  66.476   9.846  1.00  0.00     0.026 A 
HETATM    9  C14 UNL     1      26.138  66.136  11.039  1.00  0.00    -0.034 A 
HETATM   10  C15 UNL     1      26.452  67.007  12.168  1.00  0.00     0.050 C 
ENDROOT
BRANCH   7  11
HETATM   11  C9  UNL     1      27.198  66.020   7.600  1.00  0.00     0.051 C 
BRANCH  11  12
HETATM   12  C10 UNL     1      28.635  66.156   7.524  1.00  0.00     0.088 A 
HETATM   13  N2  UNL     1      29.254  67.091   6.766  1.00  0.00    -0.305 N 
HETATM   14  C11 UNL     1      30.576  66.937   6.927  1.00  0.00     0.326 A 
ATOM     15  H2  UNL     1      28.797  67.787   6.177  1.00  0.00     0.171 HD
HETATM   16  O3  UNL     1      31.449  67.654   6.356  1.00  0.00    -0.247 OA
HETATM   17  N3  UNL     1      30.820  65.907   7.785  1.00  0.00    -0.287 N 
HETATM   18  C12 UNL     1      29.630  65.432   8.148  1.00  0.00     0.171 A 
ATOM     19  H3  UNL     1      31.733  65.567   8.088  1.00  0.00     0.172 HD
BRANCH  18  20
HETATM   20  O4  UNL     1      29.423  64.372   9.019  1.00  0.00    -0.344 OA
ATOM     21  H4  UNL     1      29.972  63.599   9.083  1.00  0.00     0.219 HD
ENDBRANCH  18  20
ENDBRANCH  11  12
ENDBRANCH   7  11
BRANCH   1  22
HETATM   22  C2  UNL     1      24.412  65.014  13.567  1.00  0.00     0.073 C 
HETATM   23  C3  UNL     1      25.606  64.550  14.377  1.00  0.00     0.050 C 
HETATM   24  C4  UNL     1      23.285  64.016  14.121  1.00  0.00     0.050 C 
BRANCH  22  25
HETATM   25  O1  UNL     1      23.955  66.262  13.865  1.00  0.00    -0.382 OA
HETATM   26  C1  UNL     1      22.712  66.564  13.371  1.00  0.00     0.202 C 
ENDBRANCH  22  25
ENDBRANCH   1  22
TORSDOF 5
ENDMDL
MODEL 3
REMARK VINA RESULT: -7.274841587      2.089      2.671
REMARK  5 active torsions:
REMARK  status: ('A' for Active; 'I' for Inactive)
REMARK    1  A    between atoms: O1_2  and  C2_3 
REMARK    2  A    between atoms: C2_3  and  C5_6 
REMARK    3  A    between atoms: C8_12  and  C9_13 
REMARK    4  A    between atoms: C9_13  and  C10_14 
REMARK    5  A    between atoms: C12_21  and  O4_22 
ROOT
HETATM    1  C5  UNL     1      23.867  66.066  11.574  1.00  0.00     0.040 C 
HETATM    2  C6  UNL     1      24.736  65.964  10.640  1.00  0.00     0.040 A 
HETATM    3  N1  UNL     1      24.576  64.891   9.767  1.00  0.00    -0.323 N 
ATOM      4  H1  UNL     1      23.792  64.256   9.912  1.00  0.00     0.169 HD
HETATM    5  C7  UNL     1      25.409  64.658   8.747  1.00  0.00     0.256 A 
HETATM    6  O2  UNL     1      25.232  63.670   7.971  1.00  0.00    -0.267 OA
HETATM    7  C8  UNL     1      26.485  65.476   8.494  1.00  0.00     0.035 A 
HETATM    8  C13 UNL     1      26.691  66.550   9.322  1.00  0.00     0.026 A 
HETATM    9  C14 UNL     1      25.796  66.766  10.388  1.00  0.00    -0.034 A 
HETATM   10  C15 UNL     1      26.115  67.931  11.208  1.00  0.00     0.050 C 
ENDROOT
BRANCH   7  11
HETATM   11  C9  UNL     1      27.313  65.258   7.491  1.00  0.00     0.051 C 
BRANCH  11  12
HETATM   12  C10 UNL     1      28.685  65.712   7.517  1.00  0.00     0.088 A 
HETATM   13  N2  UNL     1      29.160  66.689   6.710  1.00  0.00    -0.305 N 
HETATM   14  C11 UNL     1      30.459  66.857   6.995  1.00  0.00     0.326 A 
ATOM     15  H2  UNL     1      28.625  67.206   6.012  1.00  0.00     0.171 HD
HETATM   16  O3  UNL     1      31.209  67.700   6.419  1.00  0.00    -0.247 OA
HETATM   17  N3  UNL     1      30.832  65.993   7.980  1.00  0.00    -0.287 N 
HETATM   18  C12 UNL     1      29.744  65.294   8.297  1.00  0.00     0.171 A 
ATOM     19  H3  UNL     1      31.761  65.900   8.393  1.00  0.00     0.172 HD
BRANCH  18  20
HETATM   20  O4  UNL     1      29.684  64.300   9.262  1.00  0.00    -0.344 OA
ATOM     21  H4  UNL     1      30.067  63.434   9.182  1.00  0.00     0.219 HD
ENDBRANCH  18  20
ENDBRANCH  11  12
ENDBRANCH   7  11
BRANCH   1  22
HETATM   22  C2  UNL     1      23.512  66.901  12.710  1.00  0.00     0.073 C 
HETATM   23  C3  UNL     1      24.415  66.560  13.879  1.00  0.00     0.050 C 
HETATM   24  C4  UNL     1      22.105  66.378  13.274  1.00  0.00     0.050 C 
BRANCH  22  25
HETATM   25  O1  UNL     1      23.329  68.231  12.483  1.00  0.00    -0.382 OA
HETATM   26  C1  UNL     1      22.210  68.553  11.762  1.00  0.00     0.202 C 
ENDBRANCH  22  25
ENDBRANCH   1  22
TORSDOF 5
ENDMDL
MODEL 4
REMARK VINA RESULT: -7.186862034      3.036      4.027
REMARK  5 active torsions:
REMARK  status: ('A' for Active; 'I' for Inactive)
REMARK    1  A    between atoms: O1_2  and  C2_3 
REMARK    2  A    between atoms: C2_3  and  C5_6 
REMARK    3  A    between atoms: C8_12  and  C9_13 
REMARK    4  A    between atoms: C9_13  and  C10_14 
REMARK    5  A    between atoms: C12_21  and  O4_22 
ROOT
HETATM    1  C5  UNL     1      28.598  65.819  14.478  1.00  0.00     0.040 C 
HETATM    2  C6  UNL     1      28.612  65.880  13.200  1.00  0.00     0.040 A 
HETATM    3  N1  UNL     1      28.580  64.661  12.527  1.00  0.00    -0.323 N 
ATOM      4  H1  UNL     1      28.546  63.802  13.074  1.00  0.00     0.169 HD
HETATM    5  C7  UNL     1      28.591  64.571  11.193  1.00  0.00     0.256 A 
HETATM    6  O2  UNL     1      28.561  63.442  10.613  1.00  0.00    -0.267 OA
HETATM    7  C8  UNL     1      28.634  65.691  10.396  1.00  0.00     0.035 A 
HETATM    8  C13 UNL     1      28.667  66.919  11.004  1.00  0.00     0.026 A 
HETATM    9  C14 UNL     1      28.655  66.979  12.412  1.00  0.00    -0.034 A 
HETATM   10  C15 UNL     1      28.700  68.334  12.952  1.00  0.00     0.050 C 
ENDROOT
BRANCH   7  11
HETATM   11  C9  UNL     1      28.645  65.616   9.079  1.00  0.00     0.051 C 
BRANCH  11  12
HETATM   12  C10 UNL     1      29.729  66.157   8.289  1.00  0.00     0.088 A 
HETATM   13  N2  UNL     1      31.026  66.099   8.670  1.00  0.00    -0.305 N 
HETATM   14  C11 UNL     1      31.758  66.688   7.714  1.00  0.00     0.326 A 
ATOM     15  H2  UNL     1      31.383  65.681   9.530  1.00  0.00     0.171 HD
HETATM   16  O3  UNL     1      33.018  66.806   7.756  1.00  0.00    -0.247 OA
HETATM   17  N3  UNL     1      30.944  67.131   6.715  1.00  0.00    -0.287 N 
HETATM   18  C12 UNL     1      29.703  66.803   7.070  1.00  0.00     0.171 A 
ATOM     19  H3  UNL     1      31.228  67.616   5.864  1.00  0.00     0.172 HD
BRANCH  18  20
HETATM   20  O4  UNL     1      28.561  67.070   6.330  1.00  0.00    -0.344 OA
ATOM     21  H4  UNL     1      28.232  66.536   5.616  1.00  0.00     0.219 HD
ENDBRANCH  18  20
ENDBRANCH  11  12
ENDBRANCH   7  11
BRANCH   1  22
HETATM   22  C2  UNL     1      28.612  66.670  15.657  1.00  0.00     0.073 C 
HETATM   23  C3  UNL     1      30.041  67.073  15.964  1.00  0.00     0.050 C 
HETATM   24  C4  UNL     1      28.298  65.743  16.927  1.00  0.00     0.050 C 
BRANCH  22  25
HETATM   25  O1  UNL     1      27.696  67.676  15.719  1.00  0.00    -0.382 OA
HETATM   26  C1  UNL     1      26.392  67.274  15.846  1.00  0.00     0.202 C 
ENDBRANCH  22  25
ENDBRANCH   1  22
TORSDOF 5
ENDMDL
MODEL 5
REMARK VINA RESULT: -7.180862310      2.780      3.534
REMARK  5 active torsions:
REMARK  status: ('A' for Active; 'I' for Inactive)
REMARK    1  A    between atoms: O1_2  and  C2_3 
REMARK    2  A    between atoms: C2_3  and  C5_6 
REMARK    3  A    between atoms: C8_12  and  C9_13 
REMARK    4  A    between atoms: C9_13  and  C10_14 
REMARK    5  A    between atoms: C12_21  and  O4_22 
ROOT
HETATM    1  C5  UNL     1      24.948  64.810  12.582  1.00  0.00     0.040 C 
HETATM    2  C6  UNL     1      25.527  65.171  11.498  1.00  0.00     0.040 A 
HETATM    3  N1  UNL     1      25.278  64.383  10.378  1.00  0.00    -0.323 N 
ATOM      4  H1  UNL     1      24.660  63.578  10.474  1.00  0.00     0.169 HD
HETATM    5  C7  UNL     1      25.816  64.638   9.180  1.00  0.00     0.256 A 
HETATM    6  O2  UNL     1      25.566  63.898   8.180  1.00  0.00    -0.267 OA
HETATM    7  C8  UNL     1      26.656  65.708   8.981  1.00  0.00     0.035 A 
HETATM    8  C13 UNL     1      26.937  66.519  10.050  1.00  0.00     0.026 A 
HETATM    9  C14 UNL     1      26.355  66.222  11.298  1.00  0.00    -0.034 A 
HETATM   10  C15 UNL     1      26.728  67.145  12.366  1.00  0.00     0.050 C 
ENDROOT
BRANCH   7  11
HETATM   11  C9  UNL     1      27.193  65.971   7.805  1.00  0.00     0.051 C 
BRANCH  11  12
HETATM   12  C10 UNL     1      28.620  66.116   7.629  1.00  0.00     0.088 A 
HETATM   13  N2  UNL     1      29.178  67.068   6.846  1.00  0.00    -0.305 N 
HETATM   14  C11 UNL     1      30.509  66.919   6.909  1.00  0.00     0.326 A 
ATOM     15  H2  UNL     1      28.677  67.773   6.304  1.00  0.00     0.171 HD
HETATM   16  O3  UNL     1      31.336  67.652   6.289  1.00  0.00    -0.247 OA
HETATM   17  N3  UNL     1      30.819  65.875   7.727  1.00  0.00    -0.287 N 
HETATM   18  C12 UNL     1      29.660  65.387   8.167  1.00  0.00     0.171 A 
ATOM     19  H3  UNL     1      31.753  65.535   7.958  1.00  0.00     0.172 HD
BRANCH  18  20
HETATM   20  O4  UNL     1      29.522  64.311   9.030  1.00  0.00    -0.344 OA
ATOM     21  H4  UNL     1      28.902  63.598   8.924  1.00  0.00     0.219 HD
ENDBRANCH  18  20
ENDBRANCH  11  12
ENDBRANCH   7  11
BRANCH   1  22
HETATM   22  C2  UNL     1      24.814  65.188  13.979  1.00  0.00     0.073 C 
HETATM   23  C3  UNL     1      23.833  64.252  14.656  1.00  0.00     0.050 C 
HETATM   24  C4  UNL     1      23.985  66.559  14.031  1.00  0.00     0.050 C 
BRANCH  22  25
HETATM   25  O1  UNL     1      25.956  65.440  14.677  1.00  0.00    -0.382 OA
HETATM   26  C1  UNL     1      26.748  64.348  14.918  1.00  0.00     0.202 C 
ENDBRANCH  22  25
ENDBRANCH   1  22
TORSDOF 5
ENDMDL
