MODEL 1
REMARK VINA RESULT: -7.050735765      0.000      0.000
REMARK  5 active torsions:
REMARK  status: ('A' for Active; 'I' for Inactive)
REMARK    1  A    between atoms: C2_2  and  N1_4 
REMARK       I    between atoms: N1_4  and  C4_6 
REMARK       I    between atoms: C4_6  and  N2_8 
REMARK    2  A    between atoms: N2_8  and  N3_10 
REMARK       I    between atoms: N3_10  and  C6_12 
REMARK       I    between atoms: C6_12  and  N4_14 
REMARK    3  A    between atoms: N4_14  and  N5_16 
REMARK       I    between atoms: N5_16  and  C7_18 
REMARK    4  A    between atoms: C7_18  and  C8_20 
REMARK    5  A    between atoms: C8_20  and  C9_21 
REMARK       I    between atoms: C9_21  and  N6_23 
ROOT
HETATM    1  N3  UNL     1      24.894  64.433  14.470  1.00  0.00    -0.244 N 
ATOM      2  H3  UNL     1      25.019  63.424  14.392  1.00  0.00     0.192 HD
HETATM    3  C6  UNL     1      25.578  65.292  13.581  1.00  0.00     0.353 C 
HETATM    4  O2  UNL     1      25.414  66.534  13.689  1.00  0.00    -0.244 OA
HETATM    5  N4  UNL     1      26.426  64.720  12.596  1.00  0.00    -0.248 N 
ATOM      6  H4  UNL     1      26.510  63.705  12.565  1.00  0.00     0.192 HD
ENDROOT
BRANCH   5   7
HETATM    7  N5  UNL     1      27.152  65.471  11.667  1.00  0.00    -0.266 N 
HETATM    8  C7  UNL     1      28.556  65.328  11.626  1.00  0.00     0.244 C 
HETATM    9  O3  UNL     1      29.107  64.530  12.426  1.00  0.00    -0.271 OA
ATOM     10  H5  UNL     1      26.676  66.111  11.030  1.00  0.00     0.190 HD
BRANCH   8  11
HETATM   11  C8  UNL     1      29.326  66.127  10.639  1.00  0.00     0.207 C 
BRANCH  11  12
HETATM   12  C9  UNL     1      29.066  65.726   9.250  1.00  0.00     0.228 C 
HETATM   13  O4  UNL     1      27.977  65.182   8.941  1.00  0.00    -0.273 OA
HETATM   14  N6  UNL     1      30.058  65.962   8.273  1.00  0.00    -0.352 N 
HETATM   15  C10 UNL     1      31.331  66.582   8.560  1.00  0.00     0.125 C 
HETATM   16  C14 UNL     1      29.812  65.566   6.884  1.00  0.00     0.125 C 
HETATM   17  C11 UNL     1      31.960  66.940   7.229  1.00  0.00     0.020 C 
HETATM   18  C12 UNL     1      30.930  67.701   6.429  1.00  0.00     0.003 C 
HETATM   19  C13 UNL     1      29.730  66.845   6.093  1.00  0.00     0.020 C 
ENDBRANCH  11  12
ENDBRANCH   8  11
ENDBRANCH   5   7
BRANCH   1  20
HETATM   20  N2  UNL     1      24.051  64.949  15.453  1.00  0.00    -0.243 N 
HETATM   21  C4  UNL     1      22.692  65.201  15.110  1.00  0.00     0.337 C 
HETATM   22  N1  UNL     1      21.761  65.721  16.031  1.00  0.00    -0.338 N 
HETATM   23  O1  UNL     1      22.303  64.948  13.922  1.00  0.00    -0.245 OA
ATOM     24  H1  UNL     1      22.047  65.933  16.987  1.00  0.00     0.164 HD
HETATM   25  C5  UNL     1      24.535  65.224  16.801  1.00  0.00     0.183 C 
BRANCH  22  26
HETATM   26  C2  UNL     1      20.395  65.951  15.609  1.00  0.00     0.078 C 
HETATM   27  C1  UNL     1      19.918  67.223  16.294  1.00  0.00     0.032 C 
HETATM   28  C3  UNL     1      19.497  64.791  16.001  1.00  0.00     0.032 C 
ENDBRANCH  22  26
ENDBRANCH   1  20
TORSDOF 5
ENDMDL
MODEL 2
REMARK VINA RESULT: -7.044454392      2.664      3.385
REMARK  5 active torsions:
REMARK  status: ('A' for Active; 'I' for Inactive)
REMARK    1  A    between atoms: C2_2  and  N1_4 
REMARK       I    between atoms: N1_4  and  C4_6 
REMARK       I    between atoms: C4_6  and  N2_8 
REMARK    2  A    between atoms: N2_8  and  N3_10 
REMARK       I    between atoms: N3_10  and  C6_12 
REMARK       I    between atoms: C6_12  and  N4_14 
REMARK    3  A    between atoms: N4_14  and  N5_16 
REMARK       I    between atoms: N5_16  and  C7_18 
REMARK    4  A    between atoms: C7_18  and  C8_20 
REMARK    5  A    between atoms: C8_20  and  C9_21 
REMARK       I    between atoms: C9_21  and  N6_23 
ROOT
HETATM    1  N3  UNL     1      26.473  64.707  17.042  1.00  0.00    -0.244 N 
ATOM      2  H3  UNL     1      26.445  63.783  17.472  1.00  0.00     0.192 HD
HETATM    3  C6  UNL     1      26.979  64.852  15.730  1.00  0.00     0.353 C 
HETATM    4  O2  UNL     1      27.007  65.998  15.213  1.00  0.00    -0.244 OA
HETATM    5  N4  UNL     1      27.437  63.697  15.044  1.00  0.00    -0.248 N 
ATOM      6  H4  UNL     1      27.382  62.799  15.524  1.00  0.00     0.192 HD
ENDROOT
BRANCH   5   7
HETATM    7  N5  UNL     1      27.958  63.721  13.747  1.00  0.00    -0.266 N 
HETATM    8  C7  UNL     1      27.084  63.506  12.659  1.00  0.00     0.244 C 
HETATM    9  O3  UNL     1      25.867  63.301  12.892  1.00  0.00    -0.271 OA
ATOM     10  H5  UNL     1      28.952  63.892  13.589  1.00  0.00     0.190 HD
BRANCH   8  11
HETATM   11  C8  UNL     1      27.640  63.532  11.282  1.00  0.00     0.207 C 
BRANCH  11  12
HETATM   12  C9  UNL     1      28.373  64.769  10.983  1.00  0.00     0.228 C 
HETATM   13  O4  UNL     1      29.407  65.064  11.632  1.00  0.00    -0.273 OA
HETATM   14  N6  UNL     1      27.899  65.615   9.957  1.00  0.00    -0.352 N 
HETATM   15  C10 UNL     1      26.718  65.335   9.173  1.00  0.00     0.125 C 
HETATM   16  C14 UNL     1      28.621  66.851   9.649  1.00  0.00     0.125 C 
HETATM   17  C11 UNL     1      26.730  66.290   7.997  1.00  0.00     0.020 C 
HETATM   18  C12 UNL     1      28.089  66.194   7.347  1.00  0.00     0.003 C 
HETATM   19  C13 UNL     1      29.191  66.670   8.267  1.00  0.00     0.020 C 
ENDBRANCH  11  12
ENDBRANCH   8  11
ENDBRANCH   5   7
BRANCH   1  20
HETATM   20  N2  UNL     1      26.012  65.812  17.755  1.00  0.00    -0.243 N 
HETATM   21  C4  UNL     1      24.657  66.211  17.576  1.00  0.00     0.337 C 
HETATM   22  N1  UNL     1      24.096  67.314  18.252  1.00  0.00    -0.338 N 
HETATM   23  O1  UNL     1      23.923  65.546  16.774  1.00  0.00    -0.245 OA
ATOM     24  H1  UNL     1      24.662  67.864  18.898  1.00  0.00     0.164 HD
HETATM   25  C5  UNL     1      26.884  66.546  18.665  1.00  0.00     0.183 C 
BRANCH  22  26
HETATM   26  C2  UNL     1      22.709  67.660  18.019  1.00  0.00     0.078 C 
HETATM   27  C1  UNL     1      22.679  68.676  16.888  1.00  0.00     0.032 C 
HETATM   28  C3  UNL     1      22.078  68.260  19.262  1.00  0.00     0.032 C 
ENDBRANCH  22  26
ENDBRANCH   1  20
TORSDOF 5
ENDMDL
MODEL 3
REMARK VINA RESULT: -7.024043332      1.792      1.956
REMARK  5 active torsions:
REMARK  status: ('A' for Active; 'I' for Inactive)
REMARK    1  A    between atoms: C2_2  and  N1_4 
REMARK       I    between atoms: N1_4  and  C4_6 
REMARK       I    between atoms: C4_6  and  N2_8 
REMARK    2  A    between atoms: N2_8  and  N3_10 
REMARK       I    between atoms: N3_10  and  C6_12 
REMARK       I    between atoms: C6_12  and  N4_14 
REMARK    3  A    between atoms: N4_14  and  N5_16 
REMARK       I    between atoms: N5_16  and  C7_18 
REMARK    4  A    between atoms: C7_18  and  C8_20 
REMARK    5  A    between atoms: C8_20  and  C9_21 
REMARK       I    between atoms: C9_21  and  N6_23 
ROOT
HETATM    1  N3  UNL     1      27.201  64.431  15.618  1.00  0.00    -0.244 N 
ATOM      2  H3  UNL     1      27.303  63.416  15.618  1.00  0.00     0.192 HD
HETATM    3  C6  UNL     1      27.883  65.201  14.648  1.00  0.00     0.353 C 
HETATM    4  O2  UNL     1      27.748  66.451  14.660  1.00  0.00    -0.244 OA
HETATM    5  N4  UNL     1      28.696  64.533  13.695  1.00  0.00    -0.248 N 
ATOM      6  H4  UNL     1      28.758  63.517  13.744  1.00  0.00     0.192 HD
ENDROOT
BRANCH   5   7
HETATM    7  N5  UNL     1      29.417  65.191  12.694  1.00  0.00    -0.266 N 
HETATM    8  C7  UNL     1      28.717  65.712  11.584  1.00  0.00     0.244 C 
HETATM    9  O3  UNL     1      27.470  65.567  11.532  1.00  0.00    -0.271 OA
ATOM     10  H5  UNL     1      30.429  65.294  12.765  1.00  0.00     0.190 HD
BRANCH   8  11
HETATM   11  C8  UNL     1      29.485  66.410  10.521  1.00  0.00     0.207 C 
BRANCH  11  12
HETATM   12  C9  UNL     1      29.199  65.895   9.176  1.00  0.00     0.228 C 
HETATM   13  O4  UNL     1      28.106  65.324   8.936  1.00  0.00    -0.273 OA
HETATM   14  N6  UNL     1      30.168  66.054   8.162  1.00  0.00    -0.352 N 
HETATM   15  C10 UNL     1      31.444  66.700   8.370  1.00  0.00     0.125 C 
HETATM   16  C14 UNL     1      29.896  65.545   6.816  1.00  0.00     0.125 C 
HETATM   17  C11 UNL     1      32.044  66.949   7.002  1.00  0.00     0.020 C 
HETATM   18  C12 UNL     1      30.994  67.638   6.164  1.00  0.00     0.003 C 
HETATM   19  C13 UNL     1      29.791  66.754   5.924  1.00  0.00     0.020 C 
ENDBRANCH  11  12
ENDBRANCH   8  11
ENDBRANCH   5   7
BRANCH   1  20
HETATM   20  N2  UNL     1      26.392  65.042  16.574  1.00  0.00    -0.243 N 
HETATM   21  C4  UNL     1      25.023  65.266  16.252  1.00  0.00     0.337 C 
HETATM   22  N1  UNL     1      24.123  65.876  17.150  1.00  0.00    -0.338 N 
HETATM   23  O1  UNL     1      24.595  64.902  15.108  1.00  0.00    -0.245 OA
ATOM     24  H1  UNL     1      24.440  66.177  18.071  1.00  0.00     0.164 HD
HETATM   25  C5  UNL     1      26.920  65.443  17.872  1.00  0.00     0.183 C 
BRANCH  22  26
HETATM   26  C2  UNL     1      22.744  66.070  16.752  1.00  0.00     0.078 C 
HETATM   27  C1  UNL     1      22.229  67.297  17.489  1.00  0.00     0.032 C 
HETATM   28  C3  UNL     1      21.895  64.864  17.112  1.00  0.00     0.032 C 
ENDBRANCH  22  26
ENDBRANCH   1  20
TORSDOF 5
ENDMDL
MODEL 4
REMARK VINA RESULT: -6.943649190      3.314      3.733
REMARK  5 active torsions:
REMARK  status: ('A' for Active; 'I' for Inactive)
REMARK    1  A    between atoms: C2_2  and  N1_4 
REMARK       I    between atoms: N1_4  and  C4_6 
REMARK       I    between atoms: C4_6  and  N2_8 
REMARK    2  A    between atoms: N2_8  and  N3_10 
REMARK       I    between atoms: N3_10  and  C6_12 
REMARK       I    between atoms: C6_12  and  N4_14 
REMARK    3  A    between atoms: N4_14  and  N5_16 
REMARK       I    between atoms: N5_16  and  C7_18 
REMARK    4  A    between atoms: C7_18  and  C8_20 
REMARK    5  A    between atoms: C8_20  and  C9_21 
REMARK       I    between atoms: C9_21  and  N6_23 
ROOT
HETATM    1  N3  UNL     1      22.739  68.164  10.500  1.00  0.00    -0.244 N 
ATOM      2  H3  UNL     1      22.768  69.104  10.894  1.00  0.00     0.192 HD
HETATM    3  C6  UNL     1      23.938  67.550  10.072  1.00  0.00     0.353 C 
HETATM    4  O2  UNL     1      23.887  66.391   9.588  1.00  0.00    -0.244 OA
HETATM    5  N4  UNL     1      25.157  68.265  10.205  1.00  0.00    -0.248 N 
ATOM      6  H4  UNL     1      25.124  69.201  10.608  1.00  0.00     0.192 HD
ENDROOT
BRANCH   5   7
HETATM    7  N5  UNL     1      26.400  67.759   9.814  1.00  0.00    -0.266 N 
HETATM    8  C7  UNL     1      27.221  67.148  10.786  1.00  0.00     0.244 C 
HETATM    9  O3  UNL     1      26.808  67.079  11.971  1.00  0.00    -0.271 OA
ATOM     10  H5  UNL     1      26.708  67.829   8.844  1.00  0.00     0.190 HD
BRANCH   8  11
HETATM   11  C8  UNL     1      28.542  66.611  10.369  1.00  0.00     0.207 C 
BRANCH  11  12
HETATM   12  C9  UNL     1      28.519  66.009   9.030  1.00  0.00     0.228 C 
HETATM   13  O4  UNL     1      27.486  65.427   8.616  1.00  0.00    -0.273 OA
HETATM   14  N6  UNL     1      29.672  66.095   8.221  1.00  0.00    -0.352 N 
HETATM   15  C10 UNL     1      30.892  66.749   8.635  1.00  0.00     0.125 C 
HETATM   16  C14 UNL     1      29.662  65.498   6.883  1.00  0.00     0.125 C 
HETATM   17  C11 UNL     1      31.754  66.904   7.400  1.00  0.00     0.020 C 
HETATM   18  C12 UNL     1      30.902  67.539   6.328  1.00  0.00     0.003 C 
HETATM   19  C13 UNL     1      29.756  66.645   5.912  1.00  0.00     0.020 C 
ENDBRANCH  11  12
ENDBRANCH   8  11
ENDBRANCH   5   7
BRANCH   1  20
HETATM   20  N2  UNL     1      21.519  67.501  10.389  1.00  0.00    -0.243 N 
HETATM   21  C4  UNL     1      21.023  66.809  11.531  1.00  0.00     0.337 C 
HETATM   22  N1  UNL     1      19.799  66.109  11.522  1.00  0.00    -0.338 N 
HETATM   23  O1  UNL     1      21.713  66.823  12.604  1.00  0.00    -0.245 OA
ATOM     24  H1  UNL     1      19.229  66.082  10.677  1.00  0.00     0.164 HD
HETATM   25  C5  UNL     1      20.760  67.510   9.145  1.00  0.00     0.183 C 
BRANCH  22  26
HETATM   26  C2  UNL     1      19.360  65.429  12.723  1.00  0.00     0.078 C 
HETATM   27  C1  UNL     1      18.770  64.094  12.296  1.00  0.00     0.032 C 
HETATM   28  C3  UNL     1      18.309  66.242  13.458  1.00  0.00     0.032 C 
ENDBRANCH  22  26
ENDBRANCH   1  20
TORSDOF 5
ENDMDL
MODEL 5
REMARK VINA RESULT: -6.865575487      1.986      9.627
REMARK  5 active torsions:
REMARK  status: ('A' for Active; 'I' for Inactive)
REMARK    1  A    between atoms: C2_2  and  N1_4 
REMARK       I    between atoms: N1_4  and  C4_6 
REMARK       I    between atoms: C4_6  and  N2_8 
REMARK    2  A    between atoms: N2_8  and  N3_10 
REMARK       I    between atoms: N3_10  and  C6_12 
REMARK       I    between atoms: C6_12  and  N4_14 
REMARK    3  A    between atoms: N4_14  and  N5_16 
REMARK       I    between atoms: N5_16  and  C7_18 
REMARK    4  A    between atoms: C7_18  and  C8_20 
REMARK    5  A    between atoms: C8_20  and  C9_21 
REMARK       I    between atoms: C9_21  and  N6_23 
ROOT
HETATM    1  N3  UNL     1      28.504  65.008  11.966  1.00  0.00    -0.244 N 
ATOM      2  H3  UNL     1      29.159  64.445  12.508  1.00  0.00     0.192 HD
HETATM    3  C6  UNL     1      27.120  64.734  12.039  1.00  0.00     0.353 C 
HETATM    4  O2  UNL     1      26.325  65.437  11.366  1.00  0.00    -0.244 OA
HETATM    5  N4  UNL     1      26.678  63.673  12.873  1.00  0.00    -0.248 N 
ATOM      6  H4  UNL     1      27.378  63.146  13.392  1.00  0.00     0.192 HD
ENDROOT
BRANCH   5   7
HETATM    7  N5  UNL     1      25.335  63.311  13.021  1.00  0.00    -0.266 N 
HETATM    8  C7  UNL     1      24.545  64.001  13.965  1.00  0.00     0.244 C 
HETATM    9  O3  UNL     1      25.074  64.919  14.641  1.00  0.00    -0.271 OA
ATOM     10  H5  UNL     1      24.934  62.562  12.456  1.00  0.00     0.190 HD
BRANCH   8  11
HETATM   11  C8  UNL     1      23.120  63.615  14.122  1.00  0.00     0.207 C 
BRANCH  11  12
HETATM   12  C9  UNL     1      22.204  64.487  13.374  1.00  0.00     0.228 C 
HETATM   13  O4  UNL     1      22.640  65.217  12.450  1.00  0.00    -0.273 OA
HETATM   14  N6  UNL     1      20.834  64.490  13.711  1.00  0.00    -0.352 N 
HETATM   15  C10 UNL     1      20.268  63.676  14.763  1.00  0.00     0.125 C 
HETATM   16  C14 UNL     1      19.910  65.355  12.974  1.00  0.00     0.125 C 
HETATM   17  C11 UNL     1      18.763  63.723  14.599  1.00  0.00     0.020 C 
HETATM   18  C12 UNL     1      18.452  63.392  13.160  1.00  0.00     0.003 C 
HETATM   19  C13 UNL     1      18.995  64.436  12.209  1.00  0.00     0.020 C 
ENDBRANCH  11  12
ENDBRANCH   8  11
ENDBRANCH   5   7
BRANCH   1  20
HETATM   20  N2  UNL     1      28.985  66.039  11.161  1.00  0.00    -0.243 N 
HETATM   21  C4  UNL     1      29.497  65.706   9.875  1.00  0.00     0.337 C 
HETATM   22  N1  UNL     1      30.005  66.675   8.986  1.00  0.00    -0.338 N 
HETATM   23  O1  UNL     1      29.495  64.483   9.512  1.00  0.00    -0.245 OA
ATOM     24  H1  UNL     1      30.018  67.660   9.252  1.00  0.00     0.164 HD
HETATM   25  C5  UNL     1      28.969  67.425  11.612  1.00  0.00     0.183 C 
BRANCH  22  26
HETATM   26  C2  UNL     1      30.508  66.261   7.693  1.00  0.00     0.078 C 
HETATM   27  C1  UNL     1      31.780  67.050   7.428  1.00  0.00     0.032 C 
HETATM   28  C3  UNL     1      29.495  66.539   6.597  1.00  0.00     0.032 C 
ENDBRANCH  22  26
ENDBRANCH   1  20
TORSDOF 5
ENDMDL
