MODEL 1
REMARK VINA RESULT: -8.391396473      0.000      0.000
REMARK  15 active torsions:
REMARK  status: ('A' for Active; 'I' for Inactive)
REMARK    1  A    between atoms: C2_2  and  C17_18 
REMARK    2  A    between atoms: C3_3  and  C4_4 
REMARK    3  A    between atoms: C4_4  and  C5_5 
REMARK    4  A    between atoms: C5_5  and  C6_6 
REMARK    5  A    between atoms: C7_7  and  C8_8 
REMARK    6  A    between atoms: C8_8  and  C9_9 
REMARK    7  A    between atoms: C9_9  and  C10_10 
REMARK    8  A    between atoms: C10_10  and  C11_11 
REMARK    9  A    between atoms: C11_11  and  C12_12 
REMARK   10  A    between atoms: C12_12  and  N1_13 
REMARK   11  A    between atoms: C17_18  and  O1_21 
REMARK   12  A    between atoms: O1_21  and  C20_22 
REMARK   13  A    between atoms: C21_24  and  N2_25 
REMARK   14  A    between atoms: C26_34  and  O5_35 
REMARK   15  A    between atoms: C27_37  and  O6_38 
ROOT
HETATM    1  C17 UNL     1      11.899 -20.589  35.780  1.00  0.00     0.080 C 
HETATM    2  C18 UNL     1      12.989 -20.207  34.846  1.00  0.00     0.051 C 
HETATM    3  C19 UNL     1      11.067 -19.290  35.988  1.00  0.00     0.051 C 
ENDROOT
BRANCH   1   4
HETATM    4  C2  UNL     1      12.360 -20.955  37.116  1.00  0.00    -0.050 C 
HETATM    5  C1  UNL     1      13.725 -21.576  37.257  1.00  0.00     0.046 C 
HETATM    6  C3  UNL     1      11.640 -20.774  38.190  1.00  0.00     0.013 C 
BRANCH   6   7
HETATM    7  C4  UNL     1      12.242 -21.203  39.485  1.00  0.00     0.056 C 
BRANCH   7   8
HETATM    8  C5  UNL     1      12.854 -20.427  40.333  1.00  0.00    -0.129 C 
BRANCH   8   9
HETATM    9  C6  UNL     1      13.485 -19.650  41.202  1.00  0.00     0.051 C 
HETATM   10  C7  UNL     1      14.722 -19.965  41.676  1.00  0.00    -0.018 C 
BRANCH  10  11
HETATM   11  C8  UNL     1      15.394 -19.074  42.632  1.00  0.00     0.028 C 
BRANCH  11  12
HETATM   12  C9  UNL     1      16.588 -18.387  42.071  1.00  0.00     0.004 C 
BRANCH  12  13
HETATM   13  C10 UNL     1      16.296 -17.079  41.343  1.00  0.00     0.002 C 
BRANCH  13  14
HETATM   14  C11 UNL     1      17.295 -17.017  40.189  1.00  0.00     0.028 C 
BRANCH  14  15
HETATM   15  C12 UNL     1      17.405 -18.340  39.509  1.00  0.00     0.237 C 
BRANCH  15  16
HETATM   16  N1  UNL     1      17.634 -18.195  38.111  1.00  0.00    -0.071 N 
HETATM   17  C13 UNL     1      16.481 -18.634  37.320  1.00  0.00     0.272 C 
HETATM   18  C14 UNL     1      18.853 -18.930  37.749  1.00  0.00     0.238 C 
HETATM   19  C15 UNL     1      19.333 -17.766  36.955  1.00  0.00     0.056 C 
HETATM   20  C16 UNL     1      18.201 -16.973  37.638  1.00  0.00     0.238 C 
ENDBRANCH  15  16
ENDBRANCH  14  15
ENDBRANCH  13  14
ENDBRANCH  12  13
ENDBRANCH  11  12
ENDBRANCH  10  11
ENDBRANCH   8   9
ENDBRANCH   7   8
ENDBRANCH   6   7
ENDBRANCH   1   4
BRANCH   1  21
HETATM   21  O1  UNL     1      11.021 -21.478  35.213  1.00  0.00    -0.344 OA
BRANCH  21  22
HETATM   22  C20 UNL     1       9.691 -21.246  35.377  1.00  0.00     0.295 C 
HETATM   23  O2  UNL     1       9.062 -21.233  34.136  1.00  0.00    -0.331 OA
HETATM   24  C21 UNL     1       8.548 -22.504  33.882  1.00  0.00     0.266 C 
HETATM   25  C26 UNL     1       9.168 -23.427  34.872  1.00  0.00     0.201 C 
HETATM   26  C27 UNL     1       9.148 -22.495  36.108  1.00  0.00     0.206 C 
BRANCH  24  27
HETATM   27  N2  UNL     1       8.654 -22.862  32.502  1.00  0.00    -0.280 N 
HETATM   28  C22 UNL     1       9.634 -22.273  31.756  1.00  0.00     0.104 A 
HETATM   29  C23 UNL     1       9.819 -22.548  30.423  1.00  0.00     0.092 A 
HETATM   30  C24 UNL     1       8.962 -23.459  29.849  1.00  0.00     0.250 A 
HETATM   31  O3  UNL     1       9.037 -23.795  28.616  1.00  0.00    -0.268 OA
HETATM   32  N3  UNL     1       7.997 -24.046  30.554  1.00  0.00    -0.275 N 
HETATM   33  C25 UNL     1       7.866 -23.737  31.860  1.00  0.00     0.331 A 
ATOM     34  H3  UNL     1       7.367 -24.718  30.114  1.00  0.00     0.173 HD
HETATM   35  O4  UNL     1       6.950 -24.315  32.496  1.00  0.00    -0.246 OA
ENDBRANCH  24  27
BRANCH  25  36
HETATM   36  O5  UNL     1       8.477 -24.570  35.166  1.00  0.00    -0.388 OA
ATOM     37  H5  UNL     1       8.240 -25.127  34.434  1.00  0.00     0.210 HD
ENDBRANCH  25  36
BRANCH  26  38
HETATM   38  O6  UNL     1       7.834 -22.326  36.439  1.00  0.00    -0.388 OA
ATOM     39  H6  UNL     1       7.301 -22.234  35.657  1.00  0.00     0.210 HD
ENDBRANCH  26  38
ENDBRANCH  21  22
ENDBRANCH   1  21
TORSDOF 15
ENDMDL
MODEL 2
REMARK VINA RESULT: -8.320504507      3.404     10.217
REMARK  15 active torsions:
REMARK  status: ('A' for Active; 'I' for Inactive)
REMARK    1  A    between atoms: C2_2  and  C17_18 
REMARK    2  A    between atoms: C3_3  and  C4_4 
REMARK    3  A    between atoms: C4_4  and  C5_5 
REMARK    4  A    between atoms: C5_5  and  C6_6 
REMARK    5  A    between atoms: C7_7  and  C8_8 
REMARK    6  A    between atoms: C8_8  and  C9_9 
REMARK    7  A    between atoms: C9_9  and  C10_10 
REMARK    8  A    between atoms: C10_10  and  C11_11 
REMARK    9  A    between atoms: C11_11  and  C12_12 
REMARK   10  A    between atoms: C12_12  and  N1_13 
REMARK   11  A    between atoms: C17_18  and  O1_21 
REMARK   12  A    between atoms: O1_21  and  C20_22 
REMARK   13  A    between atoms: C21_24  and  N2_25 
REMARK   14  A    between atoms: C26_34  and  O5_35 
REMARK   15  A    between atoms: C27_37  and  O6_38 
ROOT
HETATM    1  C17 UNL     1      10.379 -21.640  35.882  1.00  0.00     0.080 C 
HETATM    2  C18 UNL     1      10.511 -23.089  36.181  1.00  0.00     0.051 C 
HETATM    3  C19 UNL     1       8.851 -21.350  35.946  1.00  0.00     0.051 C 
ENDROOT
BRANCH   1   4
HETATM    4  C2  UNL     1      10.773 -21.274  34.525  1.00  0.00    -0.050 C 
HETATM    5  C1  UNL     1      10.554 -19.854  34.074  1.00  0.00     0.046 C 
HETATM    6  C3  UNL     1      11.300 -22.124  33.685  1.00  0.00     0.013 C 
BRANCH   6   7
HETATM    7  C4  UNL     1      11.646 -21.606  32.330  1.00  0.00     0.056 C 
BRANCH   7   8
HETATM    8  C5  UNL     1      10.872 -21.636  31.284  1.00  0.00    -0.129 C 
BRANCH   8   9
HETATM    9  C6  UNL     1      10.074 -21.661  30.226  1.00  0.00     0.051 C 
HETATM   10  C7  UNL     1      10.192 -22.617  29.264  1.00  0.00    -0.018 C 
BRANCH  10  11
HETATM   11  C8  UNL     1       9.282 -22.618  28.110  1.00  0.00     0.028 C 
BRANCH  11  12
HETATM   12  C9  UNL     1       8.034 -23.395  28.333  1.00  0.00     0.004 C 
BRANCH  12  13
HETATM   13  C10 UNL     1       6.929 -22.642  29.066  1.00  0.00     0.002 C 
BRANCH  13  14
HETATM   14  C11 UNL     1       6.296 -23.659  30.015  1.00  0.00     0.028 C 
BRANCH  14  15
HETATM   15  C12 UNL     1       7.262 -24.075  31.072  1.00  0.00     0.237 C 
BRANCH  15  16
HETATM   16  N1  UNL     1       6.619 -24.262  32.329  1.00  0.00    -0.071 N 
HETATM   17  C13 UNL     1       5.245 -23.751  32.320  1.00  0.00     0.272 C 
HETATM   18  C14 UNL     1       7.429 -23.627  33.376  1.00  0.00     0.238 C 
HETATM   19  C15 UNL     1       7.292 -24.838  34.232  1.00  0.00     0.056 C 
HETATM   20  C16 UNL     1       6.737 -25.531  32.971  1.00  0.00     0.238 C 
ENDBRANCH  15  16
ENDBRANCH  14  15
ENDBRANCH  13  14
ENDBRANCH  12  13
ENDBRANCH  11  12
ENDBRANCH  10  11
ENDBRANCH   8   9
ENDBRANCH   7   8
ENDBRANCH   6   7
ENDBRANCH   1   4
BRANCH   1  21
HETATM   21  O1  UNL     1      10.924 -20.858  36.868  1.00  0.00    -0.344 OA
BRANCH  21  22
HETATM   22  C20 UNL     1      11.921 -21.394  37.623  1.00  0.00     0.295 C 
HETATM   23  O2  UNL     1      13.118 -21.348  36.916  1.00  0.00    -0.331 OA
HETATM   24  C21 UNL     1      13.811 -20.195  37.281  1.00  0.00     0.266 C 
HETATM   25  C26 UNL     1      12.846 -19.325  38.010  1.00  0.00     0.201 C 
HETATM   26  C27 UNL     1      12.099 -20.420  38.810  1.00  0.00     0.206 C 
BRANCH  24  27
HETATM   27  N2  UNL     1      14.507 -19.612  36.178  1.00  0.00    -0.280 N 
HETATM   28  C22 UNL     1      14.025 -19.834  34.920  1.00  0.00     0.104 A 
HETATM   29  C23 UNL     1      14.620 -19.320  33.794  1.00  0.00     0.092 A 
HETATM   30  C24 UNL     1      15.749 -18.554  33.980  1.00  0.00     0.250 A 
HETATM   31  O3  UNL     1      16.390 -18.022  33.008  1.00  0.00    -0.268 OA
HETATM   32  N3  UNL     1      16.241 -18.324  35.196  1.00  0.00    -0.275 N 
HETATM   33  C25 UNL     1      15.611 -18.854  36.263  1.00  0.00     0.331 A 
ATOM     34  H3  UNL     1      17.080 -17.756  35.318  1.00  0.00     0.173 HD
HETATM   35  O4  UNL     1      16.098 -18.611  37.395  1.00  0.00    -0.246 OA
ENDBRANCH  24  27
BRANCH  25  36
HETATM   36  O5  UNL     1      13.375 -18.419  38.887  1.00  0.00    -0.388 OA
ATOM     37  H5  UNL     1      12.759 -17.872  39.361  1.00  0.00     0.210 HD
ENDBRANCH  25  36
BRANCH  26  38
HETATM   38  O6  UNL     1      12.999 -20.918  39.709  1.00  0.00    -0.388 OA
ATOM     39  H6  UNL     1      12.570 -21.502  40.324  1.00  0.00     0.210 HD
ENDBRANCH  26  38
ENDBRANCH  21  22
ENDBRANCH   1  21
TORSDOF 15
ENDMDL
MODEL 3
REMARK VINA RESULT: -8.302744053      3.204     10.138
REMARK  15 active torsions:
REMARK  status: ('A' for Active; 'I' for Inactive)
REMARK    1  A    between atoms: C2_2  and  C17_18 
REMARK    2  A    between atoms: C3_3  and  C4_4 
REMARK    3  A    between atoms: C4_4  and  C5_5 
REMARK    4  A    between atoms: C5_5  and  C6_6 
REMARK    5  A    between atoms: C7_7  and  C8_8 
REMARK    6  A    between atoms: C8_8  and  C9_9 
REMARK    7  A    between atoms: C9_9  and  C10_10 
REMARK    8  A    between atoms: C10_10  and  C11_11 
REMARK    9  A    between atoms: C11_11  and  C12_12 
REMARK   10  A    between atoms: C12_12  and  N1_13 
REMARK   11  A    between atoms: C17_18  and  O1_21 
REMARK   12  A    between atoms: O1_21  and  C20_22 
REMARK   13  A    between atoms: C21_24  and  N2_25 
REMARK   14  A    between atoms: C26_34  and  O5_35 
REMARK   15  A    between atoms: C27_37  and  O6_38 
ROOT
HETATM    1  C17 UNL     1      13.138 -20.844  35.007  1.00  0.00     0.080 C 
HETATM    2  C18 UNL     1      14.535 -20.618  34.556  1.00  0.00     0.051 C 
HETATM    3  C19 UNL     1      13.068 -22.355  35.373  1.00  0.00     0.051 C 
ENDROOT
BRANCH   1   4
HETATM    4  C2  UNL     1      12.138 -20.666  33.959  1.00  0.00    -0.050 C 
HETATM    5  C1  UNL     1      11.158 -19.529  34.088  1.00  0.00     0.046 C 
HETATM    6  C3  UNL     1      12.051 -21.452  32.920  1.00  0.00     0.013 C 
BRANCH   6   7
HETATM    7  C4  UNL     1      10.974 -21.150  31.934  1.00  0.00     0.056 C 
BRANCH   7   8
HETATM    8  C5  UNL     1      10.001 -21.949  31.603  1.00  0.00    -0.129 C 
BRANCH   8   9
HETATM    9  C6  UNL     1       9.000 -22.753  31.271  1.00  0.00     0.051 C 
HETATM   10  C7  UNL     1       8.506 -23.676  32.143  1.00  0.00    -0.018 C 
BRANCH  10  11
HETATM   11  C8  UNL     1       7.390 -24.544  31.742  1.00  0.00     0.028 C 
BRANCH  11  12
HETATM   12  C9  UNL     1       6.467 -24.883  32.858  1.00  0.00     0.004 C 
BRANCH  12  13
HETATM   13  C10 UNL     1       5.537 -23.754  33.289  1.00  0.00     0.002 C 
BRANCH  13  14
HETATM   14  C11 UNL     1       5.719 -23.624  34.801  1.00  0.00     0.028 C 
BRANCH  14  15
HETATM   15  C12 UNL     1       6.435 -22.363  35.145  1.00  0.00     0.237 C 
BRANCH  15  16
HETATM   16  N1  UNL     1       7.641 -22.620  35.858  1.00  0.00    -0.071 N 
HETATM   17  C13 UNL     1       7.713 -24.008  36.326  1.00  0.00     0.272 C 
HETATM   18  C14 UNL     1       7.750 -21.665  36.967  1.00  0.00     0.238 C 
HETATM   19  C15 UNL     1       9.171 -21.397  36.612  1.00  0.00     0.056 C 
HETATM   20  C16 UNL     1       8.871 -22.155  35.303  1.00  0.00     0.238 C 
ENDBRANCH  15  16
ENDBRANCH  14  15
ENDBRANCH  13  14
ENDBRANCH  12  13
ENDBRANCH  11  12
ENDBRANCH  10  11
ENDBRANCH   8   9
ENDBRANCH   7   8
ENDBRANCH   6   7
ENDBRANCH   1   4
BRANCH   1  21
HETATM   21  O1  UNL     1      12.862 -20.188  36.180  1.00  0.00    -0.344 OA
BRANCH  21  22
HETATM   22  C20 UNL     1      12.943 -20.899  37.337  1.00  0.00     0.295 C 
HETATM   23  O2  UNL     1      14.256 -20.896  37.796  1.00  0.00    -0.331 OA
HETATM   24  C21 UNL     1      14.405 -19.863  38.721  1.00  0.00     0.266 C 
HETATM   25  C26 UNL     1      13.208 -18.987  38.585  1.00  0.00     0.201 C 
HETATM   26  C27 UNL     1      12.136 -20.083  38.372  1.00  0.00     0.206 C 
BRANCH  24  27
HETATM   27  N2  UNL     1      15.685 -19.236  38.627  1.00  0.00    -0.280 N 
HETATM   28  C22 UNL     1      16.065 -18.721  37.421  1.00  0.00     0.104 A 
HETATM   29  C23 UNL     1      17.274 -18.100  37.226  1.00  0.00     0.092 A 
HETATM   30  C24 UNL     1      18.113 -18.011  38.314  1.00  0.00     0.250 A 
HETATM   31  O3  UNL     1      19.264 -17.455  38.255  1.00  0.00    -0.268 OA
HETATM   32  N3  UNL     1      17.767 -18.507  39.501  1.00  0.00    -0.275 N 
HETATM   33  C25 UNL     1      16.566 -19.104  39.631  1.00  0.00     0.331 A 
ATOM     34  H3  UNL     1      18.400 -18.436  40.298  1.00  0.00     0.173 HD
HETATM   35  O4  UNL     1      16.269 -19.554  40.766  1.00  0.00    -0.246 OA
ENDBRANCH  24  27
BRANCH  25  36
HETATM   36  O5  UNL     1      12.866 -18.238  39.677  1.00  0.00    -0.388 OA
ATOM     37  H5  UNL     1      13.229 -17.361  39.725  1.00  0.00     0.210 HD
ENDBRANCH  25  36
BRANCH  26  38
HETATM   38  O6  UNL     1      12.043 -20.762  39.553  1.00  0.00    -0.388 OA
ATOM     39  H6  UNL     1      12.209 -21.688  39.421  1.00  0.00     0.210 HD
ENDBRANCH  26  38
ENDBRANCH  21  22
ENDBRANCH   1  21
TORSDOF 15
ENDMDL
MODEL 4
REMARK VINA RESULT: -8.239002156      1.557      2.764
REMARK  15 active torsions:
REMARK  status: ('A' for Active; 'I' for Inactive)
REMARK    1  A    between atoms: C2_2  and  C17_18 
REMARK    2  A    between atoms: C3_3  and  C4_4 
REMARK    3  A    between atoms: C4_4  and  C5_5 
REMARK    4  A    between atoms: C5_5  and  C6_6 
REMARK    5  A    between atoms: C7_7  and  C8_8 
REMARK    6  A    between atoms: C8_8  and  C9_9 
REMARK    7  A    between atoms: C9_9  and  C10_10 
REMARK    8  A    between atoms: C10_10  and  C11_11 
REMARK    9  A    between atoms: C11_11  and  C12_12 
REMARK   10  A    between atoms: C12_12  and  N1_13 
REMARK   11  A    between atoms: C17_18  and  O1_21 
REMARK   12  A    between atoms: O1_21  and  C20_22 
REMARK   13  A    between atoms: C21_24  and  N2_25 
REMARK   14  A    between atoms: C26_34  and  O5_35 
REMARK   15  A    between atoms: C27_37  and  O6_38 
ROOT
HETATM    1  C17 UNL     1      11.577 -20.570  35.348  1.00  0.00     0.080 C 
HETATM    2  C18 UNL     1      12.983 -20.643  34.873  1.00  0.00     0.051 C 
HETATM    3  C19 UNL     1      11.183 -19.070  35.222  1.00  0.00     0.051 C 
ENDROOT
BRANCH   1   4
HETATM    4  C2  UNL     1      11.410 -20.883  36.763  1.00  0.00    -0.050 C 
HETATM    5  C1  UNL     1      10.012 -21.030  37.304  1.00  0.00     0.046 C 
HETATM    6  C3  UNL     1      12.417 -21.035  37.580  1.00  0.00     0.013 C 
BRANCH   6   7
HETATM    7  C4  UNL     1      12.091 -21.347  39.002  1.00  0.00     0.056 C 
BRANCH   7   8
HETATM    8  C5  UNL     1      12.558 -20.722  40.044  1.00  0.00    -0.129 C 
BRANCH   8   9
HETATM    9  C6  UNL     1      13.022 -20.091  41.113  1.00  0.00     0.051 C 
HETATM   10  C7  UNL     1      14.339 -20.139  41.455  1.00  0.00    -0.018 C 
BRANCH  10  11
HETATM   11  C8  UNL     1      14.819 -19.420  42.643  1.00  0.00     0.028 C 
BRANCH  11  12
HETATM   12  C9  UNL     1      15.953 -18.499  42.366  1.00  0.00     0.004 C 
BRANCH  12  13
HETATM   13  C10 UNL     1      15.781 -17.617  41.134  1.00  0.00     0.002 C 
BRANCH  13  14
HETATM   14  C11 UNL     1      17.149 -17.585  40.454  1.00  0.00     0.028 C 
BRANCH  14  15
HETATM   15  C12 UNL     1      17.214 -18.576  39.341  1.00  0.00     0.237 C 
BRANCH  15  16
HETATM   16  N1  UNL     1      18.026 -18.109  38.268  1.00  0.00    -0.071 N 
HETATM   17  C13 UNL     1      18.578 -16.778  38.540  1.00  0.00     0.272 C 
HETATM   18  C14 UNL     1      17.238 -18.130  37.031  1.00  0.00     0.238 C 
HETATM   19  C15 UNL     1      18.366 -18.778  36.308  1.00  0.00     0.056 C 
HETATM   20  C16 UNL     1      18.984 -19.004  37.703  1.00  0.00     0.238 C 
ENDBRANCH  15  16
ENDBRANCH  14  15
ENDBRANCH  13  14
ENDBRANCH  12  13
ENDBRANCH  11  12
ENDBRANCH  10  11
ENDBRANCH   8   9
ENDBRANCH   7   8
ENDBRANCH   6   7
ENDBRANCH   1   4
BRANCH   1  21
HETATM   21  O1  UNL     1      10.714 -21.229  34.509  1.00  0.00    -0.344 OA
BRANCH  21  22
HETATM   22  C20 UNL     1      11.245 -21.883  33.441  1.00  0.00     0.295 C 
HETATM   23  O2  UNL     1      10.527 -23.051  33.204  1.00  0.00    -0.331 OA
HETATM   24  C21 UNL     1       9.557 -22.793  32.238  1.00  0.00     0.266 C 
HETATM   25  C26 UNL     1       9.463 -21.312  32.106  1.00  0.00     0.201 C 
HETATM   26  C27 UNL     1      10.967 -20.969  32.226  1.00  0.00     0.206 C 
BRANCH  24  27
HETATM   27  N2  UNL     1       8.342 -23.502  32.490  1.00  0.00    -0.280 N 
HETATM   28  C22 UNL     1       7.787 -23.410  33.734  1.00  0.00     0.104 A 
HETATM   29  C23 UNL     1       6.623 -24.053  34.078  1.00  0.00     0.092 A 
HETATM   30  C24 UNL     1       6.019 -24.814  33.103  1.00  0.00     0.250 A 
HETATM   31  O3  UNL     1       4.932 -25.459  33.306  1.00  0.00    -0.268 OA
HETATM   32  N3  UNL     1       6.541 -24.922  31.883  1.00  0.00    -0.275 N 
HETATM   33  C25 UNL     1       7.684 -24.266  31.604  1.00  0.00     0.331 A 
ATOM     34  H3  UNL     1       6.083 -25.492  31.171  1.00  0.00     0.173 HD
HETATM   35  O4  UNL     1       8.145 -24.384  30.441  1.00  0.00    -0.246 OA
ENDBRANCH  24  27
BRANCH  25  36
HETATM   36  O5  UNL     1       8.991 -20.829  30.917  1.00  0.00    -0.388 OA
ATOM     37  H5  UNL     1       9.632 -20.464  30.318  1.00  0.00     0.210 HD
ENDBRANCH  25  36
BRANCH  26  38
HETATM   38  O6  UNL     1      11.565 -21.466  31.103  1.00  0.00    -0.388 OA
ATOM     39  H6  UNL     1      11.526 -20.833  30.395  1.00  0.00     0.210 HD
ENDBRANCH  26  38
ENDBRANCH  21  22
ENDBRANCH   1  21
TORSDOF 15
ENDMDL
MODEL 5
REMARK VINA RESULT: -8.220891664      1.688      3.136
REMARK  15 active torsions:
REMARK  status: ('A' for Active; 'I' for Inactive)
REMARK    1  A    between atoms: C2_2  and  C17_18 
REMARK    2  A    between atoms: C3_3  and  C4_4 
REMARK    3  A    between atoms: C4_4  and  C5_5 
REMARK    4  A    between atoms: C5_5  and  C6_6 
REMARK    5  A    between atoms: C7_7  and  C8_8 
REMARK    6  A    between atoms: C8_8  and  C9_9 
REMARK    7  A    between atoms: C9_9  and  C10_10 
REMARK    8  A    between atoms: C10_10  and  C11_11 
REMARK    9  A    between atoms: C11_11  and  C12_12 
REMARK   10  A    between atoms: C12_12  and  N1_13 
REMARK   11  A    between atoms: C17_18  and  O1_21 
REMARK   12  A    between atoms: O1_21  and  C20_22 
REMARK   13  A    between atoms: C21_24  and  N2_25 
REMARK   14  A    between atoms: C26_34  and  O5_35 
REMARK   15  A    between atoms: C27_37  and  O6_38 
ROOT
HETATM    1  C17 UNL     1      12.905 -21.180  35.643  1.00  0.00     0.080 C 
HETATM    2  C18 UNL     1      13.546 -22.515  35.521  1.00  0.00     0.051 C 
HETATM    3  C19 UNL     1      14.049 -20.155  35.394  1.00  0.00     0.051 C 
ENDROOT
BRANCH   1   4
HETATM    4  C2  UNL     1      12.415 -20.876  36.983  1.00  0.00    -0.050 C 
HETATM    5  C1  UNL     1      11.395 -19.778  37.141  1.00  0.00     0.046 C 
HETATM    6  C3  UNL     1      12.826 -21.507  38.050  1.00  0.00     0.013 C 
BRANCH   6   7
HETATM    7  C4  UNL     1      12.240 -21.081  39.353  1.00  0.00     0.056 C 
BRANCH   7   8
HETATM    8  C5  UNL     1      12.837 -20.356  40.255  1.00  0.00    -0.129 C 
BRANCH   8   9
HETATM    9  C6  UNL     1      13.454 -19.628  41.175  1.00  0.00     0.051 C 
HETATM   10  C7  UNL     1      14.714 -19.929  41.596  1.00  0.00    -0.018 C 
BRANCH  10  11
HETATM   11  C8  UNL     1      15.370 -19.093  42.612  1.00  0.00     0.028 C 
BRANCH  11  12
HETATM   12  C9  UNL     1      16.575 -18.380  42.111  1.00  0.00     0.004 C 
BRANCH  12  13
HETATM   13  C10 UNL     1      16.292 -17.255  41.121  1.00  0.00     0.002 C 
BRANCH  13  14
HETATM   14  C11 UNL     1      17.438 -17.296  40.112  1.00  0.00     0.028 C 
BRANCH  14  15
HETATM   15  C12 UNL     1      17.323 -18.488  39.223  1.00  0.00     0.237 C 
BRANCH  15  16
HETATM   16  N1  UNL     1      17.841 -18.227  37.922  1.00  0.00    -0.071 N 
HETATM   17  C13 UNL     1      19.080 -18.967  37.669  1.00  0.00     0.272 C 
HETATM   18  C14 UNL     1      18.030 -16.779  37.767  1.00  0.00     0.238 C 
HETATM   19  C15 UNL     1      17.377 -16.825  36.430  1.00  0.00     0.056 C 
HETATM   20  C16 UNL     1      16.940 -18.253  36.815  1.00  0.00     0.238 C 
ENDBRANCH  15  16
ENDBRANCH  14  15
ENDBRANCH  13  14
ENDBRANCH  12  13
ENDBRANCH  11  12
ENDBRANCH  10  11
ENDBRANCH   8   9
ENDBRANCH   7   8
ENDBRANCH   6   7
ENDBRANCH   1   4
BRANCH   1  21
HETATM   21  O1  UNL     1      12.003 -20.947  34.636  1.00  0.00    -0.344 OA
BRANCH  21  22
HETATM   22  C20 UNL     1      11.940 -21.850  33.620  1.00  0.00     0.295 C 
HETATM   23  O2  UNL     1      10.924 -22.766  33.871  1.00  0.00    -0.331 OA
HETATM   24  C21 UNL     1       9.766 -22.340  33.222  1.00  0.00     0.266 C 
HETATM   25  C26 UNL     1       9.996 -20.926  32.814  1.00  0.00     0.201 C 
HETATM   26  C27 UNL     1      11.479 -21.042  32.386  1.00  0.00     0.206 C 
BRANCH  24  27
HETATM   27  N2  UNL     1       8.589 -22.615  33.982  1.00  0.00    -0.280 N 
HETATM   28  C22 UNL     1       8.412 -21.951  35.162  1.00  0.00     0.104 A 
HETATM   29  C23 UNL     1       7.316 -22.144  35.967  1.00  0.00     0.092 A 
HETATM   30  C24 UNL     1       6.377 -23.052  35.535  1.00  0.00     0.250 A 
HETATM   31  O3  UNL     1       5.315 -23.316  36.198  1.00  0.00    -0.268 OA
HETATM   32  N3  UNL     1       6.526 -23.715  34.389  1.00  0.00    -0.275 N 
HETATM   33  C25 UNL     1       7.622 -23.481  33.641  1.00  0.00     0.331 A 
ATOM     34  H3  UNL     1       5.822 -24.388  34.083  1.00  0.00     0.173 HD
HETATM   35  O4  UNL     1       7.727 -24.118  32.563  1.00  0.00    -0.246 OA
ENDBRANCH  24  27
BRANCH  25  36
HETATM   36  O5  UNL     1       9.264 -20.464  31.756  1.00  0.00    -0.388 OA
ATOM     37  H5  UNL     1       8.598 -19.814  31.948  1.00  0.00     0.210 HD
ENDBRANCH  25  36
BRANCH  26  38
HETATM   38  O6  UNL     1      11.495 -21.823  31.266  1.00  0.00    -0.388 OA
ATOM     39  H6  UNL     1      11.664 -21.297  30.493  1.00  0.00     0.210 HD
ENDBRANCH  26  38
ENDBRANCH  21  22
ENDBRANCH   1  21
TORSDOF 15
ENDMDL
