MODEL 1
REMARK VINA RESULT: -8.376052876      0.000      0.000
REMARK  12 active torsions:
REMARK  status: ('A' for Active; 'I' for Inactive)
REMARK    1  A    between atoms: C2_2  and  O1_3 
REMARK    2  A    between atoms: O1_3  and  C3_4 
REMARK    3  A    between atoms: C3_4  and  C4_6 
REMARK    4  A    between atoms: C4_6  and  S1_7 
REMARK    5  A    between atoms: S1_7  and  C5_8 
REMARK    6  A    between atoms: C7_10  and  C8_11 
REMARK    7  A    between atoms: C8_11  and  N1_12 
REMARK    8  A    between atoms: N1_12  and  C9_14 
REMARK    9  A    between atoms: C17_22  and  O3_23 
REMARK   10  A    between atoms: C19_25  and  C20_26 
REMARK       I    between atoms: C20_26  and  N2_28 
REMARK   11  A    between atoms: N2_28  and  C21_30 
REMARK   12  A    between atoms: C21_30  and  C22_31 
REMARK       I    between atoms: C22_31  and  N3_33 
ROOT
HETATM    1  C5  UNL     1      21.744  31.850  14.946  1.00  0.00     0.049 C 
HETATM    2  C6  UNL     1      20.763  31.247  15.875  1.00  0.00     0.024 C 
HETATM    3  C7  UNL     1      19.900  30.174  15.339  1.00  0.00     0.034 C 
HETATM    4  C17 UNL     1      20.009  29.845  13.884  1.00  0.00     0.139 C 
HETATM    5  C19 UNL     1      21.207  30.336  13.161  1.00  0.00     0.108 C 
HETATM    6  C26 UNL     1      22.354  30.754  14.087  1.00  0.00     0.032 C 
ENDROOT
BRANCH   5   7
HETATM    7  C20 UNL     1      21.837  29.286  12.279  1.00  0.00     0.225 C 
HETATM    8  O4  UNL     1      21.505  29.274  11.089  1.00  0.00    -0.273 OA
HETATM    9  N2  UNL     1      22.762  28.361  12.797  1.00  0.00    -0.343 N 
ATOM     10  H2  UNL     1      22.995  28.418  13.789  1.00  0.00     0.163 HD
BRANCH   9  11
HETATM   11  C21 UNL     1      23.395  27.346  12.017  1.00  0.00     0.114 A 
HETATM   12  C24 UNL     1      24.839  27.021  12.455  1.00  0.00     0.044 A 
HETATM   13  C25 UNL     1      24.536  27.601  11.106  1.00  0.00     0.044 A 
BRANCH  11  14
HETATM   14  C22 UNL     1      22.604  26.101  11.712  1.00  0.00     0.245 C 
HETATM   15  O5  UNL     1      23.242  25.050  11.376  1.00  0.00    -0.271 OA
HETATM   16  N3  UNL     1      21.207  26.043  11.780  1.00  0.00    -0.363 N 
HETATM   17  C23 UNL     1      20.524  24.773  11.464  1.00  0.00     0.149 C 
ATOM     18  H3  UNL     1      20.668  26.868  12.045  1.00  0.00     0.162 HD
ENDBRANCH  11  14
ENDBRANCH   9  11
ENDBRANCH   5   7
BRANCH   4  19
HETATM   19  O3  UNL     1      18.897  30.359  13.171  1.00  0.00    -0.389 OA
HETATM   20  C18 UNL     1      18.213  29.420  12.455  1.00  0.00     0.202 C 
ENDBRANCH   4  19
BRANCH   3  21
HETATM   21  C8  UNL     1      18.437  30.546  15.634  1.00  0.00     0.121 C 
BRANCH  21  22
HETATM   22  N1  UNL     1      18.201  31.934  15.599  1.00  0.00    -0.417 N 
ATOM     23  H1  UNL     1      18.633  32.525  14.890  1.00  0.00     0.153 HD
BRANCH  22  24
HETATM   24  C9  UNL     1      17.338  32.480  16.588  1.00  0.00     0.076 C 
HETATM   25  C10 UNL     1      15.983  32.891  16.120  1.00  0.00     0.025 C 
HETATM   26  C11 UNL     1      15.922  34.379  15.789  1.00  0.00     0.011 C 
HETATM   27  C12 UNL     1      15.992  35.206  17.063  1.00  0.00    -0.048 C 
HETATM   28  C13 UNL     1      16.598  36.558  16.706  1.00  0.00     0.015 C 
HETATM   29  C14 UNL     1      14.634  35.405  17.683  1.00  0.00     0.015 C 
HETATM   30  C15 UNL     1      16.886  34.444  18.017  1.00  0.00     0.011 C 
HETATM   31  C16 UNL     1      17.971  33.672  17.283  1.00  0.00     0.025 C 
ENDBRANCH  22  24
ENDBRANCH  21  22
ENDBRANCH   3  21
BRANCH   1  32
HETATM   32  S1  UNL     1      23.045  32.769  15.765  1.00  0.00    -0.154 SA
BRANCH  32  33
HETATM   33  C4  UNL     1      22.820  33.120  17.484  1.00  0.00     0.185 C 
BRANCH  33  34
HETATM   34  C3  UNL     1      22.507  34.515  17.853  1.00  0.00     0.268 C 
HETATM   35  O2  UNL     1      23.031  35.110  18.827  1.00  0.00    -0.264 OA
BRANCH  34  36
HETATM   36  O1  UNL     1      21.580  35.271  17.114  1.00  0.00    -0.321 OA
BRANCH  36  37
HETATM   37  C2  UNL     1      21.411  36.648  17.333  1.00  0.00     0.174 C 
HETATM   38  C1  UNL     1      20.075  36.862  18.029  1.00  0.00     0.034 C 
ENDBRANCH  36  37
ENDBRANCH  34  36
ENDBRANCH  33  34
ENDBRANCH  32  33
ENDBRANCH   1  32
TORSDOF 12
ENDMDL
MODEL 2
REMARK VINA RESULT: -8.306078338      3.596      6.461
REMARK  12 active torsions:
REMARK  status: ('A' for Active; 'I' for Inactive)
REMARK    1  A    between atoms: C2_2  and  O1_3 
REMARK    2  A    between atoms: O1_3  and  C3_4 
REMARK    3  A    between atoms: C3_4  and  C4_6 
REMARK    4  A    between atoms: C4_6  and  S1_7 
REMARK    5  A    between atoms: S1_7  and  C5_8 
REMARK    6  A    between atoms: C7_10  and  C8_11 
REMARK    7  A    between atoms: C8_11  and  N1_12 
REMARK    8  A    between atoms: N1_12  and  C9_14 
REMARK    9  A    between atoms: C17_22  and  O3_23 
REMARK   10  A    between atoms: C19_25  and  C20_26 
REMARK       I    between atoms: C20_26  and  N2_28 
REMARK   11  A    between atoms: N2_28  and  C21_30 
REMARK   12  A    between atoms: C21_30  and  C22_31 
REMARK       I    between atoms: C22_31  and  N3_33 
ROOT
HETATM    1  C5  UNL     1      21.079  28.268  12.470  1.00  0.00     0.049 C 
HETATM    2  C6  UNL     1      20.241  28.271  13.689  1.00  0.00     0.024 C 
HETATM    3  C7  UNL     1      18.801  27.991  13.516  1.00  0.00     0.034 C 
HETATM    4  C17 UNL     1      18.280  27.825  12.124  1.00  0.00     0.139 C 
HETATM    5  C19 UNL     1      19.271  27.582  11.048  1.00  0.00     0.108 C 
HETATM    6  C26 UNL     1      20.639  27.129  11.567  1.00  0.00     0.032 C 
ENDROOT
BRANCH   5   7
HETATM    7  C20 UNL     1      18.867  26.469  10.113  1.00  0.00     0.225 C 
HETATM    8  O4  UNL     1      18.531  25.395  10.624  1.00  0.00    -0.273 OA
HETATM    9  N2  UNL     1      18.875  26.652   8.718  1.00  0.00    -0.343 N 
ATOM     10  H2  UNL     1      19.165  27.560   8.354  1.00  0.00     0.163 HD
BRANCH   9  11
HETATM   11  C21 UNL     1      18.502  25.641   7.781  1.00  0.00     0.114 A 
HETATM   12  C24 UNL     1      17.719  26.170   6.560  1.00  0.00     0.044 A 
HETATM   13  C25 UNL     1      17.102  25.219   7.541  1.00  0.00     0.044 A 
BRANCH  11  14
HETATM   14  C22 UNL     1      19.548  24.631   7.386  1.00  0.00     0.245 C 
HETATM   15  O5  UNL     1      19.174  23.431   7.171  1.00  0.00    -0.271 OA
HETATM   16  N3  UNL     1      20.904  24.946   7.243  1.00  0.00    -0.363 N 
HETATM   17  C23 UNL     1      21.850  23.883   6.850  1.00  0.00     0.149 C 
ATOM     18  H3  UNL     1      21.234  25.896   7.409  1.00  0.00     0.162 HD
ENDBRANCH  11  14
ENDBRANCH   9  11
ENDBRANCH   5   7
BRANCH   4  19
HETATM   19  O3  UNL     1      17.555  28.976  11.722  1.00  0.00    -0.389 OA
HETATM   20  C18 UNL     1      16.425  28.700  11.008  1.00  0.00     0.202 C 
ENDBRANCH   4  19
BRANCH   3  21
HETATM   21  C8  UNL     1      18.010  29.124  14.189  1.00  0.00     0.121 C 
BRANCH  21  22
HETATM   22  N1  UNL     1      18.565  30.398  13.961  1.00  0.00    -0.417 N 
ATOM     23  H1  UNL     1      18.907  30.668  13.038  1.00  0.00     0.153 HD
BRANCH  22  24
HETATM   24  C9  UNL     1      18.634  31.293  15.062  1.00  0.00     0.076 C 
HETATM   25  C10 UNL     1      17.471  31.273  15.997  1.00  0.00     0.025 C 
HETATM   26  C11 UNL     1      16.454  32.360  15.665  1.00  0.00     0.011 C 
HETATM   27  C12 UNL     1      17.012  33.730  16.014  1.00  0.00    -0.048 C 
HETATM   28  C13 UNL     1      16.344  34.750  15.102  1.00  0.00     0.015 C 
HETATM   29  C14 UNL     1      16.759  34.092  17.454  1.00  0.00     0.015 C 
HETATM   30  C15 UNL     1      18.502  33.662  15.756  1.00  0.00     0.011 C 
HETATM   31  C16 UNL     1      18.835  32.727  14.604  1.00  0.00     0.025 C 
ENDBRANCH  22  24
ENDBRANCH  21  22
ENDBRANCH   3  21
BRANCH   1  32
HETATM   32  S1  UNL     1      22.835  28.134  12.801  1.00  0.00    -0.154 SA
BRANCH  32  33
HETATM   33  C4  UNL     1      23.875  27.682  11.443  1.00  0.00     0.185 C 
BRANCH  33  34
HETATM   34  C3  UNL     1      24.766  26.520  11.632  1.00  0.00     0.268 C 
HETATM   35  O2  UNL     1      25.970  26.617  11.975  1.00  0.00    -0.264 OA
BRANCH  34  36
HETATM   36  O1  UNL     1      24.301  25.208  11.432  1.00  0.00    -0.321 OA
BRANCH  36  37
HETATM   37  C2  UNL     1      23.599  24.844  10.271  1.00  0.00     0.174 C 
HETATM   38  C1  UNL     1      24.447  25.216   9.064  1.00  0.00     0.034 C 
ENDBRANCH  36  37
ENDBRANCH  34  36
ENDBRANCH  33  34
ENDBRANCH  32  33
ENDBRANCH   1  32
TORSDOF 12
ENDMDL
MODEL 3
REMARK VINA RESULT: -8.253145745      1.402      2.077
REMARK  12 active torsions:
REMARK  status: ('A' for Active; 'I' for Inactive)
REMARK    1  A    between atoms: C2_2  and  O1_3 
REMARK    2  A    between atoms: O1_3  and  C3_4 
REMARK    3  A    between atoms: C3_4  and  C4_6 
REMARK    4  A    between atoms: C4_6  and  S1_7 
REMARK    5  A    between atoms: S1_7  and  C5_8 
REMARK    6  A    between atoms: C7_10  and  C8_11 
REMARK    7  A    between atoms: C8_11  and  N1_12 
REMARK    8  A    between atoms: N1_12  and  C9_14 
REMARK    9  A    between atoms: C17_22  and  O3_23 
REMARK   10  A    between atoms: C19_25  and  C20_26 
REMARK       I    between atoms: C20_26  and  N2_28 
REMARK   11  A    between atoms: N2_28  and  C21_30 
REMARK   12  A    between atoms: C21_30  and  C22_31 
REMARK       I    between atoms: C22_31  and  N3_33 
ROOT
HETATM    1  C5  UNL     1      21.296  31.505  13.656  1.00  0.00     0.049 C 
HETATM    2  C6  UNL     1      20.113  31.570  14.542  1.00  0.00     0.024 C 
HETATM    3  C7  UNL     1      19.086  30.522  14.370  1.00  0.00     0.034 C 
HETATM    4  C17 UNL     1      19.264  29.539  13.257  1.00  0.00     0.139 C 
HETATM    5  C19 UNL     1      20.610  29.440  12.643  1.00  0.00     0.108 C 
HETATM    6  C26 UNL     1      21.721  30.055  13.499  1.00  0.00     0.032 C 
ENDROOT
BRANCH   5   7
HETATM    7  C20 UNL     1      21.068  28.015  12.450  1.00  0.00     0.225 C 
HETATM    8  O4  UNL     1      21.621  27.465  13.408  1.00  0.00    -0.273 OA
HETATM    9  N2  UNL     1      20.871  27.347  11.228  1.00  0.00    -0.343 N 
ATOM     10  H2  UNL     1      20.411  27.854  10.472  1.00  0.00     0.163 HD
BRANCH   9  11
HETATM   11  C21 UNL     1      21.277  26.000  10.983  1.00  0.00     0.114 A 
HETATM   12  C24 UNL     1      20.452  25.279   9.896  1.00  0.00     0.044 A 
HETATM   13  C25 UNL     1      20.451  24.817  11.323  1.00  0.00     0.044 A 
BRANCH  11  14
HETATM   14  C22 UNL     1      22.753  25.727  10.845  1.00  0.00     0.245 C 
HETATM   15  O5  UNL     1      23.286  24.887  11.641  1.00  0.00    -0.271 OA
HETATM   16  N3  UNL     1      23.562  26.348   9.887  1.00  0.00    -0.363 N 
HETATM   17  C23 UNL     1      24.998  26.011   9.831  1.00  0.00     0.149 C 
ATOM     18  H3  UNL     1      23.165  27.025   9.235  1.00  0.00     0.162 HD
ENDBRANCH  11  14
ENDBRANCH   9  11
ENDBRANCH   5   7
BRANCH   4  19
HETATM   19  O3  UNL     1      18.378  29.829  12.188  1.00  0.00    -0.389 OA
HETATM   20  C18 UNL     1      17.573  28.785  11.834  1.00  0.00     0.202 C 
ENDBRANCH   4  19
BRANCH   3  21
HETATM   21  C8  UNL     1      17.725  31.214  14.180  1.00  0.00     0.121 C 
BRANCH  21  22
HETATM   22  N1  UNL     1      17.710  32.542  14.649  1.00  0.00    -0.417 N 
ATOM     23  H1  UNL     1      18.177  33.289  14.135  1.00  0.00     0.153 HD
BRANCH  22  24
HETATM   24  C9  UNL     1      17.020  32.803  15.864  1.00  0.00     0.076 C 
HETATM   25  C10 UNL     1      15.711  33.507  15.736  1.00  0.00     0.025 C 
HETATM   26  C11 UNL     1      15.853  35.013  15.935  1.00  0.00     0.011 C 
HETATM   27  C12 UNL     1      16.148  35.327  17.393  1.00  0.00    -0.048 C 
HETATM   28  C13 UNL     1      16.923  36.638  17.438  1.00  0.00     0.015 C 
HETATM   29  C14 UNL     1      14.888  35.452  18.209  1.00  0.00     0.015 C 
HETATM   30  C15 UNL     1      16.986  34.181  17.915  1.00  0.00     0.011 C 
HETATM   31  C16 UNL     1      17.880  33.594  16.833  1.00  0.00     0.025 C 
ENDBRANCH  22  24
ENDBRANCH  21  22
ENDBRANCH   3  21
BRANCH   1  32
HETATM   32  S1  UNL     1      22.683  32.483  14.230  1.00  0.00    -0.154 SA
BRANCH  32  33
HETATM   33  C4  UNL     1      23.164  32.279  15.920  1.00  0.00     0.185 C 
BRANCH  33  34
HETATM   34  C3  UNL     1      22.858  33.386  16.848  1.00  0.00     0.268 C 
HETATM   35  O2  UNL     1      23.722  33.953  17.560  1.00  0.00    -0.264 OA
BRANCH  34  36
HETATM   36  O1  UNL     1      21.548  33.875  16.987  1.00  0.00    -0.321 OA
BRANCH  36  37
HETATM   37  C2  UNL     1      21.200  35.174  16.582  1.00  0.00     0.174 C 
HETATM   38  C1  UNL     1      20.691  35.934  17.798  1.00  0.00     0.034 C 
ENDBRANCH  36  37
ENDBRANCH  34  36
ENDBRANCH  33  34
ENDBRANCH  32  33
ENDBRANCH   1  32
TORSDOF 12
ENDMDL
MODEL 4
REMARK VINA RESULT: -8.185268116      2.798      9.989
REMARK  12 active torsions:
REMARK  status: ('A' for Active; 'I' for Inactive)
REMARK    1  A    between atoms: C2_2  and  O1_3 
REMARK    2  A    between atoms: O1_3  and  C3_4 
REMARK    3  A    between atoms: C3_4  and  C4_6 
REMARK    4  A    between atoms: C4_6  and  S1_7 
REMARK    5  A    between atoms: S1_7  and  C5_8 
REMARK    6  A    between atoms: C7_10  and  C8_11 
REMARK    7  A    between atoms: C8_11  and  N1_12 
REMARK    8  A    between atoms: N1_12  and  C9_14 
REMARK    9  A    between atoms: C17_22  and  O3_23 
REMARK   10  A    between atoms: C19_25  and  C20_26 
REMARK       I    between atoms: C20_26  and  N2_28 
REMARK   11  A    between atoms: N2_28  and  C21_30 
REMARK   12  A    between atoms: C21_30  and  C22_31 
REMARK       I    between atoms: C22_31  and  N3_33 
ROOT
HETATM    1  C5  UNL     1      18.357  29.459  12.561  1.00  0.00     0.049 C 
HETATM    2  C6  UNL     1      19.088  28.492  13.409  1.00  0.00     0.024 C 
HETATM    3  C7  UNL     1      20.072  29.042  14.362  1.00  0.00     0.034 C 
HETATM    4  C17 UNL     1      20.330  30.516  14.334  1.00  0.00     0.139 C 
HETATM    5  C19 UNL     1      19.340  31.368  13.633  1.00  0.00     0.108 C 
HETATM    6  C26 UNL     1      17.995  30.676  13.395  1.00  0.00     0.032 C 
ENDROOT
BRANCH   5   7
HETATM    7  C20 UNL     1      18.963  32.602  14.417  1.00  0.00     0.225 C 
HETATM    8  O4  UNL     1      19.846  33.445  14.603  1.00  0.00    -0.273 OA
HETATM    9  N2  UNL     1      17.658  32.777  14.914  1.00  0.00    -0.343 N 
ATOM     10  H2  UNL     1      16.972  32.045  14.731  1.00  0.00     0.163 HD
BRANCH   9  11
HETATM   11  C21 UNL     1      17.238  33.921  15.659  1.00  0.00     0.114 A 
HETATM   12  C24 UNL     1      15.723  33.962  15.951  1.00  0.00     0.044 A 
HETATM   13  C25 UNL     1      16.391  35.000  15.100  1.00  0.00     0.044 A 
BRANCH  11  14
HETATM   14  C22 UNL     1      18.055  34.312  16.863  1.00  0.00     0.245 C 
HETATM   15  O5  UNL     1      17.957  33.598  17.914  1.00  0.00    -0.271 OA
HETATM   16  N3  UNL     1      18.914  35.417  16.881  1.00  0.00    -0.363 N 
HETATM   17  C23 UNL     1      19.674  35.716  18.111  1.00  0.00     0.149 C 
ATOM     18  H3  UNL     1      19.013  36.008  16.056  1.00  0.00     0.162 HD
ENDBRANCH  11  14
ENDBRANCH   9  11
ENDBRANCH   5   7
BRANCH   4  19
HETATM   19  O3  UNL     1      21.576  30.793  13.717  1.00  0.00    -0.389 OA
HETATM   20  C18 UNL     1      22.462  31.449  14.521  1.00  0.00     0.202 C 
ENDBRANCH   4  19
BRANCH   3  21
HETATM   21  C8  UNL     1      21.411  28.320  14.137  1.00  0.00     0.121 C 
BRANCH  21  22
HETATM   22  N1  UNL     1      21.297  27.189  13.306  1.00  0.00    -0.417 N 
ATOM     23  H1  UNL     1      20.845  26.336  13.634  1.00  0.00     0.153 HD
BRANCH  22  24
HETATM   24  C9  UNL     1      21.835  27.280  11.993  1.00  0.00     0.076 C 
HETATM   25  C10 UNL     1      22.053  25.986  11.284  1.00  0.00     0.025 C 
HETATM   26  C11 UNL     1      23.488  25.492  11.428  1.00  0.00     0.011 C 
HETATM   27  C12 UNL     1      24.432  26.366  10.618  1.00  0.00    -0.048 C 
HETATM   28  C13 UNL     1      25.803  26.309  11.280  1.00  0.00     0.015 C 
HETATM   29  C14 UNL     1      24.538  25.907   9.188  1.00  0.00     0.015 C 
HETATM   30  C15 UNL     1      23.862  27.767  10.666  1.00  0.00     0.011 C 
HETATM   31  C16 UNL     1      23.147  28.042  11.980  1.00  0.00     0.025 C 
ENDBRANCH  22  24
ENDBRANCH  21  22
ENDBRANCH   3  21
BRANCH   1  32
HETATM   32  S1  UNL     1      16.880  28.785  11.803  1.00  0.00    -0.154 SA
BRANCH  32  33
HETATM   33  C4  UNL     1      17.081  27.949  10.257  1.00  0.00     0.185 C 
BRANCH  33  34
HETATM   34  C3  UNL     1      18.031  26.819  10.218  1.00  0.00     0.268 C 
HETATM   35  O2  UNL     1      18.152  25.982  11.145  1.00  0.00    -0.264 OA
BRANCH  34  36
HETATM   36  O1  UNL     1      18.872  26.616   9.110  1.00  0.00    -0.321 OA
BRANCH  36  37
HETATM   37  C2  UNL     1      18.382  26.661   7.795  1.00  0.00     0.174 C 
HETATM   38  C1  UNL     1      17.571  25.398   7.543  1.00  0.00     0.034 C 
ENDBRANCH  36  37
ENDBRANCH  34  36
ENDBRANCH  33  34
ENDBRANCH  32  33
ENDBRANCH   1  32
TORSDOF 12
ENDMDL
MODEL 5
REMARK VINA RESULT: -8.145548787      2.780      4.631
REMARK  12 active torsions:
REMARK  status: ('A' for Active; 'I' for Inactive)
REMARK    1  A    between atoms: C2_2  and  O1_3 
REMARK    2  A    between atoms: O1_3  and  C3_4 
REMARK    3  A    between atoms: C3_4  and  C4_6 
REMARK    4  A    between atoms: C4_6  and  S1_7 
REMARK    5  A    between atoms: S1_7  and  C5_8 
REMARK    6  A    between atoms: C7_10  and  C8_11 
REMARK    7  A    between atoms: C8_11  and  N1_12 
REMARK    8  A    between atoms: N1_12  and  C9_14 
REMARK    9  A    between atoms: C17_22  and  O3_23 
REMARK   10  A    between atoms: C19_25  and  C20_26 
REMARK       I    between atoms: C20_26  and  N2_28 
REMARK   11  A    between atoms: N2_28  and  C21_30 
REMARK   12  A    between atoms: C21_30  and  C22_31 
REMARK       I    between atoms: C22_31  and  N3_33 
ROOT
HETATM    1  C5  UNL     1      17.752  32.246  15.953  1.00  0.00     0.049 C 
HETATM    2  C6  UNL     1      18.409  33.571  15.913  1.00  0.00     0.024 C 
HETATM    3  C7  UNL     1      19.784  33.624  15.375  1.00  0.00     0.034 C 
HETATM    4  C17 UNL     1      20.445  32.334  15.005  1.00  0.00     0.139 C 
HETATM    5  C19 UNL     1      19.576  31.143  14.848  1.00  0.00     0.108 C 
HETATM    6  C26 UNL     1      18.092  31.484  14.682  1.00  0.00     0.032 C 
ENDROOT
BRANCH   5   7
HETATM    7  C20 UNL     1      19.889  30.343  13.607  1.00  0.00     0.225 C 
HETATM    8  O4  UNL     1      19.417  30.748  12.539  1.00  0.00    -0.273 OA
HETATM    9  N2  UNL     1      20.686  29.185  13.670  1.00  0.00    -0.343 N 
ATOM     10  H2  UNL     1      21.046  28.899  14.580  1.00  0.00     0.163 HD
BRANCH   9  11
HETATM   11  C21 UNL     1      21.022  28.388  12.534  1.00  0.00     0.114 A 
HETATM   12  C24 UNL     1      22.405  27.709  12.624  1.00  0.00     0.044 A 
HETATM   13  C25 UNL     1      22.096  28.734  11.574  1.00  0.00     0.044 A 
BRANCH  11  14
HETATM   14  C22 UNL     1      19.969  27.452  11.999  1.00  0.00     0.245 C 
HETATM   15  O5  UNL     1      20.000  27.158  10.759  1.00  0.00    -0.271 OA
HETATM   16  N3  UNL     1      18.963  26.893  12.795  1.00  0.00    -0.363 N 
HETATM   17  C23 UNL     1      17.977  25.985  12.175  1.00  0.00     0.149 C 
ATOM     18  H3  UNL     1      18.911  27.110  13.790  1.00  0.00     0.162 HD
ENDBRANCH  11  14
ENDBRANCH   9  11
ENDBRANCH   5   7
BRANCH   4  19
HETATM   19  O3  UNL     1      21.414  31.973  15.976  1.00  0.00    -0.389 OA
HETATM   20  C18 UNL     1      22.652  31.721  15.459  1.00  0.00     0.202 C 
ENDBRANCH   4  19
BRANCH   3  21
HETATM   21  C8  UNL     1      20.674  34.336  16.408  1.00  0.00     0.121 C 
BRANCH  21  22
HETATM   22  N1  UNL     1      20.158  34.276  17.717  1.00  0.00    -0.417 N 
ATOM     23  H1  UNL     1      19.839  33.395  18.119  1.00  0.00     0.153 HD
BRANCH  22  24
HETATM   24  C9  UNL     1      20.099  35.488  18.457  1.00  0.00     0.076 C 
HETATM   25  C10 UNL     1      18.738  35.940  18.867  1.00  0.00     0.025 C 
HETATM   26  C11 UNL     1      18.155  36.953  17.887  1.00  0.00     0.011 C 
HETATM   27  C12 UNL     1      18.888  38.280  18.002  1.00  0.00    -0.048 C 
HETATM   28  C13 UNL     1      18.788  38.985  16.655  1.00  0.00     0.015 C 
HETATM   29  C14 UNL     1      18.303  39.156  19.079  1.00  0.00     0.015 C 
HETATM   30  C15 UNL     1      20.326  37.946  18.336  1.00  0.00     0.011 C 
HETATM   31  C16 UNL     1      20.761  36.631  17.709  1.00  0.00     0.025 C 
ENDBRANCH  22  24
ENDBRANCH  21  22
ENDBRANCH   3  21
BRANCH   1  32
HETATM   32  S1  UNL     1      15.974  32.327  16.152  1.00  0.00    -0.154 SA
BRANCH  32  33
HETATM   33  C4  UNL     1      15.248  33.938  16.232  1.00  0.00     0.185 C 
BRANCH  33  34
HETATM   34  C3  UNL     1      15.174  34.581  17.559  1.00  0.00     0.268 C 
HETATM   35  O2  UNL     1      15.474  33.999  18.630  1.00  0.00    -0.264 OA
BRANCH  34  36
HETATM   36  O1  UNL     1      14.753  35.915  17.697  1.00  0.00    -0.321 OA
BRANCH  36  37
HETATM   37  C2  UNL     1      14.393  36.449  18.945  1.00  0.00     0.174 C 
HETATM   38  C1  UNL     1      14.787  37.918  18.968  1.00  0.00     0.034 C 
ENDBRANCH  36  37
ENDBRANCH  34  36
ENDBRANCH  33  34
ENDBRANCH  32  33
ENDBRANCH   1  32
TORSDOF 12
ENDMDL
