MODEL 1
REMARK VINA RESULT: -8.679616968      0.000      0.000
REMARK  9 active torsions:
REMARK  status: ('A' for Active; 'I' for Inactive)
REMARK    1  A    between atoms: C2_2  and  C3_3 
REMARK    2  A    between atoms: C3_3  and  C4_4 
REMARK    3  A    between atoms: C6_9  and  C7_10 
REMARK    4  A    between atoms: C7_10  and  C8_11 
REMARK    5  A    between atoms: C16_22  and  C17_23 
REMARK    6  A    between atoms: C22_30  and  C23_31 
REMARK    7  A    between atoms: C23_31  and  C24_32 
REMARK    8  A    between atoms: C27_36  and  C28_37 
REMARK    9  A    between atoms: C28_37  and  C29_38 
ROOT
HETATM    1  C4  UNL     1      20.351  31.388  14.442  1.00  0.00     0.176 C 
HETATM    2  N1  UNL     1      19.419  30.465  15.024  1.00  0.00    -0.346 N 
ATOM      3  H1  UNL     1      19.570  30.300  16.019  1.00  0.00     0.163 HD
HETATM    4  C5  UNL     1      18.359  29.761  14.499  1.00  0.00     0.241 C 
HETATM    5  O1  UNL     1      18.388  28.480  14.672  1.00  0.00    -0.271 OA
HETATM    6  C6  UNL     1      17.165  30.187  13.759  1.00  0.00     0.180 C 
HETATM    7  N2  UNL     1      16.604  29.162  12.894  1.00  0.00    -0.346 N 
ATOM      8  H2  UNL     1      15.630  29.298  12.623  1.00  0.00     0.163 HD
HETATM    9  C15 UNL     1      17.224  28.007  12.382  1.00  0.00     0.241 C 
HETATM   10  O2  UNL     1      16.651  26.897  12.680  1.00  0.00    -0.271 OA
HETATM   11  C16 UNL     1      18.429  27.911  11.559  1.00  0.00     0.182 C 
HETATM   12  N3  UNL     1      19.204  26.725  11.670  1.00  0.00    -0.342 N 
HETATM   13  C20 UNL     1      18.684  25.420  12.094  1.00  0.00     0.153 C 
HETATM   14  C21 UNL     1      20.585  26.749  11.356  1.00  0.00     0.231 C 
HETATM   15  O3  UNL     1      21.169  25.674  10.968  1.00  0.00    -0.273 OA
HETATM   16  C22 UNL     1      21.479  27.932  11.429  1.00  0.00     0.149 C 
HETATM   17  C26 UNL     1      21.883  28.065  12.872  1.00  0.00     0.162 C 
HETATM   18  O4  UNL     1      21.713  27.073  13.589  1.00  0.00    -0.295 OA
HETATM   19  C27 UNL     1      22.439  29.314  13.385  1.00  0.00     0.155 C 
HETATM   20  N4  UNL     1      21.784  30.377  12.564  1.00  0.00    -0.348 N 
ATOM     21  H4  UNL     1      22.143  30.564  11.628  1.00  0.00     0.163 HD
HETATM   22  C32 UNL     1      20.685  31.136  13.033  1.00  0.00     0.241 C 
HETATM   23  O5  UNL     1      19.942  31.628  12.143  1.00  0.00    -0.271 OA
ENDROOT
BRANCH   6  24
HETATM   24  C7  UNL     1      16.050  30.593  14.724  1.00  0.00     0.073 C 
BRANCH  24  25
HETATM   25  C8  UNL     1      16.043  31.985  15.123  1.00  0.00    -0.056 A 
HETATM   26  C9  UNL     1      15.550  32.366  16.367  1.00  0.00     0.007 A 
HETATM   27  C10 UNL     1      15.544  33.683  16.774  1.00  0.00     0.007 A 
HETATM   28  C11 UNL     1      16.028  34.690  15.966  1.00  0.00    -0.062 A 
HETATM   29  C12 UNL     1      16.004  36.097  16.437  1.00  0.00     0.048 C 
HETATM   30  C13 UNL     1      16.522  34.330  14.731  1.00  0.00     0.007 A 
HETATM   31  C14 UNL     1      16.521  33.003  14.333  1.00  0.00     0.007 A 
ENDBRANCH  24  25
ENDBRANCH   6  24
BRANCH   1  32
HETATM   32  C3  UNL     1      19.951  32.848  14.680  1.00  0.00     0.034 C 
BRANCH  32  33
HETATM   33  C2  UNL     1      19.606  33.069  16.132  1.00  0.00    -0.002 C 
HETATM   34  C1  UNL     1      19.893  34.514  16.523  1.00  0.00     0.005 C 
ENDBRANCH  32  33
ENDBRANCH   1  32
BRANCH  11  35
HETATM   35  C17 UNL     1      18.165  28.166  10.090  1.00  0.00     0.009 C 
HETATM   36  C18 UNL     1      16.729  28.577   9.835  1.00  0.00     0.012 C 
HETATM   37  C19 UNL     1      18.513  27.016   9.211  1.00  0.00     0.012 C 
ENDBRANCH  11  35
BRANCH  19  38
HETATM   38  C28 UNL     1      23.872  29.577  13.448  1.00  0.00     0.037 C 
BRANCH  38  39
HETATM   39  C29 UNL     1      24.742  28.856  12.502  1.00  0.00    -0.020 C 
HETATM   40  C30 UNL     1      25.447  29.630  11.466  1.00  0.00     0.009 C 
HETATM   41  C31 UNL     1      25.786  28.012  13.277  1.00  0.00     0.009 C 
ENDBRANCH  38  39
ENDBRANCH  19  38
BRANCH  16  42
HETATM   42  C23 UNL     1      22.648  27.809  10.486  1.00  0.00     0.021 C 
BRANCH  42  43
HETATM   43  C24 UNL     1      23.459  26.560  10.755  1.00  0.00    -0.003 C 
HETATM   44  C25 UNL     1      24.513  26.388   9.687  1.00  0.00     0.005 C 
ENDBRANCH  42  43
ENDBRANCH  16  42
TORSDOF 9
ENDMDL
MODEL 2
REMARK VINA RESULT: -8.491828077      2.103      7.801
REMARK  9 active torsions:
REMARK  status: ('A' for Active; 'I' for Inactive)
REMARK    1  A    between atoms: C2_2  and  C3_3 
REMARK    2  A    between atoms: C3_3  and  C4_4 
REMARK    3  A    between atoms: C6_9  and  C7_10 
REMARK    4  A    between atoms: C7_10  and  C8_11 
REMARK    5  A    between atoms: C16_22  and  C17_23 
REMARK    6  A    between atoms: C22_30  and  C23_31 
REMARK    7  A    between atoms: C23_31  and  C24_32 
REMARK    8  A    between atoms: C27_36  and  C28_37 
REMARK    9  A    between atoms: C28_37  and  C29_38 
ROOT
HETATM    1  C4  UNL     1      22.015  33.008  15.606  1.00  0.00     0.176 C 
HETATM    2  N1  UNL     1      22.201  32.640  14.231  1.00  0.00    -0.346 N 
ATOM      3  H1  UNL     1      22.486  33.415  13.632  1.00  0.00     0.163 HD
HETATM    4  C5  UNL     1      22.068  31.442  13.565  1.00  0.00     0.241 C 
HETATM    5  O1  UNL     1      21.275  31.447  12.544  1.00  0.00    -0.271 OA
HETATM    6  C6  UNL     1      22.666  30.121  13.789  1.00  0.00     0.180 C 
HETATM    7  N2  UNL     1      21.874  29.015  13.276  1.00  0.00    -0.346 N 
ATOM      8  H2  UNL     1      22.381  28.142  13.124  1.00  0.00     0.163 HD
HETATM    9  C15 UNL     1      20.503  28.987  12.961  1.00  0.00     0.241 C 
HETATM   10  O2  UNL     1      20.224  28.662  11.750  1.00  0.00    -0.271 OA
HETATM   11  C16 UNL     1      19.364  29.277  13.831  1.00  0.00     0.182 C 
HETATM   12  N3  UNL     1      18.187  29.786  13.219  1.00  0.00    -0.342 N 
HETATM   13  C20 UNL     1      17.807  29.565  11.818  1.00  0.00     0.153 C 
HETATM   14  C21 UNL     1      17.276  30.566  13.973  1.00  0.00     0.231 C 
HETATM   15  O3  UNL     1      16.039  30.606  13.634  1.00  0.00    -0.273 OA
HETATM   16  C22 UNL     1      17.604  31.384  15.167  1.00  0.00     0.149 C 
HETATM   17  C26 UNL     1      18.164  32.679  14.648  1.00  0.00     0.162 C 
HETATM   18  O4  UNL     1      17.942  32.945  13.462  1.00  0.00    -0.295 OA
HETATM   19  C27 UNL     1      18.939  33.564  15.514  1.00  0.00     0.155 C 
HETATM   20  N4  UNL     1      19.624  32.641  16.470  1.00  0.00    -0.348 N 
ATOM     21  H4  UNL     1      19.095  32.276  17.262  1.00  0.00     0.163 HD
HETATM   22  C32 UNL     1      20.977  32.253  16.322  1.00  0.00     0.241 C 
HETATM   23  O5  UNL     1      21.293  31.160  16.861  1.00  0.00    -0.271 OA
ENDROOT
BRANCH   6  24
HETATM   24  C7  UNL     1      24.032  30.025  13.107  1.00  0.00     0.073 C 
BRANCH  24  25
HETATM   25  C8  UNL     1      24.185  28.940  12.160  1.00  0.00    -0.056 A 
HETATM   26  C9  UNL     1      23.733  29.070  10.851  1.00  0.00     0.007 A 
HETATM   27  C10 UNL     1      23.878  28.057   9.928  1.00  0.00     0.007 A 
HETATM   28  C11 UNL     1      24.480  26.861  10.259  1.00  0.00    -0.062 A 
HETATM   29  C12 UNL     1      24.617  25.791   9.239  1.00  0.00     0.048 C 
HETATM   30  C13 UNL     1      24.935  26.715  11.551  1.00  0.00     0.007 A 
HETATM   31  C14 UNL     1      24.783  27.741  12.470  1.00  0.00     0.007 A 
ENDBRANCH  24  25
ENDBRANCH   6  24
BRANCH   1  32
HETATM   32  C3  UNL     1      23.336  33.038  16.384  1.00  0.00     0.034 C 
BRANCH  32  33
HETATM   33  C2  UNL     1      23.389  34.249  17.284  1.00  0.00    -0.002 C 
HETATM   34  C1  UNL     1      23.506  35.517  16.446  1.00  0.00     0.005 C 
ENDBRANCH  32  33
ENDBRANCH   1  32
BRANCH  11  35
HETATM   35  C17 UNL     1      18.972  28.106  14.707  1.00  0.00     0.009 C 
HETATM   36  C18 UNL     1      20.090  27.704  15.648  1.00  0.00     0.012 C 
HETATM   37  C19 UNL     1      18.517  26.913  13.941  1.00  0.00     0.012 C 
ENDBRANCH  11  35
BRANCH  19  38
HETATM   38  C28 UNL     1      18.343  34.665  16.260  1.00  0.00     0.037 C 
BRANCH  38  39
HETATM   39  C29 UNL     1      18.868  34.941  17.609  1.00  0.00    -0.020 C 
HETATM   40  C30 UNL     1      20.051  35.809  17.738  1.00  0.00     0.009 C 
HETATM   41  C31 UNL     1      17.744  35.509  18.511  1.00  0.00     0.009 C 
ENDBRANCH  38  39
ENDBRANCH  19  38
BRANCH  16  42
HETATM   42  C23 UNL     1      16.409  31.564  16.067  1.00  0.00     0.021 C 
BRANCH  42  43
HETATM   43  C24 UNL     1      15.597  32.784  15.688  1.00  0.00    -0.003 C 
HETATM   44  C25 UNL     1      15.091  33.476  16.932  1.00  0.00     0.005 C 
ENDBRANCH  42  43
ENDBRANCH  16  42
TORSDOF 9
ENDMDL
MODEL 3
REMARK VINA RESULT: -8.203947757      1.056      1.139
REMARK  9 active torsions:
REMARK  status: ('A' for Active; 'I' for Inactive)
REMARK    1  A    between atoms: C2_2  and  C3_3 
REMARK    2  A    between atoms: C3_3  and  C4_4 
REMARK    3  A    between atoms: C6_9  and  C7_10 
REMARK    4  A    between atoms: C7_10  and  C8_11 
REMARK    5  A    between atoms: C16_22  and  C17_23 
REMARK    6  A    between atoms: C22_30  and  C23_31 
REMARK    7  A    between atoms: C23_31  and  C24_32 
REMARK    8  A    between atoms: C27_36  and  C28_37 
REMARK    9  A    between atoms: C28_37  and  C29_38 
ROOT
HETATM    1  C4  UNL     1      20.880  30.460  14.099  1.00  0.00     0.176 C 
HETATM    2  N1  UNL     1      19.905  29.609  14.722  1.00  0.00    -0.346 N 
ATOM      3  H1  UNL     1      20.111  29.391  15.696  1.00  0.00     0.163 HD
HETATM    4  C5  UNL     1      18.744  29.032  14.257  1.00  0.00     0.241 C 
HETATM    5  O1  UNL     1      18.658  27.749  14.386  1.00  0.00    -0.271 OA
HETATM    6  C6  UNL     1      17.548  29.601  13.625  1.00  0.00     0.180 C 
HETATM    7  N2  UNL     1      16.825  28.670  12.773  1.00  0.00    -0.346 N 
ATOM      8  H2  UNL     1      15.853  28.911  12.582  1.00  0.00     0.163 HD
HETATM    9  C15 UNL     1      17.288  27.482  12.179  1.00  0.00     0.241 C 
HETATM   10  O2  UNL     1      16.630  26.422  12.484  1.00  0.00    -0.271 OA
HETATM   11  C16 UNL     1      18.414  27.302  11.263  1.00  0.00     0.182 C 
HETATM   12  N3  UNL     1      19.072  26.043  11.276  1.00  0.00    -0.342 N 
HETATM   13  C20 UNL     1      18.458  24.779  11.697  1.00  0.00     0.153 C 
HETATM   14  C21 UNL     1      20.423  25.945  10.859  1.00  0.00     0.231 C 
HETATM   15  O3  UNL     1      20.867  24.834  10.393  1.00  0.00    -0.273 OA
HETATM   16  C22 UNL     1      21.433  27.032  10.900  1.00  0.00     0.149 C 
HETATM   17  C26 UNL     1      21.952  27.067  12.311  1.00  0.00     0.162 C 
HETATM   18  O4  UNL     1      21.738  26.070  13.008  1.00  0.00    -0.295 OA
HETATM   19  C27 UNL     1      22.667  28.235  12.820  1.00  0.00     0.155 C 
HETATM   20  N4  UNL     1      22.062  29.389  12.086  1.00  0.00    -0.348 N 
ATOM     21  H4  UNL     1      22.369  29.577  11.132  1.00  0.00     0.163 HD
HETATM   22  C32 UNL     1      21.082  30.232  12.662  1.00  0.00     0.241 C 
HETATM   23  O5  UNL     1      20.329  30.828  11.847  1.00  0.00    -0.271 OA
ENDROOT
BRANCH   6  24
HETATM   24  C7  UNL     1      16.552  30.076  14.685  1.00  0.00     0.073 C 
BRANCH  24  25
HETATM   25  C8  UNL     1      16.482  31.508  14.882  1.00  0.00    -0.056 A 
HETATM   26  C9  UNL     1      15.534  32.063  15.736  1.00  0.00     0.007 A 
HETATM   27  C10 UNL     1      15.456  33.423  15.949  1.00  0.00     0.007 A 
HETATM   28  C11 UNL     1      16.314  34.302  15.322  1.00  0.00    -0.062 A 
HETATM   29  C12 UNL     1      16.198  35.760  15.574  1.00  0.00     0.048 C 
HETATM   30  C13 UNL     1      17.260  33.770  14.474  1.00  0.00     0.007 A 
HETATM   31  C14 UNL     1      17.329  32.401  14.268  1.00  0.00     0.007 A 
ENDBRANCH  24  25
ENDBRANCH   6  24
BRANCH   1  32
HETATM   32  C3  UNL     1      20.645  31.941  14.414  1.00  0.00     0.034 C 
BRANCH  32  33
HETATM   33  C2  UNL     1      20.736  32.184  15.901  1.00  0.00    -0.002 C 
HETATM   34  C1  UNL     1      22.176  32.021  16.370  1.00  0.00     0.005 C 
ENDBRANCH  32  33
ENDBRANCH   1  32
BRANCH  11  35
HETATM   35  C17 UNL     1      18.070  27.639   9.827  1.00  0.00     0.009 C 
HETATM   36  C18 UNL     1      16.812  28.478   9.728  1.00  0.00     0.012 C 
HETATM   37  C19 UNL     1      17.938  26.445   8.947  1.00  0.00     0.012 C 
ENDBRANCH  11  35
BRANCH  19  38
HETATM   38  C28 UNL     1      24.120  28.356  12.781  1.00  0.00     0.037 C 
BRANCH  38  39
HETATM   39  C29 UNL     1      24.781  28.230  11.470  1.00  0.00    -0.020 C 
HETATM   40  C30 UNL     1      25.423  29.423  10.891  1.00  0.00     0.009 C 
HETATM   41  C31 UNL     1      25.824  27.084  11.508  1.00  0.00     0.009 C 
ENDBRANCH  38  39
ENDBRANCH  19  38
BRANCH  16  42
HETATM   42  C23 UNL     1      22.512  26.833   9.867  1.00  0.00     0.021 C 
BRANCH  42  43
HETATM   43  C24 UNL     1      23.169  25.476   9.994  1.00  0.00    -0.003 C 
HETATM   44  C25 UNL     1      23.878  25.122   8.707  1.00  0.00     0.005 C 
ENDBRANCH  42  43
ENDBRANCH  16  42
TORSDOF 9
ENDMDL
MODEL 4
REMARK VINA RESULT: -8.109031286      6.436     12.004
REMARK  9 active torsions:
REMARK  status: ('A' for Active; 'I' for Inactive)
REMARK    1  A    between atoms: C2_2  and  C3_3 
REMARK    2  A    between atoms: C3_3  and  C4_4 
REMARK    3  A    between atoms: C6_9  and  C7_10 
REMARK    4  A    between atoms: C7_10  and  C8_11 
REMARK    5  A    between atoms: C16_22  and  C17_23 
REMARK    6  A    between atoms: C22_30  and  C23_31 
REMARK    7  A    between atoms: C23_31  and  C24_32 
REMARK    8  A    between atoms: C27_36  and  C28_37 
REMARK    9  A    between atoms: C28_37  and  C29_38 
ROOT
HETATM    1  C4  UNL     1      16.841  36.360  17.824  1.00  0.00     0.176 C 
HETATM    2  N1  UNL     1      18.133  35.905  18.253  1.00  0.00    -0.346 N 
ATOM      3  H1  UNL     1      18.110  35.338  19.101  1.00  0.00     0.163 HD
HETATM    4  C5  UNL     1      19.398  36.085  17.740  1.00  0.00     0.241 C 
HETATM    5  O1  UNL     1      20.275  36.578  18.553  1.00  0.00    -0.271 OA
HETATM    6  C6  UNL     1      19.969  35.820  16.414  1.00  0.00     0.180 C 
HETATM    7  N2  UNL     1      21.117  36.647  16.084  1.00  0.00    -0.346 N 
ATOM      8  H2  UNL     1      21.720  36.290  15.343  1.00  0.00     0.163 HD
HETATM    9  C15 UNL     1      21.508  37.874  16.651  1.00  0.00     0.241 C 
HETATM   10  O2  UNL     1      22.688  37.894  17.160  1.00  0.00    -0.271 OA
HETATM   11  C16 UNL     1      20.750  39.122  16.731  1.00  0.00     0.182 C 
HETATM   12  N3  UNL     1      21.033  39.990  17.820  1.00  0.00    -0.342 N 
HETATM   13  C20 UNL     1      22.307  40.037  18.547  1.00  0.00     0.153 C 
HETATM   14  C21 UNL     1      20.047  40.901  18.275  1.00  0.00     0.231 C 
HETATM   15  O3  UNL     1      20.404  41.982  18.867  1.00  0.00    -0.273 OA
HETATM   16  C22 UNL     1      18.578  40.739  18.140  1.00  0.00     0.149 C 
HETATM   17  C26 UNL     1      18.150  39.835  19.263  1.00  0.00     0.162 C 
HETATM   18  O4  UNL     1      18.946  39.697  20.199  1.00  0.00    -0.295 OA
HETATM   19  C27 UNL     1      16.858  39.154  19.230  1.00  0.00     0.155 C 
HETATM   20  N4  UNL     1      16.601  38.917  17.776  1.00  0.00    -0.348 N 
ATOM     21  H4  UNL     1      16.246  39.688  17.211  1.00  0.00     0.163 HD
HETATM   22  C32 UNL     1      16.830  37.668  17.153  1.00  0.00     0.241 C 
HETATM   23  O5  UNL     1      17.039  37.707  15.912  1.00  0.00    -0.271 OA
ENDROOT
BRANCH   6  24
HETATM   24  C7  UNL     1      20.441  34.368  16.311  1.00  0.00     0.073 C 
BRANCH  24  25
HETATM   25  C8  UNL     1      19.430  33.406  15.924  1.00  0.00    -0.056 A 
HETATM   26  C9  UNL     1      18.527  33.694  14.906  1.00  0.00     0.007 A 
HETATM   27  C10 UNL     1      17.564  32.790  14.512  1.00  0.00     0.007 A 
HETATM   28  C11 UNL     1      17.447  31.553  15.110  1.00  0.00    -0.062 A 
HETATM   29  C12 UNL     1      16.396  30.606  14.661  1.00  0.00     0.048 C 
HETATM   30  C13 UNL     1      18.335  31.250  16.120  1.00  0.00     0.007 A 
HETATM   31  C14 UNL     1      19.298  32.168  16.507  1.00  0.00     0.007 A 
ENDBRANCH  24  25
ENDBRANCH   6  24
BRANCH   1  32
HETATM   32  C3  UNL     1      16.088  35.298  17.016  1.00  0.00     0.034 C 
BRANCH  32  33
HETATM   33  C2  UNL     1      15.748  34.115  17.890  1.00  0.00    -0.002 C 
HETATM   34  C1  UNL     1      14.882  33.127  17.117  1.00  0.00     0.005 C 
ENDBRANCH  32  33
ENDBRANCH   1  32
BRANCH  11  35
HETATM   35  C17 UNL     1      20.805  39.933  15.454  1.00  0.00     0.009 C 
HETATM   36  C18 UNL     1      21.488  39.177  14.332  1.00  0.00     0.012 C 
HETATM   37  C19 UNL     1      21.453  41.264  15.618  1.00  0.00     0.012 C 
ENDBRANCH  11  35
BRANCH  19  38
HETATM   38  C28 UNL     1      15.656  39.704  19.843  1.00  0.00     0.037 C 
BRANCH  38  39
HETATM   39  C29 UNL     1      15.812  40.454  21.102  1.00  0.00    -0.020 C 
HETATM   40  C30 UNL     1      15.317  41.840  21.160  1.00  0.00     0.009 C 
HETATM   41  C31 UNL     1      15.182  39.660  22.275  1.00  0.00     0.009 C 
ENDBRANCH  38  39
ENDBRANCH  19  38
BRANCH  16  42
HETATM   42  C23 UNL     1      17.867  42.068  18.135  1.00  0.00     0.021 C 
BRANCH  42  43
HETATM   43  C24 UNL     1      17.094  42.288  16.852  1.00  0.00    -0.003 C 
HETATM   44  C25 UNL     1      15.610  42.276  17.134  1.00  0.00     0.005 C 
ENDBRANCH  42  43
ENDBRANCH  16  42
TORSDOF 9
ENDMDL
MODEL 5
REMARK VINA RESULT: -8.026911078      2.672      4.566
REMARK  9 active torsions:
REMARK  status: ('A' for Active; 'I' for Inactive)
REMARK    1  A    between atoms: C2_2  and  C3_3 
REMARK    2  A    between atoms: C3_3  and  C4_4 
REMARK    3  A    between atoms: C6_9  and  C7_10 
REMARK    4  A    between atoms: C7_10  and  C8_11 
REMARK    5  A    between atoms: C16_22  and  C17_23 
REMARK    6  A    between atoms: C22_30  and  C23_31 
REMARK    7  A    between atoms: C23_31  and  C24_32 
REMARK    8  A    between atoms: C27_36  and  C28_37 
REMARK    9  A    between atoms: C28_37  and  C29_38 
ROOT
HETATM    1  C4  UNL     1      22.812  28.448  12.863  1.00  0.00     0.176 C 
HETATM    2  N1  UNL     1      21.934  28.228  13.976  1.00  0.00    -0.346 N 
ATOM      3  H1  UNL     1      22.378  27.755  14.764  1.00  0.00     0.163 HD
HETATM    4  C5  UNL     1      20.608  28.532  14.187  1.00  0.00     0.241 C 
HETATM    5  O1  UNL     1      19.844  27.542  14.516  1.00  0.00    -0.271 OA
HETATM    6  C6  UNL     1      19.864  29.795  14.110  1.00  0.00     0.180 C 
HETATM    7  N2  UNL     1      18.447  29.636  13.828  1.00  0.00    -0.346 N 
ATOM      8  H2  UNL     1      17.855  30.428  14.078  1.00  0.00     0.163 HD
HETATM    9  C15 UNL     1      17.784  28.535  13.256  1.00  0.00     0.241 C 
HETATM   10  O2  UNL     1      16.850  28.022  13.974  1.00  0.00    -0.271 OA
HETATM   11  C16 UNL     1      18.018  27.906  11.957  1.00  0.00     0.182 C 
HETATM   12  N3  UNL     1      17.716  26.523  11.836  1.00  0.00    -0.342 N 
HETATM   13  C20 UNL     1      16.741  25.802  12.663  1.00  0.00     0.153 C 
HETATM   14  C21 UNL     1      18.372  25.735  10.858  1.00  0.00     0.231 C 
HETATM   15  O3  UNL     1      17.800  24.683  10.397  1.00  0.00    -0.273 OA
HETATM   16  C22 UNL     1      19.712  26.001  10.277  1.00  0.00     0.149 C 
HETATM   17  C26 UNL     1      20.711  25.467  11.266  1.00  0.00     0.162 C 
HETATM   18  O4  UNL     1      20.286  24.673  12.112  1.00  0.00    -0.295 OA
HETATM   19  C27 UNL     1      22.111  25.882  11.219  1.00  0.00     0.155 C 
HETATM   20  N4  UNL     1      22.065  27.283  10.699  1.00  0.00    -0.348 N 
ATOM     21  H4  UNL     1      21.955  27.428   9.696  1.00  0.00     0.163 HD
HETATM   22  C32 UNL     1      22.169  28.415  11.542  1.00  0.00     0.241 C 
HETATM   23  O5  UNL     1      21.657  29.475  11.096  1.00  0.00    -0.271 OA
ENDROOT
BRANCH   6  24
HETATM   24  C7  UNL     1      19.956  30.556  15.435  1.00  0.00     0.073 C 
BRANCH  24  25
HETATM   25  C8  UNL     1      21.014  31.540  15.520  1.00  0.00    -0.056 A 
HETATM   26  C9  UNL     1      21.338  32.333  14.424  1.00  0.00     0.007 A 
HETATM   27  C10 UNL     1      22.332  33.286  14.485  1.00  0.00     0.007 A 
HETATM   28  C11 UNL     1      23.058  33.499  15.638  1.00  0.00    -0.062 A 
HETATM   29  C12 UNL     1      24.123  34.532  15.665  1.00  0.00     0.048 C 
HETATM   30  C13 UNL     1      22.750  32.723  16.734  1.00  0.00     0.007 A 
HETATM   31  C14 UNL     1      21.748  31.769  16.660  1.00  0.00     0.007 A 
ENDBRANCH  24  25
ENDBRANCH   6  24
BRANCH   1  32
HETATM   32  C3  UNL     1      23.678  29.700  13.043  1.00  0.00     0.034 C 
BRANCH  32  33
HETATM   33  C2  UNL     1      25.095  29.428  12.600  1.00  0.00    -0.002 C 
HETATM   34  C1  UNL     1      25.529  28.042  13.059  1.00  0.00     0.005 C 
ENDBRANCH  32  33
ENDBRANCH   1  32
BRANCH  11  35
HETATM   35  C17 UNL     1      17.348  28.637  10.813  1.00  0.00     0.009 C 
HETATM   36  C18 UNL     1      15.950  29.095  11.177  1.00  0.00     0.012 C 
HETATM   37  C19 UNL     1      17.297  27.852   9.549  1.00  0.00     0.012 C 
ENDBRANCH  11  35
BRANCH  19  38
HETATM   38  C28 UNL     1      23.135  25.139  10.496  1.00  0.00     0.037 C 
BRANCH  38  39
HETATM   39  C29 UNL     1      23.904  25.860   9.465  1.00  0.00    -0.020 C 
HETATM   40  C30 UNL     1      25.272  26.300   9.789  1.00  0.00     0.009 C 
HETATM   41  C31 UNL     1      23.953  25.026   8.159  1.00  0.00     0.009 C 
ENDBRANCH  38  39
ENDBRANCH  19  38
BRANCH  16  42
HETATM   42  C23 UNL     1      19.853  25.405   8.900  1.00  0.00     0.021 C 
BRANCH  42  43
HETATM   43  C24 UNL     1      19.082  26.195   7.864  1.00  0.00    -0.003 C 
HETATM   44  C25 UNL     1      18.334  25.255   6.948  1.00  0.00     0.005 C 
ENDBRANCH  42  43
ENDBRANCH  16  42
TORSDOF 9
ENDMDL
