MODEL 1
REMARK VINA RESULT: -6.695911791      0.000      0.000
REMARK  13 active torsions:
REMARK  status: ('A' for Active; 'I' for Inactive)
REMARK    1  A    between atoms: C2_2  and  C4_4 
REMARK    2  A    between atoms: C4_4  and  C5_5 
REMARK    3  A    between atoms: C7_10  and  C8_11 
REMARK    4  A    between atoms: C12_18  and  C13_19 
REMARK    5  A    between atoms: C13_19  and  C14_20 
REMARK    6  A    between atoms: C14_20  and  C15_21 
REMARK    7  A    between atoms: C15_21  and  C16_22 
REMARK    8  A    between atoms: C16_22  and  N3_23 
REMARK    9  A    between atoms: C20_33  and  C21_34 
REMARK   10  A    between atoms: C21_34  and  C22_35 
REMARK   11  A    between atoms: N5_40  and  C27_41 
REMARK   12  A    between atoms: C27_41  and  C28_42 
REMARK   13  A    between atoms: C32_49  and  C33_50 
ROOT
HETATM    1  C5  UNL     1       5.251  -4.347  15.897  1.00  0.00     0.177 C 
HETATM    2  N1  UNL     1       3.951  -4.298  16.524  1.00  0.00    -0.346 N 
ATOM      3  H1  UNL     1       3.543  -3.371  16.643  1.00  0.00     0.163 HD
HETATM    4  C6  UNL     1       3.187  -5.375  16.988  1.00  0.00     0.241 C 
HETATM    5  O1  UNL     1       1.942  -5.413  16.693  1.00  0.00    -0.271 OA
HETATM    6  C7  UNL     1       3.671  -6.515  17.808  1.00  0.00     0.180 C 
HETATM    7  N2  UNL     1       2.968  -7.716  17.384  1.00  0.00    -0.346 N 
ATOM      8  H2  UNL     1       1.949  -7.682  17.365  1.00  0.00     0.163 HD
HETATM    9  C11 UNL     1       3.591  -8.927  16.996  1.00  0.00     0.241 C 
HETATM   10  O2  UNL     1       3.180 -10.019  17.462  1.00  0.00    -0.271 OA
HETATM   11  C12 UNL     1       4.734  -9.026  16.047  1.00  0.00     0.177 C 
HETATM   12  N4  UNL     1       5.646 -10.093  16.396  1.00  0.00    -0.344 N 
ATOM     13  H4  UNL     1       6.257 -10.436  15.655  1.00  0.00     0.163 HD
HETATM   14  C17 UNL     1       5.773 -10.706  17.661  1.00  0.00     0.241 C 
HETATM   15  O3  UNL     1       5.669 -12.000  17.658  1.00  0.00    -0.269 OA
HETATM   16  C18 UNL     1       6.004 -10.062  18.944  1.00  0.00     0.072 C 
HETATM   17  C19 UNL     1       7.017  -9.335  19.320  1.00  0.00     0.004 C 
HETATM   18  C20 UNL     1       8.218  -8.984  18.485  1.00  0.00     0.113 C 
HETATM   19  N6  UNL     1       8.592  -7.657  18.901  1.00  0.00    -0.351 N 
ATOM     20  H6  UNL     1       8.773  -7.540  19.898  1.00  0.00     0.163 HD
HETATM   21  C31 UNL     1       8.739  -6.508  18.120  1.00  0.00     0.241 C 
HETATM   22  O4  UNL     1       9.813  -5.831  18.303  1.00  0.00    -0.271 OA
HETATM   23  C32 UNL     1       7.795  -5.987  17.109  1.00  0.00     0.180 C 
HETATM   24  N7  UNL     1       7.133  -4.795  17.611  1.00  0.00    -0.346 N 
ATOM     25  H7  UNL     1       7.306  -4.556  18.587  1.00  0.00     0.163 HD
HETATM   26  C36 UNL     1       6.286  -3.944  16.906  1.00  0.00     0.241 C 
HETATM   27  O5  UNL     1       6.377  -2.699  17.117  1.00  0.00    -0.271 OA
ENDROOT
BRANCH  18  28
HETATM   28  C21 UNL     1       9.292 -10.010  18.550  1.00  0.00     0.086 C 
BRANCH  28  29
HETATM   29  C22 UNL     1       9.244 -10.764  19.818  1.00  0.00     0.013 A 
HETATM   30  C23 UNL     1       9.499 -10.148  21.031  1.00  0.00     0.025 A 
HETATM   31  C24 UNL     1       9.443 -10.807  22.234  1.00  0.00     0.003 A 
HETATM   32  C25 UNL     1       9.114 -12.140  22.186  1.00  0.00     0.017 A 
HETATM   33  C26 UNL     1       8.868 -12.715  20.979  1.00  0.00     0.091 A 
HETATM   34  N5  UNL     1       8.916 -12.081  19.779  1.00  0.00    -0.360 N 
BRANCH  34  35
HETATM   35  C27 UNL     1       8.559 -12.820  18.616  1.00  0.00     0.132 C 
BRANCH  35  36
HETATM   36  C28 UNL     1       9.382 -14.117  18.454  1.00  0.00    -0.004 C 
HETATM   37  C29 UNL     1       8.855 -14.763  17.164  1.00  0.00     0.011 C 
HETATM   38  C30 UNL     1      10.801 -13.690  18.148  1.00  0.00     0.011 C 
ENDBRANCH  35  36
ENDBRANCH  34  35
ENDBRANCH  28  29
ENDBRANCH  18  28
BRANCH  23  39
HETATM   39  C33 UNL     1       8.543  -5.692  15.835  1.00  0.00     0.009 C 
HETATM   40  C34 UNL     1       9.106  -4.295  15.778  1.00  0.00     0.012 C 
HETATM   41  C35 UNL     1       9.716  -6.637  15.642  1.00  0.00     0.012 C 
ENDBRANCH  23  39
BRANCH  11  42
HETATM   42  C13 UNL     1       4.055  -9.351  14.705  1.00  0.00     0.035 C 
BRANCH  42  43
HETATM   43  C14 UNL     1       4.385 -10.703  14.187  1.00  0.00     0.004 C 
BRANCH  43  44
HETATM   44  C15 UNL     1       3.148 -11.571  14.258  1.00  0.00     0.027 C 
BRANCH  44  45
HETATM   45  C16 UNL     1       3.429 -12.855  15.003  1.00  0.00     0.229 C 
BRANCH  45  46
HETATM   46  N3  UNL     1       3.004 -12.714  16.390  1.00  0.00    -0.079 N 
ATOM     47  H33 UNL     1       3.257 -11.806  16.780  1.00  0.00     0.274 HD
ATOM     48  H32 UNL     1       1.991 -12.632  16.476  1.00  0.00     0.274 HD
ATOM     49  H31 UNL     1       3.377 -13.488  16.940  1.00  0.00     0.274 HD
ENDBRANCH  45  46
ENDBRANCH  44  45
ENDBRANCH  43  44
ENDBRANCH  42  43
ENDBRANCH  11  42
BRANCH   1  50
HETATM   50  C4  UNL     1       5.436  -3.387  14.756  1.00  0.00     0.038 C 
BRANCH  50  51
HETATM   51  C2  UNL     1       4.256  -2.716  14.207  1.00  0.00    -0.020 C 
HETATM   52  C1  UNL     1       4.375  -2.239  12.786  1.00  0.00     0.009 C 
HETATM   53  C3  UNL     1       3.759  -1.548  15.033  1.00  0.00     0.009 C 
ENDBRANCH  50  51
ENDBRANCH   1  50
BRANCH   6  54
HETATM   54  C8  UNL     1       3.299  -6.341  19.288  1.00  0.00     0.009 C 
HETATM   55  C9  UNL     1       2.518  -7.500  19.818  1.00  0.00     0.012 C 
HETATM   56  C10 UNL     1       4.493  -5.969  20.128  1.00  0.00     0.012 C 
ENDBRANCH   6  54
TORSDOF 13
ENDMDL
MODEL 2
REMARK VINA RESULT: -6.632785650      2.376      7.912
REMARK  13 active torsions:
REMARK  status: ('A' for Active; 'I' for Inactive)
REMARK    1  A    between atoms: C2_2  and  C4_4 
REMARK    2  A    between atoms: C4_4  and  C5_5 
REMARK    3  A    between atoms: C7_10  and  C8_11 
REMARK    4  A    between atoms: C12_18  and  C13_19 
REMARK    5  A    between atoms: C13_19  and  C14_20 
REMARK    6  A    between atoms: C14_20  and  C15_21 
REMARK    7  A    between atoms: C15_21  and  C16_22 
REMARK    8  A    between atoms: C16_22  and  N3_23 
REMARK    9  A    between atoms: C20_33  and  C21_34 
REMARK   10  A    between atoms: C21_34  and  C22_35 
REMARK   11  A    between atoms: N5_40  and  C27_41 
REMARK   12  A    between atoms: C27_41  and  C28_42 
REMARK   13  A    between atoms: C32_49  and  C33_50 
ROOT
HETATM    1  C5  UNL     1       6.576 -14.054  17.654  1.00  0.00     0.177 C 
HETATM    2  N1  UNL     1       5.543 -14.457  16.729  1.00  0.00    -0.346 N 
ATOM      3  H1  UNL     1       5.734 -15.293  16.178  1.00  0.00     0.163 HD
HETATM    4  C6  UNL     1       4.311 -13.834  16.502  1.00  0.00     0.241 C 
HETATM    5  O1  UNL     1       3.259 -14.560  16.447  1.00  0.00    -0.271 OA
HETATM    6  C7  UNL     1       4.078 -12.379  16.313  1.00  0.00     0.180 C 
HETATM    7  N2  UNL     1       2.812 -12.033  16.939  1.00  0.00    -0.346 N 
ATOM      8  H2  UNL     1       1.990 -12.575  16.672  1.00  0.00     0.163 HD
HETATM    9  C11 UNL     1       2.632 -11.000  17.891  1.00  0.00     0.241 C 
HETATM   10  O2  UNL     1       1.683 -10.187  17.762  1.00  0.00    -0.271 OA
HETATM   11  C12 UNL     1       3.503 -10.782  19.080  1.00  0.00     0.177 C 
HETATM   12  N4  UNL     1       3.656  -9.380  19.398  1.00  0.00    -0.344 N 
ATOM     13  H4  UNL     1       3.953  -9.154  20.347  1.00  0.00     0.163 HD
HETATM   14  C17 UNL     1       3.434  -8.293  18.525  1.00  0.00     0.241 C 
HETATM   15  O3  UNL     1       2.615  -7.388  18.970  1.00  0.00    -0.269 OA
HETATM   16  C18 UNL     1       4.010  -8.077  17.208  1.00  0.00     0.072 C 
HETATM   17  C19 UNL     1       5.262  -7.940  16.878  1.00  0.00     0.004 C 
HETATM   18  C20 UNL     1       6.437  -7.975  17.817  1.00  0.00     0.113 C 
HETATM   19  N6  UNL     1       7.504  -8.583  17.064  1.00  0.00    -0.351 N 
ATOM     20  H6  UNL     1       7.735  -8.130  16.181  1.00  0.00     0.163 HD
HETATM   21  C31 UNL     1       8.263  -9.711  17.384  1.00  0.00     0.241 C 
HETATM   22  O4  UNL     1       9.534  -9.593  17.262  1.00  0.00    -0.271 OA
HETATM   23  C32 UNL     1       7.764 -11.023  17.845  1.00  0.00     0.180 C 
HETATM   24  N7  UNL     1       7.901 -12.010  16.789  1.00  0.00    -0.346 N 
ATOM     25  H7  UNL     1       8.195 -11.662  15.877  1.00  0.00     0.163 HD
HETATM   26  C36 UNL     1       7.674 -13.381  16.883  1.00  0.00     0.241 C 
HETATM   27  O5  UNL     1       8.457 -14.161  16.267  1.00  0.00    -0.271 OA
ENDROOT
BRANCH  18  28
HETATM   28  C21 UNL     1       6.742  -6.650  18.418  1.00  0.00     0.086 C 
BRANCH  28  29
HETATM   29  C22 UNL     1       7.833  -5.966  17.695  1.00  0.00     0.013 A 
HETATM   30  C23 UNL     1       9.159  -6.297  17.915  1.00  0.00     0.025 A 
HETATM   31  C24 UNL     1      10.202  -5.703  17.248  1.00  0.00     0.003 A 
HETATM   32  C25 UNL     1       9.868  -4.738  16.327  1.00  0.00     0.017 A 
HETATM   33  C26 UNL     1       8.557  -4.438  16.134  1.00  0.00     0.091 A 
HETATM   34  N5  UNL     1       7.511  -5.015  16.781  1.00  0.00    -0.360 N 
BRANCH  34  35
HETATM   35  C27 UNL     1       6.194  -4.629  16.404  1.00  0.00     0.132 C 
BRANCH  35  36
HETATM   36  C28 UNL     1       6.172  -3.379  15.496  1.00  0.00    -0.004 C 
HETATM   37  C29 UNL     1       4.912  -3.537  14.633  1.00  0.00     0.011 C 
HETATM   38  C30 UNL     1       5.903  -2.196  16.402  1.00  0.00     0.011 C 
ENDBRANCH  35  36
ENDBRANCH  34  35
ENDBRANCH  28  29
ENDBRANCH  18  28
BRANCH  23  39
HETATM   39  C33 UNL     1       8.526 -11.441  19.076  1.00  0.00     0.009 C 
HETATM   40  C34 UNL     1       9.958 -11.821  18.796  1.00  0.00     0.012 C 
HETATM   41  C35 UNL     1       8.570 -10.332  20.112  1.00  0.00     0.012 C 
ENDBRANCH  23  39
BRANCH  11  42
HETATM   42  C13 UNL     1       2.738 -11.484  20.214  1.00  0.00     0.035 C 
BRANCH  42  43
HETATM   43  C14 UNL     1       3.460 -12.650  20.784  1.00  0.00     0.004 C 
BRANCH  43  44
HETATM   44  C15 UNL     1       3.019 -13.902  20.058  1.00  0.00     0.027 C 
BRANCH  44  45
HETATM   45  C16 UNL     1       1.518 -13.934  19.895  1.00  0.00     0.229 C 
BRANCH  45  46
HETATM   46  N3  UNL     1       1.178 -14.634  18.663  1.00  0.00    -0.079 N 
ATOM     47  H33 UNL     1       0.503 -14.117  18.099  1.00  0.00     0.274 HD
ATOM     48  H32 UNL     1       1.950 -14.638  17.997  1.00  0.00     0.274 HD
ATOM     49  H31 UNL     1       0.854 -15.575  18.885  1.00  0.00     0.274 HD
ENDBRANCH  45  46
ENDBRANCH  44  45
ENDBRANCH  43  44
ENDBRANCH  42  43
ENDBRANCH  11  42
BRANCH   1  50
HETATM   50  C4  UNL     1       7.254 -15.185  18.374  1.00  0.00     0.038 C 
BRANCH  50  51
HETATM   51  C2  UNL     1       7.429 -15.087  19.825  1.00  0.00    -0.020 C 
HETATM   52  C1  UNL     1       6.698 -13.960  20.499  1.00  0.00     0.009 C 
HETATM   53  C3  UNL     1       8.873 -15.022  20.277  1.00  0.00     0.009 C 
ENDBRANCH  50  51
ENDBRANCH   1  50
BRANCH   6  54
HETATM   54  C8  UNL     1       3.894 -12.028  14.829  1.00  0.00     0.009 C 
HETATM   55  C9  UNL     1       2.472 -12.159  14.385  1.00  0.00     0.012 C 
HETATM   56  C10 UNL     1       4.526 -10.705  14.482  1.00  0.00     0.012 C 
ENDBRANCH   6  54
TORSDOF 13
ENDMDL
MODEL 3
REMARK VINA RESULT: -6.569156380      2.414      8.161
REMARK  13 active torsions:
REMARK  status: ('A' for Active; 'I' for Inactive)
REMARK    1  A    between atoms: C2_2  and  C4_4 
REMARK    2  A    between atoms: C4_4  and  C5_5 
REMARK    3  A    between atoms: C7_10  and  C8_11 
REMARK    4  A    between atoms: C12_18  and  C13_19 
REMARK    5  A    between atoms: C13_19  and  C14_20 
REMARK    6  A    between atoms: C14_20  and  C15_21 
REMARK    7  A    between atoms: C15_21  and  C16_22 
REMARK    8  A    between atoms: C16_22  and  N3_23 
REMARK    9  A    between atoms: C20_33  and  C21_34 
REMARK   10  A    between atoms: C21_34  and  C22_35 
REMARK   11  A    between atoms: N5_40  and  C27_41 
REMARK   12  A    between atoms: C27_41  and  C28_42 
REMARK   13  A    between atoms: C32_49  and  C33_50 
ROOT
HETATM    1  C5  UNL     1       6.235 -14.424  17.681  1.00  0.00     0.177 C 
HETATM    2  N1  UNL     1       5.183 -14.724  16.740  1.00  0.00    -0.346 N 
ATOM      3  H1  UNL     1       5.302 -15.571  16.186  1.00  0.00     0.163 HD
HETATM    4  C6  UNL     1       4.018 -13.986  16.500  1.00  0.00     0.241 C 
HETATM    5  O1  UNL     1       2.903 -14.610  16.426  1.00  0.00    -0.271 OA
HETATM    6  C7  UNL     1       3.925 -12.515  16.317  1.00  0.00     0.180 C 
HETATM    7  N2  UNL     1       2.688 -12.054  16.928  1.00  0.00    -0.346 N 
ATOM      8  H2  UNL     1       1.823 -12.516  16.646  1.00  0.00     0.163 HD
HETATM    9  C11 UNL     1       2.593 -11.014  17.884  1.00  0.00     0.241 C 
HETATM   10  O2  UNL     1       1.726 -10.115  17.747  1.00  0.00    -0.271 OA
HETATM   11  C12 UNL     1       3.463 -10.885  19.086  1.00  0.00     0.177 C 
HETATM   12  N4  UNL     1       3.742  -9.505  19.416  1.00  0.00    -0.344 N 
ATOM     13  H4  UNL     1       4.046  -9.313  20.370  1.00  0.00     0.163 HD
HETATM   14  C17 UNL     1       3.636  -8.397  18.547  1.00  0.00     0.241 C 
HETATM   15  O3  UNL     1       2.899  -7.423  18.986  1.00  0.00    -0.269 OA
HETATM   16  C18 UNL     1       4.248  -8.230  17.239  1.00  0.00     0.072 C 
HETATM   17  C19 UNL     1       5.512  -8.210  16.928  1.00  0.00     0.004 C 
HETATM   18  C20 UNL     1       6.665  -8.360  17.882  1.00  0.00     0.113 C 
HETATM   19  N6  UNL     1       7.681  -9.061  17.140  1.00  0.00    -0.351 N 
ATOM     20  H6  UNL     1       7.966  -8.627  16.263  1.00  0.00     0.163 HD
HETATM   21  C31 UNL     1       8.326 -10.257  17.463  1.00  0.00     0.241 C 
HETATM   22  O4  UNL     1       9.604 -10.259  17.359  1.00  0.00    -0.271 OA
HETATM   23  C32 UNL     1       7.700 -11.519  17.909  1.00  0.00     0.180 C 
HETATM   24  N7  UNL     1       7.758 -12.509  16.848  1.00  0.00    -0.346 N 
ATOM     25  H7  UNL     1       8.097 -12.185  15.942  1.00  0.00     0.163 HD
HETATM   26  C36 UNL     1       7.402 -13.853  16.931  1.00  0.00     0.241 C 
HETATM   27  O5  UNL     1       8.117 -14.700  16.320  1.00  0.00    -0.271 OA
ENDROOT
BRANCH  18  28
HETATM   28  C21 UNL     1       7.085  -7.072  18.496  1.00  0.00     0.086 C 
BRANCH  28  29
HETATM   29  C22 UNL     1       7.898  -6.267  17.563  1.00  0.00     0.013 A 
HETATM   30  C23 UNL     1       9.192  -6.635  17.237  1.00  0.00     0.025 A 
HETATM   31  C24 UNL     1       9.974  -5.928  16.357  1.00  0.00     0.003 A 
HETATM   32  C25 UNL     1       9.405  -4.810  15.796  1.00  0.00     0.017 A 
HETATM   33  C26 UNL     1       8.132  -4.477  16.136  1.00  0.00     0.091 A 
HETATM   34  N5  UNL     1       7.342  -5.163  17.002  1.00  0.00    -0.360 N 
BRANCH  34  35
HETATM   35  C27 UNL     1       6.005  -4.713  17.189  1.00  0.00     0.132 C 
BRANCH  35  36
HETATM   36  C28 UNL     1       5.373  -4.155  15.895  1.00  0.00    -0.004 C 
HETATM   37  C29 UNL     1       4.003  -4.842  15.794  1.00  0.00     0.011 C 
HETATM   38  C30 UNL     1       5.080  -2.693  16.155  1.00  0.00     0.011 C 
ENDBRANCH  35  36
ENDBRANCH  34  35
ENDBRANCH  28  29
ENDBRANCH  18  28
BRANCH  23  39
HETATM   39  C33 UNL     1       8.402 -12.013  19.148  1.00  0.00     0.009 C 
HETATM   40  C34 UNL     1       9.835 -12.413  18.907  1.00  0.00     0.012 C 
HETATM   41  C35 UNL     1       8.427 -10.956  20.236  1.00  0.00     0.012 C 
ENDBRANCH  23  39
BRANCH  11  42
HETATM   42  C13 UNL     1       2.619 -11.518  20.205  1.00  0.00     0.035 C 
BRANCH  42  43
HETATM   43  C14 UNL     1       2.963 -12.937  20.477  1.00  0.00     0.004 C 
BRANCH  43  44
HETATM   44  C15 UNL     1       4.460 -13.050  20.668  1.00  0.00     0.027 C 
BRANCH  44  45
HETATM   45  C16 UNL     1       4.807 -13.254  22.124  1.00  0.00     0.229 C 
BRANCH  45  46
HETATM   46  N3  UNL     1       6.214 -12.940  22.335  1.00  0.00    -0.079 N 
ATOM     47  H33 UNL     1       6.719 -13.711  22.773  1.00  0.00     0.274 HD
ATOM     48  H32 UNL     1       6.736 -12.903  21.460  1.00  0.00     0.274 HD
ATOM     49  H31 UNL     1       6.293 -12.075  22.869  1.00  0.00     0.274 HD
ENDBRANCH  45  46
ENDBRANCH  44  45
ENDBRANCH  43  44
ENDBRANCH  42  43
ENDBRANCH  11  42
BRANCH   1  50
HETATM   50  C4  UNL     1       6.794 -15.617  18.403  1.00  0.00     0.038 C 
BRANCH  50  51
HETATM   51  C2  UNL     1       7.110 -15.490  19.828  1.00  0.00    -0.020 C 
HETATM   52  C1  UNL     1       8.557 -15.660  20.196  1.00  0.00     0.009 C 
HETATM   53  C3  UNL     1       6.305 -16.401  20.731  1.00  0.00     0.009 C 
ENDBRANCH  50  51
ENDBRANCH   1  50
BRANCH   6  54
HETATM   54  C8  UNL     1       3.796 -12.140  14.833  1.00  0.00     0.009 C 
HETATM   55  C9  UNL     1       2.377 -12.168  14.361  1.00  0.00     0.012 C 
HETATM   56  C10 UNL     1       4.526 -10.862  14.510  1.00  0.00     0.012 C 
ENDBRANCH   6  54
TORSDOF 13
ENDMDL
MODEL 4
REMARK VINA RESULT: -6.499829460      0.764      1.901
REMARK  13 active torsions:
REMARK  status: ('A' for Active; 'I' for Inactive)
REMARK    1  A    between atoms: C2_2  and  C4_4 
REMARK    2  A    between atoms: C4_4  and  C5_5 
REMARK    3  A    between atoms: C7_10  and  C8_11 
REMARK    4  A    between atoms: C12_18  and  C13_19 
REMARK    5  A    between atoms: C13_19  and  C14_20 
REMARK    6  A    between atoms: C14_20  and  C15_21 
REMARK    7  A    between atoms: C15_21  and  C16_22 
REMARK    8  A    between atoms: C16_22  and  N3_23 
REMARK    9  A    between atoms: C20_33  and  C21_34 
REMARK   10  A    between atoms: C21_34  and  C22_35 
REMARK   11  A    between atoms: N5_40  and  C27_41 
REMARK   12  A    between atoms: C27_41  and  C28_42 
REMARK   13  A    between atoms: C32_49  and  C33_50 
ROOT
HETATM    1  C5  UNL     1       5.364  -4.483  15.828  1.00  0.00     0.177 C 
HETATM    2  N1  UNL     1       4.038  -4.392  16.391  1.00  0.00    -0.346 N 
ATOM      3  H1  UNL     1       3.634  -3.458  16.445  1.00  0.00     0.163 HD
HETATM    4  C6  UNL     1       3.243  -5.439  16.873  1.00  0.00     0.241 C 
HETATM    5  O1  UNL     1       2.013  -5.482  16.524  1.00  0.00    -0.271 OA
HETATM    6  C7  UNL     1       3.679  -6.539  17.771  1.00  0.00     0.180 C 
HETATM    7  N2  UNL     1       2.984  -7.754  17.376  1.00  0.00    -0.346 N 
ATOM      8  H2  UNL     1       1.967  -7.715  17.309  1.00  0.00     0.163 HD
HETATM    9  C11 UNL     1       3.611  -8.988  17.078  1.00  0.00     0.241 C 
HETATM   10  O2  UNL     1       3.169 -10.053  17.579  1.00  0.00    -0.271 OA
HETATM   11  C12 UNL     1       4.796  -9.144  16.188  1.00  0.00     0.177 C 
HETATM   12  N4  UNL     1       5.680 -10.199  16.632  1.00  0.00    -0.344 N 
ATOM     13  H4  UNL     1       6.321 -10.583  15.938  1.00  0.00     0.163 HD
HETATM   14  C17 UNL     1       5.744 -10.748  17.931  1.00  0.00     0.241 C 
HETATM   15  O3  UNL     1       5.628 -12.040  17.988  1.00  0.00    -0.269 OA
HETATM   16  C18 UNL     1       5.923 -10.041  19.189  1.00  0.00     0.072 C 
HETATM   17  C19 UNL     1       6.925  -9.303  19.574  1.00  0.00     0.004 C 
HETATM   18  C20 UNL     1       8.166  -9.005  18.778  1.00  0.00     0.113 C 
HETATM   19  N6  UNL     1       8.533  -7.661  19.143  1.00  0.00    -0.351 N 
ATOM     20  H6  UNL     1       8.671  -7.495  20.140  1.00  0.00     0.163 HD
HETATM   21  C31 UNL     1       8.727  -6.555  18.313  1.00  0.00     0.241 C 
HETATM   22  O4  UNL     1       9.798  -5.877  18.510  1.00  0.00    -0.271 OA
HETATM   23  C32 UNL     1       7.835  -6.078  17.236  1.00  0.00     0.180 C 
HETATM   24  N7  UNL     1       7.162  -4.858  17.646  1.00  0.00    -0.346 N 
ATOM     25  H7  UNL     1       7.294  -4.570  18.615  1.00  0.00     0.163 HD
HETATM   26  C36 UNL     1       6.356  -4.037  16.861  1.00  0.00     0.241 C 
HETATM   27  O5  UNL     1       6.450  -2.784  17.013  1.00  0.00    -0.271 OA
ENDROOT
BRANCH  18  28
HETATM   28  C21 UNL     1       9.226 -10.034  18.943  1.00  0.00     0.086 C 
BRANCH  28  29
HETATM   29  C22 UNL     1       8.919 -11.256  18.173  1.00  0.00     0.013 A 
HETATM   30  C23 UNL     1       8.799 -11.225  16.795  1.00  0.00     0.025 A 
HETATM   31  C24 UNL     1       8.537 -12.341  16.039  1.00  0.00     0.003 A 
HETATM   32  C25 UNL     1       8.395 -13.524  16.725  1.00  0.00     0.017 A 
HETATM   33  C26 UNL     1       8.521 -13.520  18.078  1.00  0.00     0.091 A 
HETATM   34  N5  UNL     1       8.782 -12.429  18.843  1.00  0.00    -0.360 N 
BRANCH  34  35
HETATM   35  C27 UNL     1       8.952 -12.617  20.244  1.00  0.00     0.132 C 
BRANCH  35  36
HETATM   36  C28 UNL     1       7.620 -12.889  20.978  1.00  0.00    -0.004 C 
HETATM   37  C29 UNL     1       7.795 -14.274  21.618  1.00  0.00     0.011 C 
HETATM   38  C30 UNL     1       7.559 -11.910  22.132  1.00  0.00     0.011 C 
ENDBRANCH  35  36
ENDBRANCH  34  35
ENDBRANCH  28  29
ENDBRANCH  18  28
BRANCH  23  39
HETATM   39  C33 UNL     1       8.643  -5.854  15.983  1.00  0.00     0.009 C 
HETATM   40  C34 UNL     1       9.288  -4.493  15.920  1.00  0.00     0.012 C 
HETATM   41  C35 UNL     1       9.764  -6.869  15.851  1.00  0.00     0.012 C 
ENDBRANCH  23  39
BRANCH  11  42
HETATM   42  C13 UNL     1       4.175  -9.532  14.836  1.00  0.00     0.035 C 
BRANCH  42  43
HETATM   43  C14 UNL     1       4.521 -10.908  14.397  1.00  0.00     0.004 C 
BRANCH  43  44
HETATM   44  C15 UNL     1       3.277 -11.767  14.449  1.00  0.00     0.027 C 
BRANCH  44  45
HETATM   45  C16 UNL     1       3.505 -13.000  15.291  1.00  0.00     0.229 C 
BRANCH  45  46
HETATM   46  N3  UNL     1       2.980 -12.777  16.631  1.00  0.00    -0.079 N 
ATOM     47  H33 UNL     1       3.521 -12.082  17.146  1.00  0.00     0.274 HD
ATOM     48  H32 UNL     1       2.087 -12.286  16.619  1.00  0.00     0.274 HD
ATOM     49  H31 UNL     1       2.924 -13.667  17.127  1.00  0.00     0.274 HD
ENDBRANCH  45  46
ENDBRANCH  44  45
ENDBRANCH  43  44
ENDBRANCH  42  43
ENDBRANCH  11  42
BRANCH   1  50
HETATM   50  C4  UNL     1       5.610  -3.583  14.649  1.00  0.00     0.038 C 
BRANCH  50  51
HETATM   51  C2  UNL     1       4.480  -2.839  14.088  1.00  0.00    -0.020 C 
HETATM   52  C1  UNL     1       4.630  -2.400  12.658  1.00  0.00     0.009 C 
HETATM   53  C3  UNL     1       4.073  -1.622  14.892  1.00  0.00     0.009 C 
ENDBRANCH  50  51
ENDBRANCH   1  50
BRANCH   6  54
HETATM   54  C8  UNL     1       3.242  -6.287  19.221  1.00  0.00     0.009 C 
HETATM   55  C9  UNL     1       2.428  -7.413  19.774  1.00  0.00     0.012 C 
HETATM   56  C10 UNL     1       4.400  -5.880  20.095  1.00  0.00     0.012 C 
ENDBRANCH   6  54
TORSDOF 13
ENDMDL
MODEL 5
REMARK VINA RESULT: -6.440833352      2.327      7.878
REMARK  13 active torsions:
REMARK  status: ('A' for Active; 'I' for Inactive)
REMARK    1  A    between atoms: C2_2  and  C4_4 
REMARK    2  A    between atoms: C4_4  and  C5_5 
REMARK    3  A    between atoms: C7_10  and  C8_11 
REMARK    4  A    between atoms: C12_18  and  C13_19 
REMARK    5  A    between atoms: C13_19  and  C14_20 
REMARK    6  A    between atoms: C14_20  and  C15_21 
REMARK    7  A    between atoms: C15_21  and  C16_22 
REMARK    8  A    between atoms: C16_22  and  N3_23 
REMARK    9  A    between atoms: C20_33  and  C21_34 
REMARK   10  A    between atoms: C21_34  and  C22_35 
REMARK   11  A    between atoms: N5_40  and  C27_41 
REMARK   12  A    between atoms: C27_41  and  C28_42 
REMARK   13  A    between atoms: C32_49  and  C33_50 
ROOT
HETATM    1  C5  UNL     1       7.105 -13.830  17.498  1.00  0.00     0.177 C 
HETATM    2  N1  UNL     1       6.095 -14.343  16.604  1.00  0.00    -0.346 N 
ATOM      3  H1  UNL     1       6.369 -15.130  16.017  1.00  0.00     0.163 HD
HETATM    4  C6  UNL     1       4.781 -13.884  16.448  1.00  0.00     0.241 C 
HETATM    5  O1  UNL     1       3.834 -14.744  16.412  1.00  0.00    -0.271 OA
HETATM    6  C7  UNL     1       4.348 -12.469  16.317  1.00  0.00     0.180 C 
HETATM    7  N2  UNL     1       3.077 -12.314  17.006  1.00  0.00    -0.346 N 
ATOM      8  H2  UNL     1       2.324 -12.954  16.755  1.00  0.00     0.163 HD
HETATM    9  C11 UNL     1       2.805 -11.341  17.998  1.00  0.00     0.241 C 
HETATM   10  O2  UNL     1       1.751 -10.660  17.935  1.00  0.00    -0.271 OA
HETATM   11  C12 UNL     1       3.692 -11.041  19.157  1.00  0.00     0.177 C 
HETATM   12  N4  UNL     1       3.671  -9.640  19.516  1.00  0.00    -0.344 N 
ATOM     13  H4  UNL     1       3.978  -9.402  20.458  1.00  0.00     0.163 HD
HETATM   14  C17 UNL     1       3.267  -8.569  18.689  1.00  0.00     0.241 C 
HETATM   15  O3  UNL     1       2.356  -7.796  19.196  1.00  0.00    -0.269 OA
HETATM   16  C18 UNL     1       3.749  -8.242  17.357  1.00  0.00     0.072 C 
HETATM   17  C19 UNL     1       4.956  -7.929  16.981  1.00  0.00     0.004 C 
HETATM   18  C20 UNL     1       6.166  -7.831  17.869  1.00  0.00     0.113 C 
HETATM   19  N6  UNL     1       7.269  -8.270  17.054  1.00  0.00    -0.351 N 
ATOM     20  H6  UNL     1       7.398  -7.765  16.176  1.00  0.00     0.163 HD
HETATM   21  C31 UNL     1       8.185  -9.294  17.304  1.00  0.00     0.241 C 
HETATM   22  O4  UNL     1       9.423  -9.003  17.133  1.00  0.00    -0.271 OA
HETATM   23  C32 UNL     1       7.887 -10.673  17.741  1.00  0.00     0.180 C 
HETATM   24  N7  UNL     1       8.105 -11.604  16.648  1.00  0.00    -0.346 N 
ATOM     25  H7  UNL     1       8.310 -11.193  15.736  1.00  0.00     0.163 HD
HETATM   26  C36 UNL     1       8.067 -12.995  16.706  1.00  0.00     0.241 C 
HETATM   27  O5  UNL     1       8.919 -13.645  16.032  1.00  0.00    -0.271 OA
ENDROOT
BRANCH  18  28
HETATM   28  C21 UNL     1       6.319  -6.494  18.501  1.00  0.00     0.086 C 
BRANCH  28  29
HETATM   29  C22 UNL     1       5.882  -5.414  17.594  1.00  0.00     0.013 A 
HETATM   30  C23 UNL     1       4.540  -5.125  17.415  1.00  0.00     0.025 A 
HETATM   31  C24 UNL     1       4.093  -4.115  16.599  1.00  0.00     0.003 A 
HETATM   32  C25 UNL     1       5.057  -3.381  15.950  1.00  0.00     0.017 A 
HETATM   33  C26 UNL     1       6.365  -3.689  16.150  1.00  0.00     0.091 A 
HETATM   34  N5  UNL     1       6.829  -4.682  16.953  1.00  0.00    -0.360 N 
BRANCH  34  35
HETATM   35  C27 UNL     1       8.237  -4.821  17.101  1.00  0.00     0.132 C 
BRANCH  35  36
HETATM   36  C28 UNL     1       9.004  -4.607  15.777  1.00  0.00    -0.004 C 
HETATM   37  C29 UNL     1       9.914  -3.398  16.036  1.00  0.00     0.011 C 
HETATM   38  C30 UNL     1       9.932  -5.793  15.623  1.00  0.00     0.011 C 
ENDBRANCH  35  36
ENDBRANCH  34  35
ENDBRANCH  28  29
ENDBRANCH  18  28
BRANCH  23  39
HETATM   39  C33 UNL     1       8.752 -11.019  18.925  1.00  0.00     0.009 C 
HETATM   40  C34 UNL     1      10.204 -11.216  18.571  1.00  0.00     0.012 C 
HETATM   41  C35 UNL     1       8.713  -9.932  19.984  1.00  0.00     0.012 C 
ENDBRANCH  23  39
BRANCH  11  42
HETATM   42  C13 UNL     1       3.078 -11.871  20.298  1.00  0.00     0.035 C 
BRANCH  42  43
HETATM   43  C14 UNL     1       3.985 -12.926  20.817  1.00  0.00     0.004 C 
BRANCH  43  44
HETATM   44  C15 UNL     1       3.747 -14.202  20.040  1.00  0.00     0.027 C 
BRANCH  44  45
HETATM   45  C16 UNL     1       2.281 -14.565  20.029  1.00  0.00     0.229 C 
BRANCH  45  46
HETATM   46  N3  UNL     1       1.935 -15.149  18.739  1.00  0.00    -0.079 N 
ATOM     47  H33 UNL     1       0.931 -15.126  18.563  1.00  0.00     0.274 HD
ATOM     48  H32 UNL     1       2.233 -14.564  17.959  1.00  0.00     0.274 HD
ATOM     49  H31 UNL     1       2.316 -16.093  18.681  1.00  0.00     0.274 HD
ENDBRANCH  45  46
ENDBRANCH  44  45
ENDBRANCH  43  44
ENDBRANCH  42  43
ENDBRANCH  11  42
BRANCH   1  50
HETATM   50  C4  UNL     1       7.959 -14.879  18.151  1.00  0.00     0.038 C 
BRANCH  50  51
HETATM   51  C2  UNL     1       8.201 -14.787  19.593  1.00  0.00    -0.020 C 
HETATM   52  C1  UNL     1       7.380 -13.768  20.332  1.00  0.00     0.009 C 
HETATM   53  C3  UNL     1       9.649 -14.559  19.971  1.00  0.00     0.009 C 
ENDBRANCH  50  51
ENDBRANCH   1  50
BRANCH   6  54
HETATM   54  C8  UNL     1       4.052 -12.106  14.854  1.00  0.00     0.009 C 
HETATM   55  C9  UNL     1       2.623 -12.347  14.486  1.00  0.00     0.012 C 
HETATM   56  C10 UNL     1       4.552 -10.727  14.506  1.00  0.00     0.012 C 
ENDBRANCH   6  54
TORSDOF 13
ENDMDL
