MODEL 1
REMARK VINA RESULT: -7.983679124      0.000      0.000
REMARK  15 active torsions:
REMARK  status: ('A' for Active; 'I' for Inactive)
REMARK    1  A    between atoms: C2_2  and  C3_3 
REMARK    2  A    between atoms: C3_3  and  C4_4 
REMARK    3  A    between atoms: C4_4  and  C5_5 
REMARK    4  A    between atoms: C9_14  and  O2_15 
REMARK    5  A    between atoms: C10_17  and  C11_18 
REMARK    6  A    between atoms: C14_21  and  C15_22 
REMARK    7  A    between atoms: C15_22  and  C16_23 
REMARK       I    between atoms: C16_23  and  N3_25 
REMARK    8  A    between atoms: N3_25  and  C17_27 
REMARK    9  A    between atoms: C17_27  and  C18_28 
REMARK   10  A    between atoms: C23_36  and  O4_37 
REMARK   11  A    between atoms: C24_39  and  C25_40 
REMARK   12  A    between atoms: C25_40  and  C26_41 
REMARK   13  A    between atoms: C29_46  and  O5_47 
REMARK   14  A    between atoms: C30_49  and  C31_50 
REMARK   15  A    between atoms: C31_50  and  C32_51 
ROOT
HETATM    1  C5  UNL     1       3.902  -2.622  14.246  1.00  0.00     0.176 C 
HETATM    2  N1  UNL     1       3.207  -3.882  14.388  1.00  0.00    -0.346 N 
ATOM      3  H1  UNL     1       3.575  -4.652  13.830  1.00  0.00     0.163 HD
HETATM    4  C6  UNL     1       2.111  -4.188  15.176  1.00  0.00     0.240 C 
HETATM    5  O1  UNL     1       1.139  -4.795  14.572  1.00  0.00    -0.271 OA
HETATM    6  C7  UNL     1       1.849  -3.943  16.603  1.00  0.00     0.171 C 
HETATM    7  C8  UNL     1       2.546  -2.818  17.243  1.00  0.00     0.042 C 
HETATM    8  N2  UNL     1       1.854  -5.208  17.296  1.00  0.00    -0.361 N 
ATOM      9  H2  UNL     1       1.356  -5.918  16.760  1.00  0.00     0.162 HD
HETATM   10  C9  UNL     1       2.329  -5.723  18.452  1.00  0.00     0.118 C 
HETATM   11  C10 UNL     1       3.680  -6.167  18.979  1.00  0.00     0.090 C 
HETATM   12  C14 UNL     1       4.566  -6.707  17.946  1.00  0.00     0.123 C 
HETATM   13  N5  UNL     1       5.977  -6.428  17.974  1.00  0.00    -0.364 N 
ATOM     14  H5  UNL     1       6.394  -6.756  18.845  1.00  0.00     0.162 HD
HETATM   15  C23 UNL     1       6.924  -5.849  17.166  1.00  0.00     0.135 C 
HETATM   16  C24 UNL     1       7.340  -4.488  16.778  1.00  0.00     0.158 C 
HETATM   17  N6  UNL     1       6.554  -3.404  17.179  1.00  0.00    -0.361 N 
ATOM     18  H6  UNL     1       5.998  -3.538  18.023  1.00  0.00     0.162 HD
HETATM   19  C29 UNL     1       6.442  -2.154  16.556  1.00  0.00     0.135 C 
HETATM   20  C30 UNL     1       6.752  -1.665  15.231  1.00  0.00     0.159 C 
HETATM   21  N7  UNL     1       6.464  -2.614  14.138  1.00  0.00    -0.347 N 
ATOM     22  H7  UNL     1       7.248  -3.148  13.764  1.00  0.00     0.163 HD
HETATM   23  C35 UNL     1       5.202  -2.841  13.570  1.00  0.00     0.241 C 
HETATM   24  O6  UNL     1       5.109  -3.278  12.365  1.00  0.00    -0.271 OA
ENDROOT
BRANCH  12  25
HETATM   25  C15 UNL     1       4.581  -8.258  18.029  1.00  0.00     0.073 C 
BRANCH  25  26
HETATM   26  C16 UNL     1       5.073  -9.027  16.954  1.00  0.00     0.239 C 
HETATM   27  O3  UNL     1       6.261  -9.284  16.711  1.00  0.00    -0.269 OA
HETATM   28  N3  UNL     1       4.127  -9.581  16.029  1.00  0.00    -0.356 N 
ATOM     29  H3  UNL     1       3.130  -9.413  16.166  1.00  0.00     0.162 HD
BRANCH  28  30
HETATM   30  C17 UNL     1       4.567 -10.369  14.910  1.00  0.00     0.158 C 
BRANCH  30  31
HETATM   31  C18 UNL     1       3.446 -10.599  13.918  1.00  0.00     0.240 C 
HETATM   32  C19 UNL     1       3.970 -10.767  12.512  1.00  0.00     0.039 C 
HETATM   33  C20 UNL     1       2.805 -11.441  11.817  1.00  0.00     0.032 C 
HETATM   34  C21 UNL     1       2.328 -12.381  12.903  1.00  0.00     0.272 C 
HETATM   35  N4  UNL     1       2.730 -11.808  14.160  1.00  0.00     0.090 N 
HETATM   36  C22 UNL     1       3.462 -12.800  14.904  1.00  0.00     0.310 C 
ENDBRANCH  30  31
ENDBRANCH  28  30
ENDBRANCH  25  26
ENDBRANCH  12  25
BRANCH  11  37
HETATM   37  C11 UNL     1       4.136  -5.137  19.961  1.00  0.00    -0.009 C 
HETATM   38  C12 UNL     1       5.525  -5.283  20.519  1.00  0.00     0.010 C 
HETATM   39  C13 UNL     1       3.216  -5.188  21.200  1.00  0.00     0.010 C 
ENDBRANCH  11  37
BRANCH  10  40
HETATM   40  O2  UNL     1       1.423  -5.910  19.390  1.00  0.00    -0.349 OA
ATOM     41  H2  UNL     1       0.765  -6.564  19.187  1.00  0.00     0.219 HD
ENDBRANCH  10  40
BRANCH  15  42
HETATM   42  O4  UNL     1       7.735  -6.697  16.525  1.00  0.00    -0.348 OA
ATOM     43  H4  UNL     1       7.638  -6.724  15.581  1.00  0.00     0.219 HD
ENDBRANCH  15  42
BRANCH  16  44
HETATM   44  C25 UNL     1       8.841  -4.350  16.983  1.00  0.00     0.037 C 
BRANCH  44  45
HETATM   45  C26 UNL     1       9.652  -4.141  15.764  1.00  0.00    -0.020 C 
HETATM   46  C27 UNL     1      10.651  -3.013  16.136  1.00  0.00     0.009 C 
HETATM   47  C28 UNL     1      10.559  -5.298  15.392  1.00  0.00     0.009 C 
ENDBRANCH  44  45
ENDBRANCH  16  44
BRANCH  19  48
HETATM   48  O5  UNL     1       5.944  -1.220  17.342  1.00  0.00    -0.348 OA
ATOM     49  H5  UNL     1       6.430  -0.404  17.314  1.00  0.00     0.219 HD
ENDBRANCH  19  48
BRANCH  20  50
HETATM   50  C31 UNL     1       8.073  -1.072  14.933  1.00  0.00     0.037 C 
BRANCH  50  51
HETATM   51  C32 UNL     1       8.342  -0.453  13.626  1.00  0.00    -0.020 C 
HETATM   52  C33 UNL     1       9.665  -0.692  12.988  1.00  0.00     0.009 C 
HETATM   53  C34 UNL     1       8.018   1.042  13.609  1.00  0.00     0.009 C 
ENDBRANCH  50  51
ENDBRANCH  20  50
BRANCH   1  54
HETATM   54  C4  UNL     1       3.089  -1.517  13.664  1.00  0.00     0.035 C 
BRANCH  54  55
HETATM   55  C3  UNL     1       2.271  -0.711  14.595  1.00  0.00     0.002 C 
BRANCH  55  56
HETATM   56  C2  UNL     1       0.851  -0.663  14.007  1.00  0.00    -0.004 C 
HETATM   57  C1  UNL     1       0.741   0.336  12.903  1.00  0.00     0.005 C 
ENDBRANCH  55  56
ENDBRANCH  54  55
ENDBRANCH   1  54
TORSDOF 15
ENDMDL
MODEL 2
REMARK VINA RESULT: -7.882790892      5.364     11.912
REMARK  15 active torsions:
REMARK  status: ('A' for Active; 'I' for Inactive)
REMARK    1  A    between atoms: C2_2  and  C3_3 
REMARK    2  A    between atoms: C3_3  and  C4_4 
REMARK    3  A    between atoms: C4_4  and  C5_5 
REMARK    4  A    between atoms: C9_14  and  O2_15 
REMARK    5  A    between atoms: C10_17  and  C11_18 
REMARK    6  A    between atoms: C14_21  and  C15_22 
REMARK    7  A    between atoms: C15_22  and  C16_23 
REMARK       I    between atoms: C16_23  and  N3_25 
REMARK    8  A    between atoms: N3_25  and  C17_27 
REMARK    9  A    between atoms: C17_27  and  C18_28 
REMARK   10  A    between atoms: C23_36  and  O4_37 
REMARK   11  A    between atoms: C24_39  and  C25_40 
REMARK   12  A    between atoms: C25_40  and  C26_41 
REMARK   13  A    between atoms: C29_46  and  O5_47 
REMARK   14  A    between atoms: C30_49  and  C31_50 
REMARK   15  A    between atoms: C31_50  and  C32_51 
ROOT
HETATM    1  C5  UNL     1       6.635  -1.448  13.216  1.00  0.00     0.176 C 
HETATM    2  N1  UNL     1       7.209  -0.975  11.975  1.00  0.00    -0.346 N 
ATOM      3  H1  UNL     1       6.773  -1.333  11.125  1.00  0.00     0.163 HD
HETATM    4  C6  UNL     1       8.267  -0.106  11.781  1.00  0.00     0.240 C 
HETATM    5  O1  UNL     1       9.181  -0.510  10.957  1.00  0.00    -0.271 OA
HETATM    6  C7  UNL     1       8.545   1.221  12.353  1.00  0.00     0.171 C 
HETATM    7  C8  UNL     1       7.953   1.540  13.661  1.00  0.00     0.042 C 
HETATM    8  N2  UNL     1       8.418   2.209  11.309  1.00  0.00    -0.361 N 
ATOM      9  H2  UNL     1       8.850   1.882  10.446  1.00  0.00     0.162 HD
HETATM   10  C9  UNL     1       7.892   3.443  11.147  1.00  0.00     0.118 C 
HETATM   11  C10 UNL     1       6.503   4.027  10.973  1.00  0.00     0.090 C 
HETATM   12  C14 UNL     1       5.575   3.138  10.272  1.00  0.00     0.123 C 
HETATM   13  N5  UNL     1       4.196   3.055  10.674  1.00  0.00    -0.364 N 
ATOM     14  H5  UNL     1       3.746   3.969  10.615  1.00  0.00     0.162 HD
HETATM   15  C23 UNL     1       3.312   2.102  11.113  1.00  0.00     0.135 C 
HETATM   16  C24 UNL     1       3.026   1.374  12.364  1.00  0.00     0.158 C 
HETATM   17  N6  UNL     1       3.908   1.512  13.439  1.00  0.00    -0.361 N 
ATOM     18  H6  UNL     1       4.446   2.378  13.473  1.00  0.00     0.162 HD
HETATM   19  C29 UNL     1       4.139   0.599  14.476  1.00  0.00     0.135 C 
HETATM   20  C30 UNL     1       3.883  -0.814  14.641  1.00  0.00     0.159 C 
HETATM   21  N7  UNL     1       4.085  -1.626  13.426  1.00  0.00    -0.347 N 
ATOM     22  H7  UNL     1       3.257  -1.876  12.887  1.00  0.00     0.163 HD
HETATM   23  C35 UNL     1       5.323  -2.083  12.951  1.00  0.00     0.241 C 
HETATM   24  O6  UNL     1       5.381  -3.137  12.218  1.00  0.00    -0.271 OA
ENDROOT
BRANCH  12  25
HETATM   25  C15 UNL     1       5.415   3.606   8.799  1.00  0.00     0.073 C 
BRANCH  25  26
HETATM   26  C16 UNL     1       4.318   4.407   8.419  1.00  0.00     0.239 C 
HETATM   27  O3  UNL     1       4.236   5.640   8.508  1.00  0.00    -0.269 OA
HETATM   28  N3  UNL     1       3.162   3.757   7.872  1.00  0.00    -0.356 N 
ATOM     29  H3  UNL     1       3.158   2.742   7.766  1.00  0.00     0.162 HD
BRANCH  28  30
HETATM   30  C17 UNL     1       2.011   4.517   7.471  1.00  0.00     0.158 C 
BRANCH  30  31
HETATM   31  C18 UNL     1       2.102   4.941   6.020  1.00  0.00     0.240 C 
HETATM   32  C19 UNL     1       0.924   4.442   5.217  1.00  0.00     0.039 C 
HETATM   33  C20 UNL     1       0.963   5.344   4.001  1.00  0.00     0.032 C 
HETATM   34  C21 UNL     1       1.346   6.664   4.635  1.00  0.00     0.272 C 
HETATM   35  N4  UNL     1       2.053   6.355   5.851  1.00  0.00     0.090 N 
HETATM   36  C22 UNL     1       1.431   7.069   6.936  1.00  0.00     0.310 C 
ENDBRANCH  30  31
ENDBRANCH  28  30
ENDBRANCH  25  26
ENDBRANCH  12  25
BRANCH  11  37
HETATM   37  C11 UNL     1       6.141   4.706  12.254  1.00  0.00    -0.009 C 
HETATM   38  C12 UNL     1       4.902   5.558  12.257  1.00  0.00     0.010 C 
HETATM   39  C13 UNL     1       7.277   5.678  12.641  1.00  0.00     0.010 C 
ENDBRANCH  11  37
BRANCH  10  40
HETATM   40  O2  UNL     1       8.772   4.423  11.123  1.00  0.00    -0.349 OA
ATOM     41  H2  UNL     1       8.778   4.936  10.323  1.00  0.00     0.219 HD
ENDBRANCH  10  40
BRANCH  15  42
HETATM   42  O4  UNL     1       2.428   1.672  10.206  1.00  0.00    -0.348 OA
ATOM     43  H4  UNL     1       2.791   1.411   9.369  1.00  0.00     0.219 HD
ENDBRANCH  15  42
BRANCH  16  44
HETATM   44  C25 UNL     1       1.544   1.496  12.683  1.00  0.00     0.037 C 
BRANCH  44  45
HETATM   45  C26 UNL     1       0.777   0.232  12.726  1.00  0.00    -0.020 C 
HETATM   46  C27 UNL     1      -0.401   0.510  13.698  1.00  0.00     0.009 C 
HETATM   47  C28 UNL     1       0.078  -0.138  11.431  1.00  0.00     0.009 C 
ENDBRANCH  44  45
ENDBRANCH  16  44
BRANCH  19  48
HETATM   48  O5  UNL     1       4.720   1.140  15.530  1.00  0.00    -0.348 OA
ATOM     49  H5  UNL     1       4.395   0.800  16.356  1.00  0.00     0.219 HD
ENDBRANCH  19  48
BRANCH  20  50
HETATM   50  C31 UNL     1       2.625  -1.288  15.256  1.00  0.00     0.037 C 
BRANCH  50  51
HETATM   51  C32 UNL     1       2.579  -2.560  15.992  1.00  0.00    -0.020 C 
HETATM   52  C33 UNL     1       3.822  -3.040  16.657  1.00  0.00     0.009 C 
HETATM   53  C34 UNL     1       1.959  -3.691  15.168  1.00  0.00     0.009 C 
ENDBRANCH  50  51
ENDBRANCH  20  50
BRANCH   1  54
HETATM   54  C4  UNL     1       7.550  -2.265  14.062  1.00  0.00     0.035 C 
BRANCH  54  55
HETATM   55  C3  UNL     1       8.140  -1.614  15.251  1.00  0.00     0.002 C 
BRANCH  55  56
HETATM   56  C2  UNL     1       9.627  -2.007  15.278  1.00  0.00    -0.004 C 
HETATM   57  C1  UNL     1       9.847  -3.302  15.987  1.00  0.00     0.005 C 
ENDBRANCH  55  56
ENDBRANCH  54  55
ENDBRANCH   1  54
TORSDOF 15
ENDMDL
MODEL 3
REMARK VINA RESULT: -7.834681327      2.064      3.021
REMARK  15 active torsions:
REMARK  status: ('A' for Active; 'I' for Inactive)
REMARK    1  A    between atoms: C2_2  and  C3_3 
REMARK    2  A    between atoms: C3_3  and  C4_4 
REMARK    3  A    between atoms: C4_4  and  C5_5 
REMARK    4  A    between atoms: C9_14  and  O2_15 
REMARK    5  A    between atoms: C10_17  and  C11_18 
REMARK    6  A    between atoms: C14_21  and  C15_22 
REMARK    7  A    between atoms: C15_22  and  C16_23 
REMARK       I    between atoms: C16_23  and  N3_25 
REMARK    8  A    between atoms: N3_25  and  C17_27 
REMARK    9  A    between atoms: C17_27  and  C18_28 
REMARK   10  A    between atoms: C23_36  and  O4_37 
REMARK   11  A    between atoms: C24_39  and  C25_40 
REMARK   12  A    between atoms: C25_40  and  C26_41 
REMARK   13  A    between atoms: C29_46  and  O5_47 
REMARK   14  A    between atoms: C30_49  and  C31_50 
REMARK   15  A    between atoms: C31_50  and  C32_51 
ROOT
HETATM    1  C5  UNL     1       3.861  -2.594  14.261  1.00  0.00     0.176 C 
HETATM    2  N1  UNL     1       3.163  -3.852  14.407  1.00  0.00    -0.346 N 
ATOM      3  H1  UNL     1       3.525  -4.622  13.845  1.00  0.00     0.163 HD
HETATM    4  C6  UNL     1       2.073  -4.156  15.203  1.00  0.00     0.240 C 
HETATM    5  O1  UNL     1       1.095  -4.760  14.607  1.00  0.00    -0.271 OA
HETATM    6  C7  UNL     1       1.822  -3.911  16.632  1.00  0.00     0.171 C 
HETATM    7  C8  UNL     1       2.527  -2.789  17.268  1.00  0.00     0.042 C 
HETATM    8  N2  UNL     1       1.830  -5.177  17.325  1.00  0.00    -0.361 N 
ATOM      9  H2  UNL     1       1.326  -5.885  16.792  1.00  0.00     0.162 HD
HETATM   10  C9  UNL     1       2.312  -5.693  18.476  1.00  0.00     0.118 C 
HETATM   11  C10 UNL     1       3.665  -6.141  18.993  1.00  0.00     0.090 C 
HETATM   12  C14 UNL     1       4.542  -6.683  17.953  1.00  0.00     0.123 C 
HETATM   13  N5  UNL     1       5.954  -6.407  17.970  1.00  0.00    -0.364 N 
ATOM     14  H5  UNL     1       6.377  -6.737  18.838  1.00  0.00     0.162 HD
HETATM   15  C23 UNL     1       6.896  -5.831  17.156  1.00  0.00     0.135 C 
HETATM   16  C24 UNL     1       7.313  -4.470  16.765  1.00  0.00     0.158 C 
HETATM   17  N6  UNL     1       6.533  -3.384  17.173  1.00  0.00    -0.361 N 
ATOM     18  H6  UNL     1       5.983  -3.517  18.021  1.00  0.00     0.162 HD
HETATM   19  C29 UNL     1       6.420  -2.134  16.552  1.00  0.00     0.135 C 
HETATM   20  C30 UNL     1       6.721  -1.645  15.225  1.00  0.00     0.159 C 
HETATM   21  N7  UNL     1       6.422  -2.591  14.133  1.00  0.00    -0.347 N 
ATOM     22  H7  UNL     1       7.202  -3.128  13.753  1.00  0.00     0.163 HD
HETATM   23  C35 UNL     1       5.155  -2.815  13.575  1.00  0.00     0.241 C 
HETATM   24  O6  UNL     1       5.051  -3.251  12.371  1.00  0.00    -0.271 OA
ENDROOT
BRANCH  12  25
HETATM   25  C15 UNL     1       4.554  -8.234  18.034  1.00  0.00     0.073 C 
BRANCH  25  26
HETATM   26  C16 UNL     1       5.428  -8.986  17.222  1.00  0.00     0.239 C 
HETATM   27  O3  UNL     1       5.236  -9.325  16.045  1.00  0.00    -0.269 OA
HETATM   28  N3  UNL     1       6.673  -9.420  17.787  1.00  0.00    -0.356 N 
ATOM     29  H3  UNL     1       6.901  -9.176  18.751  1.00  0.00     0.162 HD
BRANCH  28  30
HETATM   30  C17 UNL     1       7.603 -10.194  17.012  1.00  0.00     0.158 C 
BRANCH  30  31
HETATM   31  C18 UNL     1       8.938 -10.325  17.714  1.00  0.00     0.240 C 
HETATM   32  C19 UNL     1       8.770 -10.587  19.191  1.00  0.00     0.039 C 
HETATM   33  C20 UNL     1      10.125 -11.145  19.573  1.00  0.00     0.032 C 
HETATM   34  C21 UNL     1      10.434 -11.999  18.361  1.00  0.00     0.272 C 
HETATM   35  N4  UNL     1       9.698 -11.440  17.257  1.00  0.00     0.090 N 
HETATM   36  C22 UNL     1       8.921 -12.488  16.647  1.00  0.00     0.310 C 
ENDBRANCH  30  31
ENDBRANCH  28  30
ENDBRANCH  25  26
ENDBRANCH  12  25
BRANCH  11  37
HETATM   37  C11 UNL     1       4.131  -5.113  19.972  1.00  0.00    -0.009 C 
HETATM   38  C12 UNL     1       5.520  -5.270  20.529  1.00  0.00     0.010 C 
HETATM   39  C13 UNL     1       3.212  -5.153  21.212  1.00  0.00     0.010 C 
ENDBRANCH  11  37
BRANCH  10  40
HETATM   40  O2  UNL     1       1.412  -5.878  19.421  1.00  0.00    -0.349 OA
ATOM     41  H2  UNL     1       1.638  -6.540  20.065  1.00  0.00     0.219 HD
ENDBRANCH  10  40
BRANCH  15  42
HETATM   42  O4  UNL     1       7.700  -6.680  16.508  1.00  0.00    -0.348 OA
ATOM     43  H4  UNL     1       8.502  -6.914  16.960  1.00  0.00     0.219 HD
ENDBRANCH  15  42
BRANCH  16  44
HETATM   44  C25 UNL     1       8.816  -4.336  16.959  1.00  0.00     0.037 C 
BRANCH  44  45
HETATM   45  C26 UNL     1       9.617  -4.118  15.735  1.00  0.00    -0.020 C 
HETATM   46  C27 UNL     1      10.610  -2.983  16.103  1.00  0.00     0.009 C 
HETATM   47  C28 UNL     1      10.530  -5.267  15.354  1.00  0.00     0.009 C 
ENDBRANCH  44  45
ENDBRANCH  16  44
BRANCH  19  48
HETATM   48  O5  UNL     1       5.929  -1.199  17.342  1.00  0.00    -0.348 OA
ATOM     49  H5  UNL     1       6.578  -0.565  17.624  1.00  0.00     0.219 HD
ENDBRANCH  19  48
BRANCH  20  50
HETATM   50  C31 UNL     1       8.041  -1.054  14.917  1.00  0.00     0.037 C 
BRANCH  50  51
HETATM   51  C32 UNL     1       8.293  -0.409  13.620  1.00  0.00    -0.020 C 
HETATM   52  C33 UNL     1       9.590  -0.670  12.938  1.00  0.00     0.009 C 
HETATM   53  C34 UNL     1       8.014   1.095  13.650  1.00  0.00     0.009 C 
ENDBRANCH  50  51
ENDBRANCH  20  50
BRANCH   1  54
HETATM   54  C4  UNL     1       3.047  -1.485  13.686  1.00  0.00     0.035 C 
BRANCH  54  55
HETATM   55  C3  UNL     1       2.175  -0.730  14.612  1.00  0.00     0.002 C 
BRANCH  55  56
HETATM   56  C2  UNL     1       0.783  -0.673  13.960  1.00  0.00    -0.004 C 
HETATM   57  C1  UNL     1       0.713   0.368  12.893  1.00  0.00     0.005 C 
ENDBRANCH  55  56
ENDBRANCH  54  55
ENDBRANCH   1  54
TORSDOF 15
ENDMDL
MODEL 4
REMARK VINA RESULT: -7.678020675      2.226      2.690
REMARK  15 active torsions:
REMARK  status: ('A' for Active; 'I' for Inactive)
REMARK    1  A    between atoms: C2_2  and  C3_3 
REMARK    2  A    between atoms: C3_3  and  C4_4 
REMARK    3  A    between atoms: C4_4  and  C5_5 
REMARK    4  A    between atoms: C9_14  and  O2_15 
REMARK    5  A    between atoms: C10_17  and  C11_18 
REMARK    6  A    between atoms: C14_21  and  C15_22 
REMARK    7  A    between atoms: C15_22  and  C16_23 
REMARK       I    between atoms: C16_23  and  N3_25 
REMARK    8  A    between atoms: N3_25  and  C17_27 
REMARK    9  A    between atoms: C17_27  and  C18_28 
REMARK   10  A    between atoms: C23_36  and  O4_37 
REMARK   11  A    between atoms: C24_39  and  C25_40 
REMARK   12  A    between atoms: C25_40  and  C26_41 
REMARK   13  A    between atoms: C29_46  and  O5_47 
REMARK   14  A    between atoms: C30_49  and  C31_50 
REMARK   15  A    between atoms: C31_50  and  C32_51 
ROOT
HETATM    1  C5  UNL     1       3.891  -2.543  14.147  1.00  0.00     0.176 C 
HETATM    2  N1  UNL     1       3.228  -3.825  14.245  1.00  0.00    -0.346 N 
ATOM      3  H1  UNL     1       3.625  -4.569  13.671  1.00  0.00     0.163 HD
HETATM    4  C6  UNL     1       2.131  -4.182  15.009  1.00  0.00     0.240 C 
HETATM    5  O1  UNL     1       1.184  -4.797  14.376  1.00  0.00    -0.271 OA
HETATM    6  C7  UNL     1       1.844  -3.984  16.439  1.00  0.00     0.171 C 
HETATM    7  C8  UNL     1       2.502  -2.859  17.119  1.00  0.00     0.042 C 
HETATM    8  N2  UNL     1       1.874  -5.267  17.097  1.00  0.00    -0.361 N 
ATOM      9  H2  UNL     1       1.403  -5.974  16.535  1.00  0.00     0.162 HD
HETATM   10  C9  UNL     1       2.347  -5.800  18.245  1.00  0.00     0.118 C 
HETATM   11  C10 UNL     1       3.703  -6.222  18.778  1.00  0.00     0.090 C 
HETATM   12  C14 UNL     1       4.616  -6.710  17.743  1.00  0.00     0.123 C 
HETATM   13  N5  UNL     1       6.019  -6.394  17.798  1.00  0.00    -0.364 N 
ATOM     14  H5  UNL     1       6.434  -6.735  18.666  1.00  0.00     0.162 HD
HETATM   15  C23 UNL     1       6.960  -5.768  17.020  1.00  0.00     0.135 C 
HETATM   16  C24 UNL     1       7.345  -4.386  16.675  1.00  0.00     0.158 C 
HETATM   17  N6  UNL     1       6.525  -3.335  17.095  1.00  0.00    -0.361 N 
ATOM     18  H6  UNL     1       5.961  -3.507  17.927  1.00  0.00     0.162 HD
HETATM   19  C29 UNL     1       6.387  -2.072  16.504  1.00  0.00     0.135 C 
HETATM   20  C30 UNL     1       6.701  -1.538  15.198  1.00  0.00     0.159 C 
HETATM   21  N7  UNL     1       6.453  -2.463  14.075  1.00  0.00    -0.347 N 
ATOM     22  H7  UNL     1       7.256  -2.966  13.698  1.00  0.00     0.163 HD
HETATM   23  C35 UNL     1       5.205  -2.709  13.484  1.00  0.00     0.241 C 
HETATM   24  O6  UNL     1       5.140  -3.114  12.266  1.00  0.00    -0.271 OA
ENDROOT
BRANCH  12  25
HETATM   25  C15 UNL     1       4.672  -8.262  17.784  1.00  0.00     0.073 C 
BRANCH  25  26
HETATM   26  C16 UNL     1       5.869  -8.926  18.127  1.00  0.00     0.239 C 
HETATM   27  O3  UNL     1       6.283  -9.160  19.271  1.00  0.00    -0.269 OA
HETATM   28  N3  UNL     1       6.715  -9.388  17.065  1.00  0.00    -0.356 N 
ATOM     29  H3  UNL     1       6.437  -9.233  16.095  1.00  0.00     0.162 HD
BRANCH  28  30
HETATM   30  C17 UNL     1       7.949 -10.066  17.349  1.00  0.00     0.158 C 
BRANCH  30  31
HETATM   31  C18 UNL     1       7.763 -11.569  17.382  1.00  0.00     0.240 C 
HETATM   32  C19 UNL     1       8.734 -12.272  16.465  1.00  0.00     0.039 C 
HETATM   33  C20 UNL     1       8.709 -13.689  17.000  1.00  0.00     0.032 C 
HETATM   34  C21 UNL     1       8.638 -13.430  18.490  1.00  0.00     0.272 C 
HETATM   35  N4  UNL     1       8.037 -12.134  18.662  1.00  0.00     0.090 N 
HETATM   36  C22 UNL     1       8.896 -11.338  19.499  1.00  0.00     0.310 C 
ENDBRANCH  30  31
ENDBRANCH  28  30
ENDBRANCH  25  26
ENDBRANCH  12  25
BRANCH  11  37
HETATM   37  C11 UNL     1       4.118  -5.208  19.795  1.00  0.00    -0.009 C 
HETATM   38  C12 UNL     1       5.485  -5.361  20.403  1.00  0.00     0.010 C 
HETATM   39  C13 UNL     1       3.151  -5.282  20.996  1.00  0.00     0.010 C 
ENDBRANCH  11  37
BRANCH  10  40
HETATM   40  O2  UNL     1       1.434  -6.037  19.165  1.00  0.00    -0.349 OA
ATOM     41  H2  UNL     1       1.526  -5.526  19.961  1.00  0.00     0.219 HD
ENDBRANCH  10  40
BRANCH  15  42
HETATM   42  O4  UNL     1       7.802  -6.576  16.367  1.00  0.00    -0.348 OA
ATOM     43  H4  UNL     1       8.244  -6.193  15.620  1.00  0.00     0.219 HD
ENDBRANCH  15  42
BRANCH  16  44
HETATM   44  C25 UNL     1       8.838  -4.214  16.904  1.00  0.00     0.037 C 
BRANCH  44  45
HETATM   45  C26 UNL     1       9.667  -4.002  15.698  1.00  0.00    -0.020 C 
HETATM   46  C27 UNL     1      10.649  -2.863  16.079  1.00  0.00     0.009 C 
HETATM   47  C28 UNL     1      10.591  -5.153  15.345  1.00  0.00     0.009 C 
ENDBRANCH  44  45
ENDBRANCH  16  44
BRANCH  19  48
HETATM   48  O5  UNL     1       5.853  -1.173  17.309  1.00  0.00    -0.348 OA
ATOM     49  H5  UNL     1       6.161  -1.239  18.205  1.00  0.00     0.219 HD
ENDBRANCH  19  48
BRANCH  20  50
HETATM   50  C31 UNL     1       8.009  -0.902  14.934  1.00  0.00     0.037 C 
BRANCH  50  51
HETATM   51  C32 UNL     1       8.334  -0.373  13.601  1.00  0.00    -0.020 C 
HETATM   52  C33 UNL     1       9.648  -0.730  12.998  1.00  0.00     0.009 C 
HETATM   53  C34 UNL     1       8.106   1.136  13.498  1.00  0.00     0.009 C 
ENDBRANCH  50  51
ENDBRANCH  20  50
BRANCH   1  54
HETATM   54  C4  UNL     1       3.057  -1.444  13.585  1.00  0.00     0.035 C 
BRANCH  54  55
HETATM   55  C3  UNL     1       2.275  -0.627  14.538  1.00  0.00     0.002 C 
BRANCH  55  56
HETATM   56  C2  UNL     1       0.824  -0.622  14.029  1.00  0.00    -0.004 C 
HETATM   57  C1  UNL     1       0.596   0.446  13.012  1.00  0.00     0.005 C 
ENDBRANCH  55  56
ENDBRANCH  54  55
ENDBRANCH   1  54
TORSDOF 15
ENDMDL
MODEL 5
REMARK VINA RESULT: -7.544484191      5.202     12.072
REMARK  15 active torsions:
REMARK  status: ('A' for Active; 'I' for Inactive)
REMARK    1  A    between atoms: C2_2  and  C3_3 
REMARK    2  A    between atoms: C3_3  and  C4_4 
REMARK    3  A    between atoms: C4_4  and  C5_5 
REMARK    4  A    between atoms: C9_14  and  O2_15 
REMARK    5  A    between atoms: C10_17  and  C11_18 
REMARK    6  A    between atoms: C14_21  and  C15_22 
REMARK    7  A    between atoms: C15_22  and  C16_23 
REMARK       I    between atoms: C16_23  and  N3_25 
REMARK    8  A    between atoms: N3_25  and  C17_27 
REMARK    9  A    between atoms: C17_27  and  C18_28 
REMARK   10  A    between atoms: C23_36  and  O4_37 
REMARK   11  A    between atoms: C24_39  and  C25_40 
REMARK   12  A    between atoms: C25_40  and  C26_41 
REMARK   13  A    between atoms: C29_46  and  O5_47 
REMARK   14  A    between atoms: C30_49  and  C31_50 
REMARK   15  A    between atoms: C31_50  and  C32_51 
ROOT
HETATM    1  C5  UNL     1       6.556  -1.436  13.165  1.00  0.00     0.176 C 
HETATM    2  N1  UNL     1       7.138  -0.968  11.927  1.00  0.00    -0.346 N 
ATOM      3  H1  UNL     1       6.713  -1.335  11.075  1.00  0.00     0.163 HD
HETATM    4  C6  UNL     1       8.191  -0.091  11.736  1.00  0.00     0.240 C 
HETATM    5  O1  UNL     1       9.116  -0.494  10.924  1.00  0.00    -0.271 OA
HETATM    6  C7  UNL     1       8.453   1.243  12.301  1.00  0.00     0.171 C 
HETATM    7  C8  UNL     1       7.845   1.566  13.601  1.00  0.00     0.042 C 
HETATM    8  N2  UNL     1       8.327   2.222  11.249  1.00  0.00    -0.361 N 
ATOM      9  H2  UNL     1       8.770   1.892  10.392  1.00  0.00     0.162 HD
HETATM   10  C9  UNL     1       7.793   3.450  11.073  1.00  0.00     0.118 C 
HETATM   11  C10 UNL     1       6.401   4.021  10.881  1.00  0.00     0.090 C 
HETATM   12  C14 UNL     1       5.487   3.119  10.178  1.00  0.00     0.123 C 
HETATM   13  N5  UNL     1       4.105   3.028  10.567  1.00  0.00    -0.364 N 
ATOM     14  H5  UNL     1       3.648   3.937  10.497  1.00  0.00     0.162 HD
HETATM   15  C23 UNL     1       3.224   2.071  11.004  1.00  0.00     0.135 C 
HETATM   16  C24 UNL     1       2.933   1.349  12.258  1.00  0.00     0.158 C 
HETATM   17  N6  UNL     1       3.803   1.503  13.341  1.00  0.00    -0.361 N 
ATOM     18  H6  UNL     1       4.333   2.373  13.373  1.00  0.00     0.162 HD
HETATM   19  C29 UNL     1       4.032   0.599  14.386  1.00  0.00     0.135 C 
HETATM   20  C30 UNL     1       3.786  -0.815  14.559  1.00  0.00     0.159 C 
HETATM   21  N7  UNL     1       4.007  -1.634  13.352  1.00  0.00    -0.347 N 
ATOM     22  H7  UNL     1       3.185  -1.895  12.807  1.00  0.00     0.163 HD
HETATM   23  C35 UNL     1       5.253  -2.085  12.892  1.00  0.00     0.241 C 
HETATM   24  O6  UNL     1       5.326  -3.143  12.168  1.00  0.00    -0.271 OA
ENDROOT
BRANCH  12  25
HETATM   25  C15 UNL     1       5.337   3.575   8.700  1.00  0.00     0.073 C 
BRANCH  25  26
HETATM   26  C16 UNL     1       6.440   3.531   7.822  1.00  0.00     0.239 C 
HETATM   27  O3  UNL     1       7.129   2.538   7.550  1.00  0.00    -0.269 OA
HETATM   28  N3  UNL     1       6.829   4.744   7.163  1.00  0.00    -0.356 N 
ATOM     29  H3  UNL     1       6.305   5.602   7.336  1.00  0.00     0.162 HD
BRANCH  28  30
HETATM   30  C17 UNL     1       7.947   4.765   6.261  1.00  0.00     0.158 C 
BRANCH  30  31
HETATM   31  C18 UNL     1       9.028   5.713   6.737  1.00  0.00     0.240 C 
HETATM   32  C19 UNL     1       9.784   5.151   7.916  1.00  0.00     0.039 C 
HETATM   33  C20 UNL     1      11.052   5.980   7.906  1.00  0.00     0.032 C 
HETATM   34  C21 UNL     1      11.312   6.087   6.418  1.00  0.00     0.272 C 
HETATM   35  N4  UNL     1      10.041   5.935   5.759  1.00  0.00     0.090 N 
HETATM   36  C22 UNL     1      10.159   4.897   4.769  1.00  0.00     0.310 C 
ENDBRANCH  30  31
ENDBRANCH  28  30
ENDBRANCH  25  26
ENDBRANCH  12  25
BRANCH  11  37
HETATM   37  C11 UNL     1       6.021   4.707  12.154  1.00  0.00    -0.009 C 
HETATM   38  C12 UNL     1       4.699   5.424  12.183  1.00  0.00     0.010 C 
HETATM   39  C13 UNL     1       7.062   5.806  12.457  1.00  0.00     0.010 C 
ENDBRANCH  11  37
BRANCH  10  40
HETATM   40  O2  UNL     1       8.665   4.437  11.050  1.00  0.00    -0.349 OA
ATOM     41  H2  UNL     1       9.542   4.203  11.331  1.00  0.00     0.219 HD
ENDBRANCH  10  40
BRANCH  15  42
HETATM   42  O4  UNL     1       2.353   1.626  10.093  1.00  0.00    -0.348 OA
ATOM     43  H4  UNL     1       2.695   1.000   9.467  1.00  0.00     0.219 HD
ENDBRANCH  15  42
BRANCH  16  44
HETATM   44  C25 UNL     1       1.447   1.461  12.562  1.00  0.00     0.037 C 
BRANCH  44  45
HETATM   45  C26 UNL     1       0.706   0.187  12.686  1.00  0.00    -0.020 C 
HETATM   46  C27 UNL     1      -0.416   0.474  13.720  1.00  0.00     0.009 C 
HETATM   47  C28 UNL     1      -0.063  -0.231  11.447  1.00  0.00     0.009 C 
ENDBRANCH  44  45
ENDBRANCH  16  44
BRANCH  19  48
HETATM   48  O5  UNL     1       4.598   1.152  15.442  1.00  0.00    -0.348 OA
ATOM     49  H5  UNL     1       5.479   1.467  15.276  1.00  0.00     0.219 HD
ENDBRANCH  19  48
BRANCH  20  50
HETATM   50  C31 UNL     1       2.526  -1.295  15.166  1.00  0.00     0.037 C 
BRANCH  50  51
HETATM   51  C32 UNL     1       2.480  -2.571  15.895  1.00  0.00    -0.020 C 
HETATM   52  C33 UNL     1       3.715  -3.043  16.577  1.00  0.00     0.009 C 
HETATM   53  C34 UNL     1       1.883  -3.703  15.057  1.00  0.00     0.009 C 
ENDBRANCH  50  51
ENDBRANCH  20  50
BRANCH   1  54
HETATM   54  C4  UNL     1       7.470  -2.240  14.025  1.00  0.00     0.035 C 
BRANCH  54  55
HETATM   55  C3  UNL     1       8.090  -1.558  15.183  1.00  0.00     0.002 C 
BRANCH  55  56
HETATM   56  C2  UNL     1       9.612  -1.708  15.021  1.00  0.00    -0.004 C 
HETATM   57  C1  UNL     1      10.149  -2.833  15.842  1.00  0.00     0.005 C 
ENDBRANCH  55  56
ENDBRANCH  54  55
ENDBRANCH   1  54
TORSDOF 15
ENDMDL
