MODEL 1
REMARK VINA RESULT: -9.901453920      0.000      0.000
REMARK  12 active torsions:
REMARK  status: ('A' for Active; 'I' for Inactive)
REMARK    1  A    between atoms: N2_7  and  C6_8 
REMARK    2  A    between atoms: C6_8  and  N3_10 
REMARK    3  A    between atoms: N3_10  and  C7_12 
REMARK    4  A    between atoms: C7_12  and  C8_13 
REMARK    5  A    between atoms: C8_13  and  C9_14 
REMARK    6  A    between atoms: C9_14  and  C10_15 
REMARK    7  A    between atoms: C10_15  and  C11_16 
REMARK    8  A    between atoms: C11_16  and  C12_17 
REMARK    9  A    between atoms: C12_17  and  C13_18 
REMARK   10  A    between atoms: C13_18  and  N4_19 
REMARK   11  A    between atoms: C20_26  and  C21_27 
REMARK   12  A    between atoms: C27_37  and  O1_38 
ROOT
HETATM    1  C1  UNL     1       6.806  -1.833  14.908  1.00  0.00     0.152 C 
HETATM    2  N1  UNL     1       5.410  -2.269  14.876  1.00  0.00    -0.355 N 
HETATM    3  C2  UNL     1       4.684  -2.532  16.115  1.00  0.00     0.137 C 
HETATM    4  C3  UNL     1       3.511  -3.289  15.621  1.00  0.00     0.009 C 
HETATM    5  C4  UNL     1       2.423  -3.533  16.580  1.00  0.00     0.033 C 
HETATM    6  C5  UNL     1       3.028  -4.616  17.492  1.00  0.00     0.126 C 
HETATM    7  N2  UNL     1       3.693  -5.464  16.545  1.00  0.00    -0.357 N 
HETATM    8  C19 UNL     1       4.009  -4.722  15.359  1.00  0.00     0.137 C 
HETATM    9  C20 UNL     1       3.197  -2.720  14.302  1.00  0.00     0.132 C 
HETATM   10  C31 UNL     1       4.574  -2.499  13.751  1.00  0.00     0.228 C 
HETATM   11  O2  UNL     1       4.948  -2.507  12.558  1.00  0.00    -0.273 OA
ENDROOT
BRANCH   9  12
HETATM   12  C21 UNL     1       2.457  -1.435  14.236  1.00  0.00     0.195 C 
HETATM   13  N5  UNL     1       1.105  -1.653  13.811  1.00  0.00    -0.376 N 
HETATM   14  C22 UNL     1       0.366  -0.516  13.452  1.00  0.00     0.098 C 
ATOM     15  H5  UNL     1       0.700  -2.589  13.772  1.00  0.00     0.161 HD
HETATM   16  C23 UNL     1       1.058   0.588  12.796  1.00  0.00     0.006 A 
HETATM   17  C24 UNL     1       0.361   1.592  12.112  1.00  0.00     0.017 A 
HETATM   18  C30 UNL     1       2.434   0.633  12.863  1.00  0.00     0.054 A 
HETATM   19  C25 UNL     1       1.048   2.618  11.512  1.00  0.00     0.031 A 
HETATM   20  C26 UNL     1       2.423   2.674  11.572  1.00  0.00     0.046 A 
HETATM   21  N6  UNL     1       3.347   3.534  11.094  1.00  0.00    -0.336 N 
HETATM   22  C29 UNL     1       3.107   1.687  12.243  1.00  0.00     0.022 A 
HETATM   23  C27 UNL     1       4.584   3.094  11.459  1.00  0.00     0.141 A 
ATOM     24  H6  UNL     1       3.152   4.374  10.549  1.00  0.00     0.168 HD
HETATM   25  C28 UNL     1       4.466   1.926  12.188  1.00  0.00     0.072 A 
HETATM   26  N7  UNL     1       3.129  -0.387  13.550  1.00  0.00    -0.366 N 
ATOM     27  H7  UNL     1       4.149  -0.370  13.554  1.00  0.00     0.161 HD
BRANCH  23  28
HETATM   28  O1  UNL     1       5.768   3.737  11.135  1.00  0.00    -0.346 OA
ATOM     29  H1  UNL     1       6.616   3.311  11.097  1.00  0.00     0.219 HD
ENDBRANCH  23  28
ENDBRANCH   9  12
BRANCH   7  30
HETATM   30  C6  UNL     1       4.007  -6.846  16.734  1.00  0.00     0.169 C 
HETATM   31  S1  UNL     1       4.472  -7.396  18.210  1.00  0.00    -0.041 SA
BRANCH  30  32
HETATM   32  N3  UNL     1       3.945  -7.735  15.645  1.00  0.00    -0.367 N 
ATOM     33  H3  UNL     1       4.151  -7.374  14.714  1.00  0.00     0.161 HD
BRANCH  32  34
HETATM   34  C7  UNL     1       3.605  -9.129  15.777  1.00  0.00     0.122 C 
BRANCH  34  35
HETATM   35  C8  UNL     1       4.313  -9.974  14.774  1.00  0.00     0.020 C 
BRANCH  35  36
HETATM   36  C9  UNL     1       5.298 -10.922  15.371  1.00  0.00     0.002 C 
BRANCH  36  37
HETATM   37  C10 UNL     1       5.886 -10.538  16.677  1.00  0.00     0.000 C 
BRANCH  37  38
HETATM   38  C11 UNL     1       7.377 -10.283  16.658  1.00  0.00     0.005 C 
BRANCH  38  39
HETATM   39  C12 UNL     1       7.687  -8.925  17.180  1.00  0.00     0.044 C 
BRANCH  39  40
HETATM   40  C13 UNL     1       8.908  -8.237  16.751  1.00  0.00     0.058 C 
BRANCH  40  41
HETATM   41  N4  UNL     1       8.998  -6.891  16.503  1.00  0.00    -0.393 N 
HETATM   42  C14 UNL     1       9.436  -6.348  15.301  1.00  0.00     0.122 C 
HETATM   43  C15 UNL     1       9.154  -4.840  15.203  1.00  0.00     0.020 C 
HETATM   44  C16 UNL     1      10.065  -4.173  16.206  1.00  0.00     0.003 C 
HETATM   45  C17 UNL     1      10.160  -5.005  17.432  1.00  0.00     0.020 C 
HETATM   46  C18 UNL     1       9.008  -5.978  17.626  1.00  0.00     0.122 C 
ENDBRANCH  40  41
ENDBRANCH  39  40
ENDBRANCH  38  39
ENDBRANCH  37  38
ENDBRANCH  36  37
ENDBRANCH  35  36
ENDBRANCH  34  35
ENDBRANCH  32  34
ENDBRANCH  30  32
ENDBRANCH   7  30
TORSDOF 12
ENDMDL
MODEL 2
REMARK VINA RESULT: -9.719405186      3.050      9.804
REMARK  12 active torsions:
REMARK  status: ('A' for Active; 'I' for Inactive)
REMARK    1  A    between atoms: N2_7  and  C6_8 
REMARK    2  A    between atoms: C6_8  and  N3_10 
REMARK    3  A    between atoms: N3_10  and  C7_12 
REMARK    4  A    between atoms: C7_12  and  C8_13 
REMARK    5  A    between atoms: C8_13  and  C9_14 
REMARK    6  A    between atoms: C9_14  and  C10_15 
REMARK    7  A    between atoms: C10_15  and  C11_16 
REMARK    8  A    between atoms: C11_16  and  C12_17 
REMARK    9  A    between atoms: C12_17  and  C13_18 
REMARK   10  A    between atoms: C13_18  and  N4_19 
REMARK   11  A    between atoms: C20_26  and  C21_27 
REMARK   12  A    between atoms: C27_37  and  O1_38 
ROOT
HETATM    1  C1  UNL     1       2.449  -4.298  17.167  1.00  0.00     0.152 C 
HETATM    2  N1  UNL     1       3.370  -3.692  16.206  1.00  0.00    -0.355 N 
HETATM    3  C2  UNL     1       3.626  -2.254  16.225  1.00  0.00     0.137 C 
HETATM    4  C3  UNL     1       4.266  -2.045  14.906  1.00  0.00     0.009 C 
HETATM    5  C4  UNL     1       4.875  -0.729  14.662  1.00  0.00     0.033 C 
HETATM    6  C5  UNL     1       3.642   0.170  14.463  1.00  0.00     0.126 C 
HETATM    7  N2  UNL     1       2.790  -0.665  13.668  1.00  0.00    -0.357 N 
HETATM    8  C19 UNL     1       3.123  -2.045  13.874  1.00  0.00     0.137 C 
HETATM    9  C20 UNL     1       5.048  -3.263  14.646  1.00  0.00     0.132 C 
HETATM   10  C31 UNL     1       4.120  -4.317  15.174  1.00  0.00     0.228 C 
HETATM   11  O2  UNL     1       4.002  -5.506  14.810  1.00  0.00    -0.273 OA
ENDROOT
BRANCH   9  12
HETATM   12  C21 UNL     1       6.364  -3.424  15.313  1.00  0.00     0.195 C 
HETATM   13  N5  UNL     1       7.427  -3.037  14.433  1.00  0.00    -0.376 N 
HETATM   14  C22 UNL     1       8.729  -3.379  14.828  1.00  0.00     0.098 C 
ATOM     15  H5  UNL     1       7.246  -2.537  13.562  1.00  0.00     0.161 HD
HETATM   16  C23 UNL     1       8.934  -4.633  15.544  1.00  0.00     0.006 A 
HETATM   17  C24 UNL     1      10.205  -5.208  15.675  1.00  0.00     0.017 A 
HETATM   18  C30 UNL     1       7.840  -5.255  16.106  1.00  0.00     0.054 A 
HETATM   19  C25 UNL     1      10.358  -6.387  16.362  1.00  0.00     0.031 A 
HETATM   20  C26 UNL     1       9.273  -7.018  16.927  1.00  0.00     0.046 A 
HETATM   21  N6  UNL     1       9.116  -8.152  17.641  1.00  0.00    -0.336 N 
HETATM   22  C29 UNL     1       8.025  -6.453  16.798  1.00  0.00     0.022 A 
HETATM   23  C27 UNL     1       7.798  -8.295  17.952  1.00  0.00     0.141 A 
ATOM     24  H6  UNL     1       9.862  -8.797  17.903  1.00  0.00     0.168 HD
HETATM   25  C28 UNL     1       7.080  -7.235  17.432  1.00  0.00     0.072 A 
HETATM   26  N7  UNL     1       6.562  -4.672  15.965  1.00  0.00    -0.366 N 
ATOM     27  H7  UNL     1       5.752  -5.164  16.343  1.00  0.00     0.161 HD
BRANCH  23  28
HETATM   28  O1  UNL     1       7.278  -9.353  18.681  1.00  0.00    -0.346 OA
ATOM     29  H1  UNL     1       6.468  -9.803  18.468  1.00  0.00     0.219 HD
ENDBRANCH  23  28
ENDBRANCH   9  12
BRANCH   7  30
HETATM   30  C6  UNL     1       1.752  -0.213  12.794  1.00  0.00     0.169 C 
HETATM   31  S1  UNL     1       0.193  -0.170  13.308  1.00  0.00    -0.041 SA
BRANCH  30  32
HETATM   32  N3  UNL     1       2.064   0.173  11.476  1.00  0.00    -0.367 N 
ATOM     33  H3  UNL     1       3.046   0.211  11.203  1.00  0.00     0.161 HD
BRANCH  32  34
HETATM   34  C7  UNL     1       1.068   0.515  10.493  1.00  0.00     0.122 C 
BRANCH  34  35
HETATM   35  C8  UNL     1       1.291   1.874   9.921  1.00  0.00     0.020 C 
BRANCH  35  36
HETATM   36  C9  UNL     1       1.315   2.961  10.942  1.00  0.00     0.002 C 
BRANCH  36  37
HETATM   37  C10 UNL     1       2.456   3.906  10.885  1.00  0.00     0.000 C 
BRANCH  37  38
HETATM   38  C11 UNL     1       3.709   3.440  11.594  1.00  0.00     0.005 C 
BRANCH  38  39
HETATM   39  C12 UNL     1       4.925   3.854  10.844  1.00  0.00     0.044 C 
BRANCH  39  40
HETATM   40  C13 UNL     1       6.097   2.975  10.806  1.00  0.00     0.058 C 
BRANCH  40  41
HETATM   41  N4  UNL     1       6.545   2.229  11.867  1.00  0.00    -0.393 N 
HETATM   42  C14 UNL     1       7.483   2.674  12.791  1.00  0.00     0.122 C 
HETATM   43  C15 UNL     1       7.572   1.756  14.021  1.00  0.00     0.020 C 
HETATM   44  C16 UNL     1       8.186   0.463  13.540  1.00  0.00     0.003 C 
HETATM   45  C17 UNL     1       7.667   0.130  12.190  1.00  0.00     0.020 C 
HETATM   46  C18 UNL     1       6.346   0.795  11.839  1.00  0.00     0.122 C 
ENDBRANCH  40  41
ENDBRANCH  39  40
ENDBRANCH  38  39
ENDBRANCH  37  38
ENDBRANCH  36  37
ENDBRANCH  35  36
ENDBRANCH  34  35
ENDBRANCH  32  34
ENDBRANCH  30  32
ENDBRANCH   7  30
TORSDOF 12
ENDMDL
MODEL 3
REMARK VINA RESULT: -9.613735939      0.906      1.296
REMARK  12 active torsions:
REMARK  status: ('A' for Active; 'I' for Inactive)
REMARK    1  A    between atoms: N2_7  and  C6_8 
REMARK    2  A    between atoms: C6_8  and  N3_10 
REMARK    3  A    between atoms: N3_10  and  C7_12 
REMARK    4  A    between atoms: C7_12  and  C8_13 
REMARK    5  A    between atoms: C8_13  and  C9_14 
REMARK    6  A    between atoms: C9_14  and  C10_15 
REMARK    7  A    between atoms: C10_15  and  C11_16 
REMARK    8  A    between atoms: C11_16  and  C12_17 
REMARK    9  A    between atoms: C12_17  and  C13_18 
REMARK   10  A    between atoms: C13_18  and  N4_19 
REMARK   11  A    between atoms: C20_26  and  C21_27 
REMARK   12  A    between atoms: C27_37  and  O1_38 
ROOT
HETATM    1  C1  UNL     1       6.778  -1.914  14.802  1.00  0.00     0.152 C 
HETATM    2  N1  UNL     1       5.357  -2.258  14.745  1.00  0.00    -0.355 N 
HETATM    3  C2  UNL     1       4.593  -2.470  15.972  1.00  0.00     0.137 C 
HETATM    4  C3  UNL     1       3.382  -3.149  15.456  1.00  0.00     0.009 C 
HETATM    5  C4  UNL     1       2.263  -3.319  16.396  1.00  0.00     0.033 C 
HETATM    6  C5  UNL     1       2.778  -4.438  17.318  1.00  0.00     0.126 C 
HETATM    7  N2  UNL     1       3.403  -5.330  16.384  1.00  0.00    -0.357 N 
HETATM    8  C19 UNL     1       3.789  -4.612  15.203  1.00  0.00     0.137 C 
HETATM    9  C20 UNL     1       3.129  -2.562  14.132  1.00  0.00     0.132 C 
HETATM   10  C31 UNL     1       4.528  -2.433  13.605  1.00  0.00     0.228 C 
HETATM   11  O2  UNL     1       4.922  -2.468  12.420  1.00  0.00    -0.273 OA
ENDROOT
BRANCH   9  12
HETATM   12  C21 UNL     1       2.477  -1.231  14.052  1.00  0.00     0.195 C 
HETATM   13  N5  UNL     1       1.080  -1.371  13.765  1.00  0.00    -0.376 N 
HETATM   14  C22 UNL     1       0.390  -0.203  13.403  1.00  0.00     0.098 C 
ATOM     15  H5  UNL     1       0.609  -2.274  13.821  1.00  0.00     0.161 HD
HETATM   16  C23 UNL     1       1.093   0.808  12.620  1.00  0.00     0.006 A 
HETATM   17  C24 UNL     1       0.406   1.821  11.940  1.00  0.00     0.017 A 
HETATM   18  C30 UNL     1       2.469   0.753  12.561  1.00  0.00     0.054 A 
HETATM   19  C25 UNL     1       1.103   2.758  11.217  1.00  0.00     0.031 A 
HETATM   20  C26 UNL     1       2.478   2.714  11.150  1.00  0.00     0.046 A 
HETATM   21  N6  UNL     1       3.411   3.474  10.539  1.00  0.00    -0.336 N 
HETATM   22  C29 UNL     1       3.152   1.718  11.818  1.00  0.00     0.022 A 
HETATM   23  C27 UNL     1       4.642   2.964  10.818  1.00  0.00     0.141 A 
ATOM     24  H6  UNL     1       3.223   4.295   9.962  1.00  0.00     0.168 HD
HETATM   25  C28 UNL     1       4.513   1.851  11.626  1.00  0.00     0.072 A 
HETATM   26  N7  UNL     1       3.153  -0.276  13.245  1.00  0.00    -0.366 N 
ATOM     27  H7  UNL     1       4.168  -0.335  13.156  1.00  0.00     0.161 HD
BRANCH  23  28
HETATM   28  O1  UNL     1       5.833   3.498  10.350  1.00  0.00    -0.346 OA
ATOM     29  H1  UNL     1       6.609   3.625  10.883  1.00  0.00     0.219 HD
ENDBRANCH  23  28
ENDBRANCH   9  12
BRANCH   7  30
HETATM   30  C6  UNL     1       3.622  -6.729  16.579  1.00  0.00     0.169 C 
HETATM   31  S1  UNL     1       2.365  -7.784  16.505  1.00  0.00    -0.041 SA
BRANCH  30  32
HETATM   32  N3  UNL     1       4.916  -7.204  16.863  1.00  0.00    -0.367 N 
ATOM     33  H3  UNL     1       5.630  -7.123  16.139  1.00  0.00     0.161 HD
BRANCH  32  34
HETATM   34  C7  UNL     1       5.284  -7.798  18.123  1.00  0.00     0.122 C 
BRANCH  34  35
HETATM   35  C8  UNL     1       5.411  -9.280  18.026  1.00  0.00     0.020 C 
BRANCH  35  36
HETATM   36  C9  UNL     1       5.763  -9.766  16.661  1.00  0.00     0.002 C 
BRANCH  36  37
HETATM   37  C10 UNL     1       7.025 -10.534  16.530  1.00  0.00     0.000 C 
BRANCH  37  38
HETATM   38  C11 UNL     1       8.143 -10.086  17.444  1.00  0.00     0.005 C 
BRANCH  38  39
HETATM   39  C12 UNL     1       8.902  -8.959  16.838  1.00  0.00     0.044 C 
BRANCH  39  40
HETATM   40  C13 UNL     1       8.628  -7.582  17.259  1.00  0.00     0.058 C 
BRANCH  40  41
HETATM   41  N4  UNL     1       9.314  -6.480  16.815  1.00  0.00    -0.393 N 
HETATM   42  C14 UNL     1       9.536  -5.341  17.580  1.00  0.00     0.122 C 
HETATM   43  C15 UNL     1      10.574  -4.403  16.941  1.00  0.00     0.020 C 
HETATM   44  C16 UNL     1       9.924  -3.834  15.702  1.00  0.00     0.003 C 
HETATM   45  C17 UNL     1       9.110  -4.881  15.035  1.00  0.00     0.020 C 
HETATM   46  C18 UNL     1       9.499  -6.307  15.390  1.00  0.00     0.122 C 
ENDBRANCH  40  41
ENDBRANCH  39  40
ENDBRANCH  38  39
ENDBRANCH  37  38
ENDBRANCH  36  37
ENDBRANCH  35  36
ENDBRANCH  34  35
ENDBRANCH  32  34
ENDBRANCH  30  32
ENDBRANCH   7  30
TORSDOF 12
ENDMDL
MODEL 4
REMARK VINA RESULT: -9.574519808      3.101     10.459
REMARK  12 active torsions:
REMARK  status: ('A' for Active; 'I' for Inactive)
REMARK    1  A    between atoms: N2_7  and  C6_8 
REMARK    2  A    between atoms: C6_8  and  N3_10 
REMARK    3  A    between atoms: N3_10  and  C7_12 
REMARK    4  A    between atoms: C7_12  and  C8_13 
REMARK    5  A    between atoms: C8_13  and  C9_14 
REMARK    6  A    between atoms: C9_14  and  C10_15 
REMARK    7  A    between atoms: C10_15  and  C11_16 
REMARK    8  A    between atoms: C11_16  and  C12_17 
REMARK    9  A    between atoms: C12_17  and  C13_18 
REMARK   10  A    between atoms: C13_18  and  N4_19 
REMARK   11  A    between atoms: C20_26  and  C21_27 
REMARK   12  A    between atoms: C27_37  and  O1_38 
ROOT
HETATM    1  C1  UNL     1       4.259  -2.375  16.522  1.00  0.00     0.152 C 
HETATM    2  N1  UNL     1       5.520  -2.770  15.896  1.00  0.00    -0.355 N 
HETATM    3  C2  UNL     1       6.717  -1.948  16.050  1.00  0.00     0.137 C 
HETATM    4  C3  UNL     1       7.590  -2.486  14.982  1.00  0.00     0.009 C 
HETATM    5  C4  UNL     1       8.993  -2.043  14.980  1.00  0.00     0.033 C 
HETATM    6  C5  UNL     1       8.877  -0.594  14.475  1.00  0.00     0.126 C 
HETATM    7  N2  UNL     1       7.900  -0.720  13.431  1.00  0.00    -0.357 N 
HETATM    8  C19 UNL     1       7.079  -1.872  13.665  1.00  0.00     0.137 C 
HETATM    9  C20 UNL     1       7.287  -3.923  14.905  1.00  0.00     0.132 C 
HETATM   10  C31 UNL     1       5.799  -3.911  15.097  1.00  0.00     0.228 C 
HETATM   11  O2  UNL     1       4.950  -4.718  14.663  1.00  0.00    -0.273 OA
ENDROOT
BRANCH   9  12
HETATM   12  C21 UNL     1       7.880  -4.833  15.916  1.00  0.00     0.195 C 
HETATM   13  N5  UNL     1       9.118  -5.376  15.440  1.00  0.00    -0.376 N 
HETATM   14  C22 UNL     1       9.660  -6.446  16.169  1.00  0.00     0.098 C 
ATOM     15  H5  UNL     1       9.584  -5.003  14.613  1.00  0.00     0.161 HD
HETATM   16  C23 UNL     1       8.747  -7.408  16.778  1.00  0.00     0.006 A 
HETATM   17  C24 UNL     1       9.186  -8.661  17.223  1.00  0.00     0.017 A 
HETATM   18  C30 UNL     1       7.421  -7.057  16.917  1.00  0.00     0.054 A 
HETATM   19  C25 UNL     1       8.298  -9.537  17.796  1.00  0.00     0.031 A 
HETATM   20  C26 UNL     1       6.971  -9.199  17.940  1.00  0.00     0.046 A 
HETATM   21  N6  UNL     1       5.893  -9.831  18.450  1.00  0.00    -0.336 N 
HETATM   22  C29 UNL     1       6.539  -7.968  17.503  1.00  0.00     0.022 A 
HETATM   23  C27 UNL     1       4.810  -9.013  18.335  1.00  0.00     0.141 A 
ATOM     24  H6  UNL     1       5.890 -10.768  18.855  1.00  0.00     0.168 HD
HETATM   25  C28 UNL     1       5.186  -7.825  17.739  1.00  0.00     0.072 A 
HETATM   26  N7  UNL     1       6.985  -5.794  16.461  1.00  0.00    -0.366 N 
ATOM     27  H7  UNL     1       5.994  -5.563  16.525  1.00  0.00     0.161 HD
BRANCH  23  28
HETATM   28  O1  UNL     1       3.533  -9.345  18.758  1.00  0.00    -0.346 OA
ATOM     29  H1  UNL     1       3.064  -8.894  19.450  1.00  0.00     0.219 HD
ENDBRANCH  23  28
ENDBRANCH   9  12
BRANCH   7  30
HETATM   30  C6  UNL     1       7.748   0.162  12.316  1.00  0.00     0.169 C 
HETATM   31  S1  UNL     1       9.060   0.649  11.458  1.00  0.00    -0.041 SA
BRANCH  30  32
HETATM   32  N3  UNL     1       6.469   0.637  11.968  1.00  0.00    -0.367 N 
ATOM     33  H3  UNL     1       6.018   0.247  11.140  1.00  0.00     0.161 HD
BRANCH  32  34
HETATM   34  C7  UNL     1       5.765   1.644  12.720  1.00  0.00     0.122 C 
BRANCH  34  35
HETATM   35  C8  UNL     1       4.311   1.336  12.841  1.00  0.00     0.020 C 
BRANCH  35  36
HETATM   36  C9  UNL     1       4.012   0.197  13.757  1.00  0.00     0.002 C 
BRANCH  36  37
HETATM   37  C10 UNL     1       3.583  -1.073  13.125  1.00  0.00     0.000 C 
BRANCH  37  38
HETATM   38  C11 UNL     1       2.240  -1.596  13.584  1.00  0.00     0.005 C 
BRANCH  38  39
HETATM   39  C12 UNL     1       1.316  -0.473  13.899  1.00  0.00     0.044 C 
BRANCH  39  40
HETATM   40  C13 UNL     1       0.300  -0.066  12.924  1.00  0.00     0.058 C 
BRANCH  40  41
HETATM   41  N4  UNL     1       0.517   0.813  11.893  1.00  0.00    -0.393 N 
HETATM   42  C14 UNL     1       1.354   0.554  10.814  1.00  0.00     0.122 C 
HETATM   43  C15 UNL     1       1.177   1.577   9.679  1.00  0.00     0.020 C 
HETATM   44  C16 UNL     1       1.722   2.886  10.201  1.00  0.00     0.003 C 
HETATM   45  C17 UNL     1       1.369   3.044  11.634  1.00  0.00     0.020 C 
HETATM   46  C18 UNL     1       0.183   2.207  12.089  1.00  0.00     0.122 C 
ENDBRANCH  40  41
ENDBRANCH  39  40
ENDBRANCH  38  39
ENDBRANCH  37  38
ENDBRANCH  36  37
ENDBRANCH  35  36
ENDBRANCH  34  35
ENDBRANCH  32  34
ENDBRANCH  30  32
ENDBRANCH   7  30
TORSDOF 12
ENDMDL
MODEL 5
REMARK VINA RESULT: -9.464709497      3.067     10.765
REMARK  12 active torsions:
REMARK  status: ('A' for Active; 'I' for Inactive)
REMARK    1  A    between atoms: N2_7  and  C6_8 
REMARK    2  A    between atoms: C6_8  and  N3_10 
REMARK    3  A    between atoms: N3_10  and  C7_12 
REMARK    4  A    between atoms: C7_12  and  C8_13 
REMARK    5  A    between atoms: C8_13  and  C9_14 
REMARK    6  A    between atoms: C9_14  and  C10_15 
REMARK    7  A    between atoms: C10_15  and  C11_16 
REMARK    8  A    between atoms: C11_16  and  C12_17 
REMARK    9  A    between atoms: C12_17  and  C13_18 
REMARK   10  A    between atoms: C13_18  and  N4_19 
REMARK   11  A    between atoms: C20_26  and  C21_27 
REMARK   12  A    between atoms: C27_37  and  O1_38 
ROOT
HETATM    1  C1  UNL     1       4.126  -2.460  16.548  1.00  0.00     0.152 C 
HETATM    2  N1  UNL     1       5.393  -2.821  15.914  1.00  0.00    -0.355 N 
HETATM    3  C2  UNL     1       6.568  -1.966  16.057  1.00  0.00     0.137 C 
HETATM    4  C3  UNL     1       7.448  -2.483  14.985  1.00  0.00     0.009 C 
HETATM    5  C4  UNL     1       8.838  -2.001  14.973  1.00  0.00     0.033 C 
HETATM    6  C5  UNL     1       8.679  -0.558  14.462  1.00  0.00     0.126 C 
HETATM    7  N2  UNL     1       7.699  -0.716  13.426  1.00  0.00    -0.357 N 
HETATM    8  C19 UNL     1       6.912  -1.890  13.669  1.00  0.00     0.137 C 
HETATM    9  C20 UNL     1       7.185  -3.928  14.917  1.00  0.00     0.132 C 
HETATM   10  C31 UNL     1       5.699  -3.958  15.118  1.00  0.00     0.228 C 
HETATM   11  O2  UNL     1       4.870  -4.790  14.693  1.00  0.00    -0.273 OA
ENDROOT
BRANCH   9  12
HETATM   12  C21 UNL     1       7.810  -4.818  15.926  1.00  0.00     0.195 C 
HETATM   13  N5  UNL     1       9.069  -5.313  15.452  1.00  0.00    -0.376 N 
HETATM   14  C22 UNL     1       9.649  -6.364  16.181  1.00  0.00     0.098 C 
ATOM     15  H5  UNL     1       9.522  -4.922  14.626  1.00  0.00     0.161 HD
HETATM   16  C23 UNL     1       8.772  -7.360  16.787  1.00  0.00     0.006 A 
HETATM   17  C24 UNL     1       9.257  -8.596  17.230  1.00  0.00     0.017 A 
HETATM   18  C30 UNL     1       7.433  -7.059  16.924  1.00  0.00     0.054 A 
HETATM   19  C25 UNL     1       8.401  -9.506  17.800  1.00  0.00     0.031 A 
HETATM   20  C26 UNL     1       7.062  -9.218  17.942  1.00  0.00     0.046 A 
HETATM   21  N6  UNL     1       6.007  -9.891  18.450  1.00  0.00    -0.336 N 
HETATM   22  C29 UNL     1       6.585  -8.003  17.506  1.00  0.00     0.022 A 
HETATM   23  C27 UNL     1       4.895  -9.114  18.334  1.00  0.00     0.141 A 
ATOM     24  H6  UNL     1       6.039 -10.827  18.853  1.00  0.00     0.168 HD
HETATM   25  C28 UNL     1       5.228  -7.911  17.740  1.00  0.00     0.072 A 
HETATM   26  N7  UNL     1       6.951  -5.812  16.469  1.00  0.00    -0.366 N 
ATOM     27  H7  UNL     1       5.951  -5.619  16.532  1.00  0.00     0.161 HD
BRANCH  23  28
HETATM   28  O1  UNL     1       3.630  -9.493  18.755  1.00  0.00    -0.346 OA
ATOM     29  H1  UNL     1       2.872  -9.554  18.185  1.00  0.00     0.219 HD
ENDBRANCH  23  28
ENDBRANCH   9  12
BRANCH   7  30
HETATM   30  C6  UNL     1       7.514   0.157  12.309  1.00  0.00     0.169 C 
HETATM   31  S1  UNL     1       8.809   0.697  11.455  1.00  0.00    -0.041 SA
BRANCH  30  32
HETATM   32  N3  UNL     1       6.219   0.577  11.954  1.00  0.00    -0.367 N 
ATOM     33  H3  UNL     1       5.642  -0.053  11.396  1.00  0.00     0.161 HD
BRANCH  32  34
HETATM   34  C7  UNL     1       5.664   1.850  12.337  1.00  0.00     0.122 C 
BRANCH  34  35
HETATM   35  C8  UNL     1       4.862   2.464  11.241  1.00  0.00     0.020 C 
BRANCH  35  36
HETATM   36  C9  UNL     1       3.865   3.468  11.713  1.00  0.00     0.002 C 
BRANCH  36  37
HETATM   37  C10 UNL     1       2.869   3.937  10.721  1.00  0.00     0.000 C 
BRANCH  37  38
HETATM   38  C11 UNL     1       1.474   3.379  10.900  1.00  0.00     0.005 C 
BRANCH  38  39
HETATM   39  C12 UNL     1       1.240   2.236   9.976  1.00  0.00     0.044 C 
BRANCH  39  40
HETATM   40  C13 UNL     1       1.187   0.869  10.502  1.00  0.00     0.058 C 
BRANCH  40  41
HETATM   41  N4  UNL     1       1.456   0.523  11.802  1.00  0.00    -0.393 N 
HETATM   42  C14 UNL     1       2.553  -0.234  12.195  1.00  0.00     0.122 C 
HETATM   43  C15 UNL     1       2.760  -0.214  13.719  1.00  0.00     0.020 C 
HETATM   44  C16 UNL     1       1.607  -0.989  14.312  1.00  0.00     0.003 C 
HETATM   45  C17 UNL     1       0.362  -0.699  13.557  1.00  0.00     0.020 C 
HETATM   46  C18 UNL     1       0.387   0.605  12.775  1.00  0.00     0.122 C 
ENDBRANCH  40  41
ENDBRANCH  39  40
ENDBRANCH  38  39
ENDBRANCH  37  38
ENDBRANCH  36  37
ENDBRANCH  35  36
ENDBRANCH  34  35
ENDBRANCH  32  34
ENDBRANCH  30  32
ENDBRANCH   7  30
TORSDOF 12
ENDMDL
