MODEL 1
REMARK VINA RESULT: -10.949790340      0.000      0.000
REMARK  9 active torsions:
REMARK  status: ('A' for Active; 'I' for Inactive)
REMARK    1  A    between atoms: C5_6  and  C6_7 
REMARK    2  A    between atoms: C6_7  and  N2_8 
REMARK    3  A    between atoms: C11_15  and  N4_16 
REMARK    4  A    between atoms: N4_16  and  C12_18 
REMARK    5  A    between atoms: C15_21  and  N5_22 
REMARK    6  A    between atoms: N5_22  and  C16_24 
REMARK    7  A    between atoms: C16_24  and  C17_25 
REMARK    8  A    between atoms: C16_24  and  C24_33 
REMARK    9  A    between atoms: C17_25  and  C18_26 
REMARK       I    between atoms: C24_33  and  N7_35 
ROOT
HETATM    1  C12 UNL     1       8.904  -2.853  15.212  1.00  0.00     0.032 A 
HETATM    2  C13 UNL     1       9.026  -1.451  15.269  1.00  0.00     0.031 A 
HETATM    3  C14 UNL     1       8.323  -0.609  14.455  1.00  0.00     0.031 A 
HETATM    4  C15 UNL     1       7.439  -1.092  13.515  1.00  0.00     0.028 A 
HETATM    5  C29 UNL     1       7.304  -2.465  13.443  1.00  0.00     0.031 A 
HETATM    6  C30 UNL     1       8.017  -3.326  14.269  1.00  0.00     0.031 A 
ENDROOT
BRANCH   4   7
HETATM    7  N5  UNL     1       6.686  -0.270  12.651  1.00  0.00    -0.376 N 
ATOM      8  H5  UNL     1       7.154   0.468  12.124  1.00  0.00     0.160 HD
BRANCH   7   9
HETATM    9  C16 UNL     1       5.270  -0.457  12.500  1.00  0.00     0.178 C 
BRANCH   9  10
HETATM   10  C17 UNL     1       4.514  -0.412  13.812  1.00  0.00     0.073 C 
BRANCH  10  11
HETATM   11  C18 UNL     1       3.448  -1.408  13.936  1.00  0.00    -0.056 A 
HETATM   12  C19 UNL     1       2.134  -1.021  13.993  1.00  0.00     0.009 A 
HETATM   13  C20 UNL     1       1.184  -2.024  14.119  1.00  0.00     0.027 A 
HETATM   14  C21 UNL     1       1.521  -3.365  14.189  1.00  0.00     0.046 A 
HETATM   15  N6  UNL     1       0.526  -4.366  14.319  1.00  0.00    -0.102 NA
HETATM   16  C22 UNL     1       2.846  -3.744  14.132  1.00  0.00     0.027 A 
HETATM   17  C23 UNL     1       3.800  -2.749  14.005  1.00  0.00     0.009 A 
ENDBRANCH  10  11
ENDBRANCH   9  10
BRANCH   9  18
HETATM   18  C24 UNL     1       4.672   0.664  11.689  1.00  0.00     0.245 C 
HETATM   19  O1  UNL     1       5.230   1.780  11.762  1.00  0.00    -0.271 OA
HETATM   20  N7  UNL     1       3.538   0.510  10.874  1.00  0.00    -0.324 N 
HETATM   21  C25 UNL     1       2.450   1.176  11.010  1.00  0.00     0.081 C 
ATOM     22  H7  UNL     1       3.584  -0.179  10.123  1.00  0.00     0.169 HD
HETATM   23  C26 UNL     1       2.106   2.225  11.999  1.00  0.00     0.082 C 
HETATM   24  C28 UNL     1       1.278   1.012  10.168  1.00  0.00     0.264 C 
HETATM   25  C27 UNL     1       0.619   2.325  11.961  1.00  0.00     0.129 C 
HETATM   26  N8  UNL     1       0.210   1.776  10.698  1.00  0.00    -0.356 N 
ATOM     27  H8  UNL     1      -0.700   1.913  10.256  1.00  0.00     0.162 HD
HETATM   28  O2  UNL     1       1.241   0.300   9.133  1.00  0.00    -0.266 OA
ENDBRANCH   9  18
ENDBRANCH   7   9
ENDBRANCH   4   7
BRANCH   1  29
HETATM   29  N4  UNL     1       9.678  -3.667  16.044  1.00  0.00    -0.355 N 
ATOM     30  H4  UNL     1      10.544  -3.281  16.419  1.00  0.00     0.166 HD
BRANCH  29  31
HETATM   31  C11 UNL     1       9.337  -4.985  16.394  1.00  0.00     0.050 A 
HETATM   32  C10 UNL     1      10.112  -6.089  16.165  1.00  0.00     0.117 A 
HETATM   33  N3  UNL     1       9.776  -7.352  16.532  1.00  0.00    -0.362 N 
HETATM   34  C9  UNL     1       8.623  -7.605  17.163  1.00  0.00     0.060 A 
ATOM     35  H3  UNL     1      10.414  -8.120  16.324  1.00  0.00     0.165 HD
HETATM   36  C8  UNL     1       7.996  -8.728  17.660  1.00  0.00     0.049 A 
HETATM   37  C32 UNL     1       7.766  -6.446  17.423  1.00  0.00     0.063 A 
HETATM   38  C7  UNL     1       6.810  -8.280  18.199  1.00  0.00     0.094 A 
HETATM   39  N2  UNL     1       6.680  -6.948  18.059  1.00  0.00    -0.351 N 
HETATM   40  C31 UNL     1       8.112  -5.177  17.051  1.00  0.00     0.063 A 
BRANCH  39  41
HETATM   41  C6  UNL     1       5.546  -6.178  18.517  1.00  0.00     0.168 C 
BRANCH  41  42
HETATM   42  C5  UNL     1       4.316  -6.775  17.948  1.00  0.00    -0.024 A 
HETATM   43  C4  UNL     1       3.996  -6.507  16.623  1.00  0.00     0.011 A 
HETATM   44  C3  UNL     1       2.856  -7.051  16.062  1.00  0.00     0.018 A 
HETATM   45  C2  UNL     1       2.042  -7.861  16.824  1.00  0.00     0.090 A 
HETATM   46  N1  UNL     1       2.351  -8.121  18.104  1.00  0.00    -0.370 N 
HETATM   47  C1  UNL     1       1.456  -8.979  18.852  1.00  0.00     0.154 C 
HETATM   48  C33 UNL     1       3.475  -7.581  18.645  1.00  0.00     0.098 A 
ENDBRANCH  41  42
ENDBRANCH  39  41
ENDBRANCH  29  31
ENDBRANCH   1  29
TORSDOF 9
ENDMDL
MODEL 2
REMARK VINA RESULT: -10.679919828      3.421      9.734
REMARK  9 active torsions:
REMARK  status: ('A' for Active; 'I' for Inactive)
REMARK    1  A    between atoms: C5_6  and  C6_7 
REMARK    2  A    between atoms: C6_7  and  N2_8 
REMARK    3  A    between atoms: C11_15  and  N4_16 
REMARK    4  A    between atoms: N4_16  and  C12_18 
REMARK    5  A    between atoms: C15_21  and  N5_22 
REMARK    6  A    between atoms: N5_22  and  C16_24 
REMARK    7  A    between atoms: C16_24  and  C17_25 
REMARK    8  A    between atoms: C16_24  and  C24_33 
REMARK    9  A    between atoms: C17_25  and  C18_26 
REMARK       I    between atoms: C24_33  and  N7_35 
ROOT
HETATM    1  C12 UNL     1       7.722  -1.155  14.683  1.00  0.00     0.032 A 
HETATM    2  C13 UNL     1       8.693  -2.011  15.239  1.00  0.00     0.031 A 
HETATM    3  C14 UNL     1       8.430  -3.305  15.591  1.00  0.00     0.031 A 
HETATM    4  C15 UNL     1       7.179  -3.856  15.419  1.00  0.00     0.028 A 
HETATM    5  C29 UNL     1       6.212  -3.033  14.875  1.00  0.00     0.031 A 
HETATM    6  C30 UNL     1       6.474  -1.715  14.515  1.00  0.00     0.031 A 
ENDROOT
BRANCH   4   7
HETATM    7  N5  UNL     1       6.852  -5.184  15.763  1.00  0.00    -0.376 N 
ATOM      8  H5  UNL     1       7.105  -5.943  15.131  1.00  0.00     0.160 HD
BRANCH   7   9
HETATM    9  C16 UNL     1       6.169  -5.482  16.990  1.00  0.00     0.178 C 
BRANCH   9  10
HETATM   10  C17 UNL     1       4.890  -6.268  16.792  1.00  0.00     0.073 C 
BRANCH  10  11
HETATM   11  C18 UNL     1       3.821  -5.533  16.113  1.00  0.00    -0.056 A 
HETATM   12  C19 UNL     1       3.233  -4.448  16.708  1.00  0.00     0.009 A 
HETATM   13  C20 UNL     1       2.222  -3.810  16.004  1.00  0.00     0.027 A 
HETATM   14  C21 UNL     1       1.804  -4.233  14.753  1.00  0.00     0.046 A 
HETATM   15  N6  UNL     1       0.766  -3.561  14.060  1.00  0.00    -0.102 NA
HETATM   16  C22 UNL     1       2.402  -5.327  14.164  1.00  0.00     0.027 A 
HETATM   17  C23 UNL     1       3.412  -5.968  14.860  1.00  0.00     0.009 A 
ENDBRANCH  10  11
ENDBRANCH   9  10
BRANCH   9  18
HETATM   18  C24 UNL     1       7.018  -6.370  17.865  1.00  0.00     0.245 C 
HETATM   19  O1  UNL     1       8.076  -5.882  18.316  1.00  0.00    -0.271 OA
HETATM   20  N7  UNL     1       6.674  -7.694  18.187  1.00  0.00    -0.324 N 
HETATM   21  C25 UNL     1       7.400  -8.718  17.917  1.00  0.00     0.081 C 
ATOM     22  H7  UNL     1       5.789  -7.852  18.668  1.00  0.00     0.169 HD
HETATM   23  C26 UNL     1       8.714  -8.787  17.236  1.00  0.00     0.082 C 
HETATM   24  C28 UNL     1       7.042 -10.086  18.248  1.00  0.00     0.264 C 
HETATM   25  C27 UNL     1       8.866 -10.212  16.823  1.00  0.00     0.129 C 
HETATM   26  N8  UNL     1       7.978 -10.971  17.660  1.00  0.00    -0.356 N 
ATOM     27  H8  UNL     1       8.016 -11.980  17.806  1.00  0.00     0.162 HD
HETATM   28  O2  UNL     1       6.052 -10.411  18.950  1.00  0.00    -0.266 OA
ENDBRANCH   9  18
ENDBRANCH   7   9
ENDBRANCH   4   7
BRANCH   1  29
HETATM   29  N4  UNL     1       8.038   0.172  14.378  1.00  0.00    -0.355 N 
ATOM     30  H4  UNL     1       8.329   0.782  15.142  1.00  0.00     0.166 HD
BRANCH  29  31
HETATM   31  C11 UNL     1       7.979   0.717  13.084  1.00  0.00     0.050 A 
HETATM   32  C10 UNL     1       8.804   0.379  12.046  1.00  0.00     0.117 A 
HETATM   33  N3  UNL     1       8.717   0.898  10.795  1.00  0.00    -0.362 N 
HETATM   34  C9  UNL     1       7.784   1.809  10.489  1.00  0.00     0.060 A 
ATOM     35  H3  UNL     1       9.372   0.590  10.077  1.00  0.00     0.165 HD
HETATM   36  C8  UNL     1       7.428   2.514   9.359  1.00  0.00     0.049 A 
HETATM   37  C32 UNL     1       6.883   2.197  11.576  1.00  0.00     0.063 A 
HETATM   38  C7  UNL     1       6.360   3.298   9.735  1.00  0.00     0.094 A 
HETATM   39  N2  UNL     1       6.046   3.110  11.029  1.00  0.00    -0.351 N 
HETATM   40  C31 UNL     1       6.978   1.667  12.834  1.00  0.00     0.063 A 
BRANCH  39  41
HETATM   41  C6  UNL     1       4.974   3.787  11.725  1.00  0.00     0.168 C 
BRANCH  41  42
HETATM   42  C5  UNL     1       3.703   3.095  11.408  1.00  0.00    -0.024 A 
HETATM   43  C4  UNL     1       2.824   3.692  10.514  1.00  0.00     0.011 A 
HETATM   44  C3  UNL     1       1.631   3.071  10.196  1.00  0.00     0.018 A 
HETATM   45  C2  UNL     1       1.322   1.857  10.771  1.00  0.00     0.090 A 
HETATM   46  N1  UNL     1       2.170   1.279  11.635  1.00  0.00    -0.370 N 
HETATM   47  C1  UNL     1       1.788   0.005  12.205  1.00  0.00     0.154 C 
HETATM   48  C33 UNL     1       3.341   1.900  11.940  1.00  0.00     0.098 A 
ENDBRANCH  41  42
ENDBRANCH  39  41
ENDBRANCH  29  31
ENDBRANCH   1  29
TORSDOF 9
ENDMDL
MODEL 3
REMARK VINA RESULT: -10.484692008      2.589      6.057
REMARK  9 active torsions:
REMARK  status: ('A' for Active; 'I' for Inactive)
REMARK    1  A    between atoms: C5_6  and  C6_7 
REMARK    2  A    between atoms: C6_7  and  N2_8 
REMARK    3  A    between atoms: C11_15  and  N4_16 
REMARK    4  A    between atoms: N4_16  and  C12_18 
REMARK    5  A    between atoms: C15_21  and  N5_22 
REMARK    6  A    between atoms: N5_22  and  C16_24 
REMARK    7  A    between atoms: C16_24  and  C17_25 
REMARK    8  A    between atoms: C16_24  and  C24_33 
REMARK    9  A    between atoms: C17_25  and  C18_26 
REMARK       I    between atoms: C24_33  and  N7_35 
ROOT
HETATM    1  C12 UNL     1       1.864  -1.524  13.515  1.00  0.00     0.032 A 
HETATM    2  C13 UNL     1       1.198  -0.372  13.051  1.00  0.00     0.031 A 
HETATM    3  C14 UNL     1       1.790   0.552  12.236  1.00  0.00     0.031 A 
HETATM    4  C15 UNL     1       3.095   0.408  11.817  1.00  0.00     0.028 A 
HETATM    5  C29 UNL     1       3.766  -0.715  12.262  1.00  0.00     0.031 A 
HETATM    6  C30 UNL     1       3.168  -1.659  13.090  1.00  0.00     0.031 A 
ENDROOT
BRANCH   4   7
HETATM    7  N5  UNL     1       3.755   1.328  10.977  1.00  0.00    -0.376 N 
ATOM      8  H5  UNL     1       3.694   1.218   9.965  1.00  0.00     0.160 HD
BRANCH   7   9
HETATM    9  C16 UNL     1       4.512   2.418  11.526  1.00  0.00     0.178 C 
BRANCH   9  10
HETATM   10  C17 UNL     1       5.984   2.368  11.171  1.00  0.00     0.073 C 
BRANCH  10  11
HETATM   11  C18 UNL     1       6.788   1.492  12.024  1.00  0.00    -0.056 A 
HETATM   12  C19 UNL     1       7.869   0.821  11.514  1.00  0.00     0.009 A 
HETATM   13  C20 UNL     1       8.575   0.003  12.384  1.00  0.00     0.027 A 
HETATM   14  C21 UNL     1       8.223  -0.148  13.715  1.00  0.00     0.046 A 
HETATM   15  N6  UNL     1       8.964  -0.993  14.579  1.00  0.00    -0.102 NA
HETATM   16  C22 UNL     1       7.132   0.531  14.218  1.00  0.00     0.027 A 
HETATM   17  C23 UNL     1       6.424   1.350  13.356  1.00  0.00     0.009 A 
ENDBRANCH  10  11
ENDBRANCH   9  10
BRANCH   9  18
HETATM   18  C24 UNL     1       4.038   3.731  10.956  1.00  0.00     0.245 C 
HETATM   19  O1  UNL     1       3.246   4.401  11.653  1.00  0.00    -0.271 OA
HETATM   20  N7  UNL     1       4.440   4.221   9.702  1.00  0.00    -0.324 N 
HETATM   21  C25 UNL     1       3.638   4.493   8.739  1.00  0.00     0.081 C 
ATOM     22  H7  UNL     1       5.438   4.369   9.548  1.00  0.00     0.169 HD
HETATM   23  C26 UNL     1       2.162   4.377   8.680  1.00  0.00     0.082 C 
HETATM   24  C28 UNL     1       4.057   4.997   7.442  1.00  0.00     0.264 C 
HETATM   25  C27 UNL     1       1.824   4.412   7.228  1.00  0.00     0.129 C 
HETATM   26  N8  UNL     1       2.942   5.027   6.569  1.00  0.00    -0.356 N 
ATOM     27  H8  UNL     1       2.935   5.420   5.627  1.00  0.00     0.162 HD
HETATM   28  O2  UNL     1       5.231   5.347   7.161  1.00  0.00    -0.266 OA
ENDBRANCH   9  18
ENDBRANCH   7   9
ENDBRANCH   4   7
BRANCH   1  29
HETATM   29  N4  UNL     1       1.220  -2.415  14.378  1.00  0.00    -0.355 N 
ATOM     30  H4  UNL     1       0.277  -2.183  14.690  1.00  0.00     0.166 HD
BRANCH  29  31
HETATM   31  C11 UNL     1       1.793  -3.611  14.844  1.00  0.00     0.050 A 
HETATM   32  C10 UNL     1       1.221  -4.851  14.746  1.00  0.00     0.117 A 
HETATM   33  N3  UNL     1       1.799  -5.999  15.180  1.00  0.00    -0.362 N 
HETATM   34  C9  UNL     1       3.010  -5.990  15.752  1.00  0.00     0.060 A 
ATOM     35  H3  UNL     1       1.304  -6.884  15.068  1.00  0.00     0.165 HD
HETATM   36  C8  UNL     1       3.857  -6.939  16.283  1.00  0.00     0.049 A 
HETATM   37  C32 UNL     1       3.652  -4.680  15.875  1.00  0.00     0.063 A 
HETATM   38  C7  UNL     1       4.966  -6.245  16.713  1.00  0.00     0.094 A 
HETATM   39  N2  UNL     1       4.842  -4.927  16.472  1.00  0.00    -0.351 N 
HETATM   40  C31 UNL     1       3.062  -3.527  15.434  1.00  0.00     0.063 A 
BRANCH  39  41
HETATM   41  C6  UNL     1       5.835  -3.931  16.808  1.00  0.00     0.168 C 
BRANCH  41  42
HETATM   42  C5  UNL     1       7.115  -4.316  16.168  1.00  0.00    -0.024 A 
HETATM   43  C4  UNL     1       7.241  -4.175  14.792  1.00  0.00     0.011 A 
HETATM   44  C3  UNL     1       8.423  -4.523  14.166  1.00  0.00     0.018 A 
HETATM   45  C2  UNL     1       9.472  -5.009  14.915  1.00  0.00     0.090 A 
HETATM   46  N1  UNL     1       9.352  -5.145  16.244  1.00  0.00    -0.370 N 
HETATM   47  C1  UNL     1      10.490  -5.662  16.976  1.00  0.00     0.154 C 
HETATM   48  C33 UNL     1       8.184  -4.799  16.850  1.00  0.00     0.098 A 
ENDBRANCH  41  42
ENDBRANCH  39  41
ENDBRANCH  29  31
ENDBRANCH   1  29
TORSDOF 9
ENDMDL
MODEL 4
REMARK VINA RESULT: -10.452233258      3.266      9.104
REMARK  9 active torsions:
REMARK  status: ('A' for Active; 'I' for Inactive)
REMARK    1  A    between atoms: C5_6  and  C6_7 
REMARK    2  A    between atoms: C6_7  and  N2_8 
REMARK    3  A    between atoms: C11_15  and  N4_16 
REMARK    4  A    between atoms: N4_16  and  C12_18 
REMARK    5  A    between atoms: C15_21  and  N5_22 
REMARK    6  A    between atoms: N5_22  and  C16_24 
REMARK    7  A    between atoms: C16_24  and  C17_25 
REMARK    8  A    between atoms: C16_24  and  C24_33 
REMARK    9  A    between atoms: C17_25  and  C18_26 
REMARK       I    between atoms: C24_33  and  N7_35 
ROOT
HETATM    1  C12 UNL     1       7.695  -1.781  15.006  1.00  0.00     0.032 A 
HETATM    2  C13 UNL     1       7.904  -2.954  14.254  1.00  0.00     0.031 A 
HETATM    3  C14 UNL     1       7.293  -4.142  14.542  1.00  0.00     0.031 A 
HETATM    4  C15 UNL     1       6.423  -4.262  15.603  1.00  0.00     0.028 A 
HETATM    5  C29 UNL     1       6.203  -3.123  16.354  1.00  0.00     0.031 A 
HETATM    6  C30 UNL     1       6.822  -1.912  16.065  1.00  0.00     0.031 A 
ENDROOT
BRANCH   4   7
HETATM    7  N5  UNL     1       5.764  -5.461  15.945  1.00  0.00    -0.376 N 
ATOM      8  H5  UNL     1       6.313  -6.289  16.177  1.00  0.00     0.160 HD
BRANCH   7   9
HETATM    9  C16 UNL     1       4.330  -5.534  15.972  1.00  0.00     0.178 C 
BRANCH   9  10
HETATM   10  C17 UNL     1       3.694  -5.422  14.601  1.00  0.00     0.073 C 
BRANCH  10  11
HETATM   11  C18 UNL     1       2.883  -4.220  14.401  1.00  0.00    -0.056 A 
HETATM   12  C19 UNL     1       1.515  -4.283  14.462  1.00  0.00     0.009 A 
HETATM   13  C20 UNL     1       0.817  -3.103  14.253  1.00  0.00     0.027 A 
HETATM   14  C21 UNL     1       1.451  -1.900  13.990  1.00  0.00     0.046 A 
HETATM   15  N6  UNL     1       0.709  -0.711  13.779  1.00  0.00    -0.102 NA
HETATM   16  C22 UNL     1       2.828  -1.848  13.930  1.00  0.00     0.027 A 
HETATM   17  C23 UNL     1       3.531  -3.021  14.139  1.00  0.00     0.009 A 
ENDBRANCH  10  11
ENDBRANCH   9  10
BRANCH   9  18
HETATM   18  C24 UNL     1       3.878  -6.880  16.481  1.00  0.00     0.245 C 
HETATM   19  O1  UNL     1       3.076  -6.887  17.439  1.00  0.00    -0.271 OA
HETATM   20  N7  UNL     1       4.312  -8.099  15.934  1.00  0.00    -0.324 N 
HETATM   21  C25 UNL     1       4.926  -9.012  16.594  1.00  0.00     0.081 C 
ATOM     22  H7  UNL     1       4.127  -8.269  14.946  1.00  0.00     0.169 HD
HETATM   23  C26 UNL     1       5.323  -9.037  18.021  1.00  0.00     0.082 C 
HETATM   24  C28 UNL     1       5.377 -10.271  16.026  1.00  0.00     0.264 C 
HETATM   25  C27 UNL     1       6.351 -10.112  18.123  1.00  0.00     0.129 C 
HETATM   26  N8  UNL     1       6.159 -10.963  16.983  1.00  0.00    -0.356 N 
ATOM     27  H8  UNL     1       6.524 -11.910  16.879  1.00  0.00     0.162 HD
HETATM   28  O2  UNL     1       5.103 -10.665  14.864  1.00  0.00    -0.266 OA
ENDBRANCH   9  18
ENDBRANCH   7   9
ENDBRANCH   4   7
BRANCH   1  29
HETATM   29  N4  UNL     1       8.377  -0.604  14.688  1.00  0.00    -0.355 N 
ATOM     30  H4  UNL     1       9.059  -0.250  15.359  1.00  0.00     0.166 HD
BRANCH  29  31
HETATM   31  C11 UNL     1       8.182   0.122  13.500  1.00  0.00     0.050 A 
HETATM   32  C10 UNL     1       9.059   0.168  12.450  1.00  0.00     0.117 A 
HETATM   33  N3  UNL     1       8.843   0.855  11.300  1.00  0.00    -0.362 N 
HETATM   34  C9  UNL     1       7.718   1.559  11.116  1.00  0.00     0.060 A 
ATOM     35  H3  UNL     1       9.549   0.836  10.564  1.00  0.00     0.165 HD
HETATM   36  C8  UNL     1       7.198   2.340  10.106  1.00  0.00     0.049 A 
HETATM   37  C32 UNL     1       6.758   1.534  12.221  1.00  0.00     0.063 A 
HETATM   38  C7  UNL     1       5.976   2.776  10.569  1.00  0.00     0.094 A 
HETATM   39  N2  UNL     1       5.723   2.303  11.803  1.00  0.00    -0.351 N 
HETATM   40  C31 UNL     1       6.983   0.838  13.376  1.00  0.00     0.063 A 
BRANCH  39  41
HETATM   41  C6  UNL     1       4.526   2.581  12.563  1.00  0.00     0.168 C 
BRANCH  41  42
HETATM   42  C5  UNL     1       3.380   1.939  11.878  1.00  0.00    -0.024 A 
HETATM   43  C4  UNL     1       3.531   0.645  11.397  1.00  0.00     0.011 A 
HETATM   44  C3  UNL     1       2.480   0.018  10.755  1.00  0.00     0.018 A 
HETATM   45  C2  UNL     1       1.284   0.683  10.598  1.00  0.00     0.090 A 
HETATM   46  N1  UNL     1       1.136   1.933  11.063  1.00  0.00    -0.370 N 
HETATM   47  C1  UNL     1      -0.144   2.579  10.866  1.00  0.00     0.154 C 
HETATM   48  C33 UNL     1       2.177   2.541  11.693  1.00  0.00     0.098 A 
ENDBRANCH  41  42
ENDBRANCH  39  41
ENDBRANCH  29  31
ENDBRANCH   1  29
TORSDOF 9
ENDMDL
MODEL 5
REMARK VINA RESULT: -10.436908269      3.113      6.485
REMARK  9 active torsions:
REMARK  status: ('A' for Active; 'I' for Inactive)
REMARK    1  A    between atoms: C5_6  and  C6_7 
REMARK    2  A    between atoms: C6_7  and  N2_8 
REMARK    3  A    between atoms: C11_15  and  N4_16 
REMARK    4  A    between atoms: N4_16  and  C12_18 
REMARK    5  A    between atoms: C15_21  and  N5_22 
REMARK    6  A    between atoms: N5_22  and  C16_24 
REMARK    7  A    between atoms: C16_24  and  C17_25 
REMARK    8  A    between atoms: C16_24  and  C24_33 
REMARK    9  A    between atoms: C17_25  and  C18_26 
REMARK       I    between atoms: C24_33  and  N7_35 
ROOT
HETATM    1  C12 UNL     1       2.561  -0.606  13.892  1.00  0.00     0.032 A 
HETATM    2  C13 UNL     1       1.947  -0.546  12.625  1.00  0.00     0.031 A 
HETATM    3  C14 UNL     1       2.393   0.264  11.619  1.00  0.00     0.031 A 
HETATM    4  C15 UNL     1       3.488   1.083  11.789  1.00  0.00     0.028 A 
HETATM    5  C29 UNL     1       4.105   1.039  13.025  1.00  0.00     0.031 A 
HETATM    6  C30 UNL     1       3.655   0.217  14.052  1.00  0.00     0.031 A 
ENDROOT
BRANCH   4   7
HETATM    7  N5  UNL     1       3.992   1.937  10.787  1.00  0.00    -0.376 N 
ATOM      8  H5  UNL     1       4.126   1.579   9.842  1.00  0.00     0.160 HD
BRANCH   7   9
HETATM    9  C16 UNL     1       4.321   3.304  11.079  1.00  0.00     0.178 C 
BRANCH   9  10
HETATM   10  C17 UNL     1       5.612   3.765  10.434  1.00  0.00     0.073 C 
BRANCH  10  11
HETATM   11  C18 UNL     1       6.801   3.017  10.848  1.00  0.00    -0.056 A 
HETATM   12  C19 UNL     1       7.253   3.084  12.140  1.00  0.00     0.009 A 
HETATM   13  C20 UNL     1       8.391   2.353  12.451  1.00  0.00     0.027 A 
HETATM   14  C21 UNL     1       9.060   1.583  11.515  1.00  0.00     0.046 A 
HETATM   15  N6  UNL     1      10.222   0.849  11.864  1.00  0.00    -0.102 NA
HETATM   16  C22 UNL     1       8.598   1.523  10.217  1.00  0.00     0.027 A 
HETATM   17  C23 UNL     1       7.462   2.249   9.899  1.00  0.00     0.009 A 
ENDBRANCH  10  11
ENDBRANCH   9  10
BRANCH   9  18
HETATM   18  C24 UNL     1       3.274   4.231  10.514  1.00  0.00     0.245 C 
HETATM   19  O1  UNL     1       2.134   4.180  11.022  1.00  0.00    -0.271 OA
HETATM   20  N7  UNL     1       3.523   5.131   9.464  1.00  0.00    -0.324 N 
HETATM   21  C25 UNL     1       2.897   5.130   8.344  1.00  0.00     0.081 C 
ATOM     22  H7  UNL     1       4.252   5.832   9.601  1.00  0.00     0.169 HD
HETATM   23  C26 UNL     1       1.808   4.242   7.875  1.00  0.00     0.082 C 
HETATM   24  C28 UNL     1       3.158   6.060   7.258  1.00  0.00     0.264 C 
HETATM   25  C27 UNL     1       1.772   4.414   6.394  1.00  0.00     0.129 C 
HETATM   26  N8  UNL     1       2.410   5.671   6.120  1.00  0.00    -0.356 N 
ATOM     27  H8  UNL     1       2.337   6.198   5.249  1.00  0.00     0.162 HD
HETATM   28  O2  UNL     1       3.929   7.048   7.339  1.00  0.00    -0.266 OA
ENDBRANCH   9  18
ENDBRANCH   7   9
ENDBRANCH   4   7
BRANCH   1  29
HETATM   29  N4  UNL     1       2.037  -1.424  14.896  1.00  0.00    -0.355 N 
ATOM     30  H4  UNL     1       1.444  -0.993  15.604  1.00  0.00     0.166 HD
BRANCH  29  31
HETATM   31  C11 UNL     1       2.277  -2.806  14.988  1.00  0.00     0.050 A 
HETATM   32  C10 UNL     1       1.512  -3.782  14.407  1.00  0.00     0.117 A 
HETATM   33  N3  UNL     1       1.773  -5.111  14.488  1.00  0.00    -0.362 N 
HETATM   34  C9  UNL     1       2.832  -5.568  15.167  1.00  0.00     0.060 A 
ATOM     35  H3  UNL     1       1.151  -5.773  14.023  1.00  0.00     0.165 HD
HETATM   36  C8  UNL     1       3.370  -6.808  15.438  1.00  0.00     0.049 A 
HETATM   37  C32 UNL     1       3.673  -4.552  15.804  1.00  0.00     0.063 A 
HETATM   38  C7  UNL     1       4.487  -6.566  16.206  1.00  0.00     0.094 A 
HETATM   39  N2  UNL     1       4.660  -5.248  16.417  1.00  0.00    -0.351 N 
HETATM   40  C31 UNL     1       3.403  -3.214  15.717  1.00  0.00     0.063 A 
BRANCH  39  41
HETATM   41  C6  UNL     1       5.739  -4.671  17.187  1.00  0.00     0.168 C 
BRANCH  41  42
HETATM   42  C5  UNL     1       6.986  -4.776  16.392  1.00  0.00    -0.024 A 
HETATM   43  C4  UNL     1       7.027  -4.186  15.136  1.00  0.00     0.011 A 
HETATM   44  C3  UNL     1       8.176  -4.265  14.371  1.00  0.00     0.018 A 
HETATM   45  C2  UNL     1       9.276  -4.931  14.864  1.00  0.00     0.090 A 
HETATM   46  N1  UNL     1       9.238  -5.501  16.078  1.00  0.00    -0.370 N 
HETATM   47  C1  UNL     1      10.427  -6.188  16.539  1.00  0.00     0.154 C 
HETATM   48  C33 UNL     1       8.103  -5.418  16.821  1.00  0.00     0.098 A 
ENDBRANCH  41  42
ENDBRANCH  39  41
ENDBRANCH  29  31
ENDBRANCH   1  29
TORSDOF 9
ENDMDL
