MODEL 1
REMARK VINA RESULT: -6.241670457      0.000      0.000
REMARK  3 active torsions:
REMARK  status: ('A' for Active; 'I' for Inactive)
REMARK    1  A    between atoms: N2_6  and  C4_7 
REMARK    2  A    between atoms: C4_7  and  N3_8 
REMARK    3  A    between atoms: C4_7  and  C5_12 
ROOT
HETATM    1  N1  UNL     1      33.183  -2.385  44.341  1.00  0.00    -0.193 NA
HETATM    2  C1  UNL     1      32.555  -2.806  43.461  1.00  0.00     0.112 C 
HETATM    3  C2  UNL     1      31.773  -3.335  42.328  1.00  0.00     0.277 C 
HETATM    4  F1  UNL     1      30.490  -2.768  42.381  1.00  0.00    -0.218 F 
HETATM    5  C3  UNL     1      32.409  -2.889  41.065  1.00  0.00     0.194 C 
HETATM    6  N2  UNL     1      32.742  -3.919  40.131  1.00  0.00    -0.316 N 
HETATM    7  C6  UNL     1      32.013  -5.128  40.136  1.00  0.00     0.191 C 
HETATM    8  N5  UNL     1      31.841  -5.936  38.976  1.00  0.00    -0.064 NA
HETATM    9  N6  UNL     1      31.483  -5.521  41.239  1.00  0.00    -0.311 N 
ATOM     10  H6  UNL     1      30.960  -6.396  41.233  1.00  0.00     0.166 HD
HETATM   11  C7  UNL     1      31.581  -4.805  42.484  1.00  0.00     0.328 C 
HETATM   12  N7  UNL     1      30.450  -5.160  43.291  1.00  0.00    -0.349 N 
ATOM     13  H7  UNL     1      29.528  -4.741  43.179  1.00  0.00     0.163 HD
HETATM   14  C8  UNL     1      30.711  -6.042  44.153  1.00  0.00     0.087 C 
HETATM   15  C9  UNL     1      32.141  -6.404  44.014  1.00  0.00     0.282 C 
HETATM   16  N8  UNL     1      32.725  -5.362  43.223  1.00  0.00    -0.021 N 
ATOM     17  H81 UNL     1      33.256  -4.675  43.758  1.00  0.00     0.282 HD
ATOM     18  H82 UNL     1      33.501  -5.664  42.634  1.00  0.00     0.282 HD
ENDROOT
BRANCH   6  19
HETATM   19  C4  UNL     1      33.803  -3.745  39.184  1.00  0.00     0.376 C 
BRANCH  19  20
HETATM   20  N3  UNL     1      33.316  -3.268  37.894  1.00  0.00    -0.050 N 
ATOM     21  H33 UNL     1      33.117  -4.045  37.264  1.00  0.00     0.277 HD
ATOM     22  H32 UNL     1      32.375  -2.881  37.974  1.00  0.00     0.277 HD
ATOM     23  H31 UNL     1      33.956  -2.599  37.466  1.00  0.00     0.277 HD
ENDBRANCH  19  20
BRANCH  19  24
HETATM   24  C5  UNL     1      34.859  -2.795  39.605  1.00  0.00     0.281 C 
HETATM   25  N4  UNL     1      35.173  -1.585  38.954  1.00  0.00    -0.059 NA
HETATM   26  O1  UNL     1      35.549  -3.074  40.631  1.00  0.00    -0.273 OA
ENDBRANCH  19  24
ENDBRANCH   6  19
TORSDOF 3
ENDMDL
MODEL 2
REMARK VINA RESULT: -6.155668330      6.082      7.849
REMARK  3 active torsions:
REMARK  status: ('A' for Active; 'I' for Inactive)
REMARK    1  A    between atoms: N2_6  and  C4_7 
REMARK    2  A    between atoms: C4_7  and  N3_8 
REMARK    3  A    between atoms: C4_7  and  C5_12 
ROOT
HETATM    1  N1  UNL     1      30.851  -0.140  40.833  1.00  0.00    -0.193 NA
HETATM    2  C1  UNL     1      31.380   0.757  41.345  1.00  0.00     0.112 C 
HETATM    3  C2  UNL     1      32.071   1.892  41.986  1.00  0.00     0.277 C 
HETATM    4  F1  UNL     1      31.888   1.785  43.374  1.00  0.00    -0.218 F 
HETATM    5  C3  UNL     1      33.524   1.775  41.715  1.00  0.00     0.194 C 
HETATM    6  N2  UNL     1      34.145   2.917  41.120  1.00  0.00    -0.316 N 
HETATM    7  C6  UNL     1      33.591   4.199  41.324  1.00  0.00     0.191 C 
HETATM    8  N5  UNL     1      34.368   5.393  41.302  1.00  0.00    -0.064 NA
HETATM    9  N6  UNL     1      32.328   4.295  41.536  1.00  0.00    -0.311 N 
ATOM     10  H6  UNL     1      31.937   5.227  41.682  1.00  0.00     0.166 HD
HETATM   11  C7  UNL     1      31.427   3.173  41.582  1.00  0.00     0.328 C 
HETATM   12  N7  UNL     1      30.302   3.539  42.393  1.00  0.00    -0.349 N 
ATOM     13  H7  UNL     1      30.313   3.510  43.412  1.00  0.00     0.163 HD
HETATM   14  C8  UNL     1      29.300   3.900  41.720  1.00  0.00     0.087 C 
HETATM   15  C9  UNL     1      29.660   3.814  40.286  1.00  0.00     0.282 C 
HETATM   16  N8  UNL     1      30.850   3.018  40.238  1.00  0.00    -0.021 N 
ATOM     17  H81 UNL     1      30.699   2.050  39.954  1.00  0.00     0.282 HD
ATOM     18  H82 UNL     1      31.486   3.255  39.476  1.00  0.00     0.282 HD
ENDROOT
BRANCH   6  19
HETATM   19  C4  UNL     1      35.325   2.783  40.318  1.00  0.00     0.376 C 
BRANCH  19  20
HETATM   20  N3  UNL     1      35.308   3.673  39.162  1.00  0.00    -0.050 N 
ATOM     21  H33 UNL     1      35.429   4.646  39.443  1.00  0.00     0.277 HD
ATOM     22  H32 UNL     1      36.150   3.563  38.597  1.00  0.00     0.277 HD
ATOM     23  H31 UNL     1      34.466   3.553  38.599  1.00  0.00     0.277 HD
ENDBRANCH  19  20
BRANCH  19  24
HETATM   24  C5  UNL     1      36.594   3.057  41.032  1.00  0.00     0.281 C 
HETATM   25  N4  UNL     1      37.026   2.405  42.204  1.00  0.00    -0.059 NA
HETATM   26  O1  UNL     1      37.369   3.946  40.568  1.00  0.00    -0.273 OA
ENDBRANCH  19  24
ENDBRANCH   6  19
TORSDOF 3
ENDMDL
MODEL 3
REMARK VINA RESULT: -6.043700938      3.205      5.126
REMARK  3 active torsions:
REMARK  status: ('A' for Active; 'I' for Inactive)
REMARK    1  A    between atoms: N2_6  and  C4_7 
REMARK    2  A    between atoms: C4_7  and  N3_8 
REMARK    3  A    between atoms: C4_7  and  C5_12 
ROOT
HETATM    1  N1  UNL     1      32.135   0.071  43.025  1.00  0.00    -0.193 NA
HETATM    2  C1  UNL     1      32.993  -0.518  42.513  1.00  0.00     0.112 C 
HETATM    3  C2  UNL     1      34.069  -1.281  41.852  1.00  0.00     0.277 C 
HETATM    4  F1  UNL     1      35.007  -1.648  42.831  1.00  0.00    -0.218 F 
HETATM    5  C3  UNL     1      33.492  -2.527  41.294  1.00  0.00     0.194 C 
HETATM    6  N2  UNL     1      33.722  -2.758  39.902  1.00  0.00    -0.316 N 
HETATM    7  C6  UNL     1      34.857  -2.194  39.279  1.00  0.00     0.191 C 
HETATM    8  N5  UNL     1      35.492  -2.779  38.146  1.00  0.00    -0.064 NA
HETATM    9  N6  UNL     1      35.340  -1.102  39.755  1.00  0.00    -0.311 N 
ATOM     10  H6  UNL     1      36.160  -0.703  39.297  1.00  0.00     0.166 HD
HETATM   11  C7  UNL     1      34.797  -0.405  40.891  1.00  0.00     0.328 C 
HETATM   12  N7  UNL     1      35.853   0.360  41.488  1.00  0.00    -0.349 N 
ATOM     13  H7  UNL     1      36.544  -0.037  42.124  1.00  0.00     0.163 HD
HETATM   14  C8  UNL     1      35.841   1.574  41.149  1.00  0.00     0.087 C 
HETATM   15  C9  UNL     1      34.702   1.776  40.223  1.00  0.00     0.282 C 
HETATM   16  N8  UNL     1      33.873   0.618  40.379  1.00  0.00    -0.021 N 
ATOM     17  H81 UNL     1      33.046   0.766  40.958  1.00  0.00     0.282 HD
ATOM     18  H82 UNL     1      33.367   0.345  39.536  1.00  0.00     0.282 HD
ENDROOT
BRANCH   6  19
HETATM   19  C4  UNL     1      32.820  -3.554  39.124  1.00  0.00     0.376 C 
BRANCH  19  20
HETATM   20  N3  UNL     1      32.866  -3.210  37.707  1.00  0.00    -0.050 N 
ATOM     21  H33 UNL     1      32.097  -3.643  37.197  1.00  0.00     0.277 HD
ATOM     22  H32 UNL     1      32.627  -2.229  37.556  1.00  0.00     0.277 HD
ATOM     23  H31 UNL     1      33.766  -3.440  37.285  1.00  0.00     0.277 HD
ENDBRANCH  19  20
BRANCH  19  24
HETATM   24  C5  UNL     1      33.056  -5.014  39.204  1.00  0.00     0.281 C 
HETATM   25  N4  UNL     1      34.275  -5.624  39.561  1.00  0.00    -0.059 NA
HETATM   26  O1  UNL     1      32.096  -5.797  38.932  1.00  0.00    -0.273 OA
ENDBRANCH  19  24
ENDBRANCH   6  19
TORSDOF 3
ENDMDL
MODEL 4
REMARK VINA RESULT: -6.028880838      3.220      4.815
REMARK  3 active torsions:
REMARK  status: ('A' for Active; 'I' for Inactive)
REMARK    1  A    between atoms: N2_6  and  C4_7 
REMARK    2  A    between atoms: C4_7  and  N3_8 
REMARK    3  A    between atoms: C4_7  and  C5_12 
ROOT
HETATM    1  N1  UNL     1      34.773  -3.459  44.687  1.00  0.00    -0.193 NA
HETATM    2  C1  UNL     1      35.067  -3.683  43.588  1.00  0.00     0.112 C 
HETATM    3  C2  UNL     1      35.422  -3.963  42.184  1.00  0.00     0.277 C 
HETATM    4  F1  UNL     1      35.968  -5.255  42.121  1.00  0.00    -0.218 F 
HETATM    5  C3  UNL     1      34.180  -3.962  41.373  1.00  0.00     0.194 C 
HETATM    6  N2  UNL     1      34.170  -3.089  40.240  1.00  0.00    -0.316 N 
HETATM    7  C6  UNL     1      35.388  -2.736  39.621  1.00  0.00     0.191 C 
HETATM    8  N5  UNL     1      35.487  -2.396  38.241  1.00  0.00    -0.064 NA
HETATM    9  N6  UNL     1      36.457  -2.718  40.334  1.00  0.00    -0.311 N 
ATOM     10  H6  UNL     1      37.332  -2.461  39.876  1.00  0.00     0.166 HD
HETATM   11  C7  UNL     1      36.500  -3.037  41.736  1.00  0.00     0.328 C 
HETATM   12  N7  UNL     1      37.823  -3.493  42.049  1.00  0.00    -0.349 N 
ATOM     13  H7  UNL     1      38.145  -4.444  41.873  1.00  0.00     0.163 HD
HETATM   14  C8  UNL     1      38.549  -2.600  42.562  1.00  0.00     0.087 C 
HETATM   15  C9  UNL     1      37.744  -1.360  42.659  1.00  0.00     0.282 C 
HETATM   16  N8  UNL     1      36.384  -1.772  42.478  1.00  0.00    -0.021 N 
ATOM     17  H81 UNL     1      35.845  -1.838  43.342  1.00  0.00     0.282 HD
ATOM     18  H82 UNL     1      35.788  -1.074  42.032  1.00  0.00     0.282 HD
ENDROOT
BRANCH   6  19
HETATM   19  C4  UNL     1      32.942  -2.567  39.720  1.00  0.00     0.376 C 
BRANCH  19  20
HETATM   20  N3  UNL     1      33.091  -1.201  39.228  1.00  0.00    -0.050 N 
ATOM     21  H33 UNL     1      34.039  -0.855  39.381  1.00  0.00     0.277 HD
ATOM     22  H32 UNL     1      33.071  -1.170  38.209  1.00  0.00     0.277 HD
ATOM     23  H31 UNL     1      32.398  -0.570  39.632  1.00  0.00     0.277 HD
ENDBRANCH  19  20
BRANCH  19  24
HETATM   24  C5  UNL     1      32.359  -3.347  38.604  1.00  0.00     0.281 C 
HETATM   25  N4  UNL     1      31.952  -2.815  37.364  1.00  0.00    -0.059 NA
HETATM   26  O1  UNL     1      32.205  -4.596  38.755  1.00  0.00    -0.273 OA
ENDBRANCH  19  24
ENDBRANCH   6  19
TORSDOF 3
ENDMDL
MODEL 5
REMARK VINA RESULT: -5.996116389      2.302      4.243
REMARK  3 active torsions:
REMARK  status: ('A' for Active; 'I' for Inactive)
REMARK    1  A    between atoms: N2_6  and  C4_7 
REMARK    2  A    between atoms: C4_7  and  N3_8 
REMARK    3  A    between atoms: C4_7  and  C5_12 
ROOT
HETATM    1  N1  UNL     1      30.279  -3.119  43.089  1.00  0.00    -0.193 NA
HETATM    2  C1  UNL     1      31.346  -2.822  42.745  1.00  0.00     0.112 C 
HETATM    3  C2  UNL     1      32.704  -2.460  42.294  1.00  0.00     0.277 C 
HETATM    4  F1  UNL     1      33.525  -2.352  43.427  1.00  0.00    -0.218 F 
HETATM    5  C3  UNL     1      33.234  -3.565  41.459  1.00  0.00     0.194 C 
HETATM    6  N2  UNL     1      33.694  -3.202  40.155  1.00  0.00    -0.316 N 
HETATM    7  C6  UNL     1      34.152  -1.887  39.917  1.00  0.00     0.191 C 
HETATM    8  N5  UNL     1      35.120  -1.571  38.921  1.00  0.00    -0.064 NA
HETATM    9  N6  UNL     1      33.672  -0.932  40.629  1.00  0.00    -0.311 N 
ATOM     10  H6  UNL     1      34.008   0.014  40.448  1.00  0.00     0.166 HD
HETATM   11  C7  UNL     1      32.689  -1.110  41.665  1.00  0.00     0.328 C 
HETATM   12  N7  UNL     1      32.829  -0.032  42.601  1.00  0.00    -0.349 N 
ATOM     13  H7  UNL     1      33.532  -0.018  43.338  1.00  0.00     0.163 HD
HETATM   14  C8  UNL     1      31.995   0.896  42.420  1.00  0.00     0.087 C 
HETATM   15  C9  UNL     1      31.144   0.525  41.265  1.00  0.00     0.282 C 
HETATM   16  N8  UNL     1      31.367  -0.876  41.062  1.00  0.00    -0.021 N 
ATOM     17  H81 UNL     1      30.626  -1.477  41.423  1.00  0.00     0.282 HD
ATOM     18  H82 UNL     1      31.287  -1.179  40.091  1.00  0.00     0.282 HD
ENDROOT
BRANCH   6  19
HETATM   19  C4  UNL     1      33.700  -4.151  39.082  1.00  0.00     0.376 C 
BRANCH  19  20
HETATM   20  N3  UNL     1      35.055  -4.481  38.649  1.00  0.00    -0.050 N 
ATOM     21  H33 UNL     1      35.723  -4.372  39.412  1.00  0.00     0.277 HD
ATOM     22  H32 UNL     1      35.157  -5.483  38.487  1.00  0.00     0.277 HD
ATOM     23  H31 UNL     1      35.337  -3.943  37.830  1.00  0.00     0.277 HD
ENDBRANCH  19  20
BRANCH  19  24
HETATM   24  C5  UNL     1      33.038  -5.440  39.390  1.00  0.00     0.281 C 
HETATM   25  N4  UNL     1      31.701  -5.762  39.085  1.00  0.00    -0.059 NA
HETATM   26  O1  UNL     1      33.712  -6.341  39.975  1.00  0.00    -0.273 OA
ENDBRANCH  19  24
ENDBRANCH   6  19
TORSDOF 3
ENDMDL
