MODEL 1
REMARK VINA RESULT: -7.087156157      0.000      0.000
REMARK  18 active torsions:
REMARK  status: ('A' for Active; 'I' for Inactive)
REMARK    1  A    between atoms: C2_3  and  C3_4 
REMARK    2  A    between atoms: C3_4  and  O1_5 
REMARK    3  A    between atoms: C3_4  and  O2_7 
REMARK    4  A    between atoms: C7_12  and  N2_13 
REMARK    5  A    between atoms: N2_13  and  N3_15 
REMARK    6  A    between atoms: N3_15  and  C8_17 
REMARK    7  A    between atoms: C8_17  and  C9_18 
REMARK    8  A    between atoms: C9_18  and  O3_19 
REMARK    9  A    between atoms: C9_18  and  C10_21 
REMARK   10  A    between atoms: C11_23  and  C12_24 
REMARK   11  A    between atoms: C12_24  and  O5_25 
REMARK   12  A    between atoms: C12_24  and  O6_27 
REMARK   13  A    between atoms: C15_32  and  C16_33 
REMARK   14  A    between atoms: N4_34  and  O8_36 
REMARK   15  A    between atoms: C17_38  and  O9_39 
REMARK   16  A    between atoms: C18_41  and  O10_43 
REMARK   17  A    between atoms: C20_45  and  C21_46 
REMARK   18  A    between atoms: C21_46  and  O11_47 
ROOT
HETATM    1  N2  UNL     1      28.817  27.850 -40.906  1.00  0.00    -0.289 N 
ATOM      2  H2  UNL     1      29.448  27.169 -40.483  1.00  0.00     0.188 HD
ENDROOT
BRANCH   1   3
HETATM    3  C7  UNL     1      29.086  27.900 -42.100  1.00  0.00     0.133 A 
HETATM    4  N1  UNL     1      29.579  29.099 -42.566  1.00  0.00    -0.335 N 
HETATM    5  C1  UNL     1      29.741  30.177 -41.633  1.00  0.00     0.158 C 
HETATM    6  C2  UNL     1      29.911  29.298 -43.851  1.00  0.00     0.070 A 
HETATM    7  C4  UNL     1      29.762  28.278 -44.760  1.00  0.00     0.068 A 
HETATM    8  C5  UNL     1      29.276  27.053 -44.366  1.00  0.00     0.084 A 
HETATM    9  C6  UNL     1      28.940  26.879 -43.018  1.00  0.00     0.052 A 
HETATM   10  O12 UNL     1      29.127  26.028 -45.287  1.00  0.00    -0.340 OA
HETATM   11  C17 UNL     1      28.412  25.580 -42.536  1.00  0.00     0.194 C 
HETATM   12  C18 UNL     1      28.679  24.438 -43.523  1.00  0.00     0.113 C 
HETATM   13  C19 UNL     1      30.085  23.981 -43.309  1.00  0.00     0.052 C 
HETATM   14  C20 UNL     1      28.401  24.894 -44.939  1.00  0.00     0.189 C 
BRANCH   6  15
HETATM   15  C3  UNL     1      30.438  30.594 -44.346  1.00  0.00     0.305 C 
BRANCH  15  16
HETATM   16  O1  UNL     1      31.356  30.429 -45.378  1.00  0.00    -0.366 OA
ATOM     17  H1  UNL     1      32.139  30.951 -45.249  1.00  0.00     0.213 HD
ENDBRANCH  15  16
BRANCH  15  18
HETATM   18  O2  UNL     1      29.371  31.303 -44.892  1.00  0.00    -0.366 OA
ATOM     19  H2  UNL     1      29.331  32.145 -44.453  1.00  0.00     0.213 HD
ENDBRANCH  15  18
ENDBRANCH   6  15
BRANCH  11  20
HETATM   20  O9  UNL     1      27.005  25.711 -42.468  1.00  0.00    -0.388 OA
ATOM     21  H9  UNL     1      26.639  25.028 -43.018  1.00  0.00     0.210 HD
ENDBRANCH  11  20
BRANCH  12  22
HETATM   22  O10 UNL     1      27.781  23.416 -43.231  1.00  0.00    -0.385 OA
ATOM     23  H10 UNL     1      26.993  23.818 -42.888  1.00  0.00     0.210 HD
ENDBRANCH  12  22
BRANCH  14  24
HETATM   24  C21 UNL     1      28.626  23.761 -45.882  1.00  0.00     0.199 C 
BRANCH  24  25
HETATM   25  O11 UNL     1      28.528  24.197 -47.208  1.00  0.00    -0.398 OA
ATOM     26  H11 UNL     1      29.379  24.173 -47.632  1.00  0.00     0.209 HD
ENDBRANCH  24  25
ENDBRANCH  14  24
ENDBRANCH   1   3
BRANCH   1  27
HETATM   27  N3  UNL     1      28.043  28.317 -39.941  1.00  0.00    -0.332 N 
ATOM     28  H3  UNL     1      28.409  28.436 -38.996  1.00  0.00     0.180 HD
BRANCH  27  29
HETATM   29  C8  UNL     1      26.645  28.664 -40.247  1.00  0.00     0.177 C 
BRANCH  29  30
HETATM   30  C9  UNL     1      25.763  27.627 -39.544  1.00  0.00     0.195 C 
BRANCH  30  31
HETATM   31  O3  UNL     1      26.260  26.386 -39.949  1.00  0.00    -0.387 OA
ATOM     32  H3  UNL     1      25.509  25.914 -40.288  1.00  0.00     0.210 HD
ENDBRANCH  30  31
BRANCH  30  33
HETATM   33  C10 UNL     1      25.905  27.752 -38.071  1.00  0.00     0.099 A 
HETATM   34  O4  UNL     1      26.994  27.321 -37.527  1.00  0.00    -0.310 OA
HETATM   35  C11 UNL     1      27.231  27.375 -36.246  1.00  0.00     0.111 A 
HETATM   36  C13 UNL     1      26.304  27.910 -35.406  1.00  0.00     0.093 A 
HETATM   37  C14 UNL     1      25.104  28.396 -35.923  1.00  0.00     0.188 A 
HETATM   38  O7  UNL     1      24.264  28.880 -35.150  1.00  0.00    -0.287 OA
HETATM   39  C15 UNL     1      24.901  28.315 -37.279  1.00  0.00     0.064 A 
BRANCH  35  40
HETATM   40  C12 UNL     1      28.541  26.837 -35.745  1.00  0.00     0.312 C 
BRANCH  40  41
HETATM   41  O5  UNL     1      28.821  25.656 -36.390  1.00  0.00    -0.365 OA
ATOM     42  H5  UNL     1      29.613  25.281 -36.023  1.00  0.00     0.213 HD
ENDBRANCH  40  41
BRANCH  40  43
HETATM   43  O6  UNL     1      28.374  26.674 -34.363  1.00  0.00    -0.365 OA
ATOM     44  H6  UNL     1      28.634  25.779 -34.181  1.00  0.00     0.213 HD
ENDBRANCH  40  43
ENDBRANCH  35  40
BRANCH  39  45
HETATM   45  C16 UNL     1      23.689  28.798 -37.941  1.00  0.00     0.132 C 
HETATM   46  N4  UNL     1      22.577  29.032 -37.479  1.00  0.00    -0.279 N 
ATOM     47  H4  UNL     1      22.010  29.351 -38.265  1.00  0.00     0.193 HD
BRANCH  46  48
HETATM   48  O8  UNL     1      21.802  29.057 -36.455  1.00  0.00    -0.290 OA
ATOM     49  H8  UNL     1      20.964  28.831 -36.070  1.00  0.00     0.244 HD
ENDBRANCH  46  48
ENDBRANCH  39  45
ENDBRANCH  30  33
ENDBRANCH  29  30
ENDBRANCH  27  29
ENDBRANCH   1  27
TORSDOF 18
ENDMDL
MODEL 2
REMARK VINA RESULT: -6.764553980      2.110      2.735
REMARK  18 active torsions:
REMARK  status: ('A' for Active; 'I' for Inactive)
REMARK    1  A    between atoms: C2_3  and  C3_4 
REMARK    2  A    between atoms: C3_4  and  O1_5 
REMARK    3  A    between atoms: C3_4  and  O2_7 
REMARK    4  A    between atoms: C7_12  and  N2_13 
REMARK    5  A    between atoms: N2_13  and  N3_15 
REMARK    6  A    between atoms: N3_15  and  C8_17 
REMARK    7  A    between atoms: C8_17  and  C9_18 
REMARK    8  A    between atoms: C9_18  and  O3_19 
REMARK    9  A    between atoms: C9_18  and  C10_21 
REMARK   10  A    between atoms: C11_23  and  C12_24 
REMARK   11  A    between atoms: C12_24  and  O5_25 
REMARK   12  A    between atoms: C12_24  and  O6_27 
REMARK   13  A    between atoms: C15_32  and  C16_33 
REMARK   14  A    between atoms: N4_34  and  O8_36 
REMARK   15  A    between atoms: C17_38  and  O9_39 
REMARK   16  A    between atoms: C18_41  and  O10_43 
REMARK   17  A    between atoms: C20_45  and  C21_46 
REMARK   18  A    between atoms: C21_46  and  O11_47 
ROOT
HETATM    1  N2  UNL     1      29.063  28.116 -40.967  1.00  0.00    -0.289 N 
ATOM      2  H2  UNL     1      29.035  28.853 -41.673  1.00  0.00     0.188 HD
ENDROOT
BRANCH   1   3
HETATM    3  C7  UNL     1      29.921  27.314 -41.315  1.00  0.00     0.133 A 
HETATM    4  N1  UNL     1      31.118  27.365 -40.636  1.00  0.00    -0.335 N 
HETATM    5  C1  UNL     1      31.266  28.336 -39.588  1.00  0.00     0.158 C 
HETATM    6  C2  UNL     1      32.147  26.550 -40.913  1.00  0.00     0.070 A 
HETATM    7  C4  UNL     1      32.025  25.615 -41.914  1.00  0.00     0.068 A 
HETATM    8  C5  UNL     1      30.858  25.506 -42.634  1.00  0.00     0.084 A 
HETATM    9  C6  UNL     1      29.805  26.372 -42.317  1.00  0.00     0.052 A 
HETATM   10  O12 UNL     1      30.742  24.562 -43.642  1.00  0.00    -0.340 OA
HETATM   11  C17 UNL     1      28.524  26.299 -43.059  1.00  0.00     0.194 C 
HETATM   12  C18 UNL     1      28.370  24.986 -43.836  1.00  0.00     0.113 C 
HETATM   13  C19 UNL     1      27.905  23.947 -42.869  1.00  0.00     0.052 C 
HETATM   14  C20 UNL     1      29.670  24.632 -44.526  1.00  0.00     0.189 C 
BRANCH   6  15
HETATM   15  C3  UNL     1      33.435  26.614 -40.180  1.00  0.00     0.305 C 
BRANCH  15  16
HETATM   16  O1  UNL     1      33.544  25.615 -39.219  1.00  0.00    -0.366 OA
ATOM     17  H1  UNL     1      34.024  25.905 -38.451  1.00  0.00     0.213 HD
ENDBRANCH  15  16
BRANCH  15  18
HETATM   18  O2  UNL     1      34.456  26.377 -41.097  1.00  0.00    -0.366 OA
ATOM     19  H2  UNL     1      35.165  26.978 -40.901  1.00  0.00     0.213 HD
ENDBRANCH  15  18
ENDBRANCH   6  15
BRANCH  11  20
HETATM   20  O9  UNL     1      28.558  27.323 -44.035  1.00  0.00    -0.388 OA
ATOM     21  H9  UNL     1      28.441  26.902 -44.879  1.00  0.00     0.210 HD
ENDBRANCH  11  20
BRANCH  12  22
HETATM   22  O10 UNL     1      27.418  25.196 -44.827  1.00  0.00    -0.385 OA
ATOM     23  H10 UNL     1      27.228  24.354 -45.224  1.00  0.00     0.210 HD
ENDBRANCH  12  22
BRANCH  14  24
HETATM   24  C21 UNL     1      29.494  23.375 -45.309  1.00  0.00     0.199 C 
BRANCH  24  25
HETATM   25  O11 UNL     1      29.045  23.660 -46.604  1.00  0.00    -0.398 OA
ATOM     26  H11 UNL     1      28.809  24.577 -46.682  1.00  0.00     0.209 HD
ENDBRANCH  24  25
ENDBRANCH  14  24
ENDBRANCH   1   3
BRANCH   1  27
HETATM   27  N3  UNL     1      28.158  28.418 -40.050  1.00  0.00    -0.332 N 
ATOM     28  H3  UNL     1      28.419  28.474 -39.066  1.00  0.00     0.180 HD
BRANCH  27  29
HETATM   29  C8  UNL     1      26.770  28.672 -40.469  1.00  0.00     0.177 C 
BRANCH  29  30
HETATM   30  C9  UNL     1      25.902  27.591 -39.815  1.00  0.00     0.195 C 
BRANCH  30  31
HETATM   31  O3  UNL     1      26.457  26.377 -40.226  1.00  0.00    -0.387 OA
ATOM     32  H3  UNL     1      26.802  25.980 -39.434  1.00  0.00     0.210 HD
ENDBRANCH  30  31
BRANCH  30  33
HETATM   33  C10 UNL     1      25.989  27.693 -38.337  1.00  0.00     0.099 A 
HETATM   34  O4  UNL     1      27.042  27.223 -37.756  1.00  0.00    -0.310 OA
HETATM   35  C11 UNL     1      27.229  27.253 -36.467  1.00  0.00     0.111 A 
HETATM   36  C13 UNL     1      26.286  27.805 -35.656  1.00  0.00     0.093 A 
HETATM   37  C14 UNL     1      25.122  28.333 -36.213  1.00  0.00     0.188 A 
HETATM   38  O7  UNL     1      24.267  28.833 -35.467  1.00  0.00    -0.287 OA
HETATM   39  C15 UNL     1      24.971  28.276 -37.578  1.00  0.00     0.064 A 
BRANCH  35  40
HETATM   40  C12 UNL     1      28.502  26.670 -35.922  1.00  0.00     0.312 C 
BRANCH  40  41
HETATM   41  O5  UNL     1      28.667  25.400 -36.421  1.00  0.00    -0.365 OA
ATOM     42  H5  UNL     1      29.470  25.365 -36.927  1.00  0.00     0.213 HD
ENDBRANCH  40  41
BRANCH  40  43
HETATM   43  O6  UNL     1      28.355  26.690 -34.528  1.00  0.00    -0.365 OA
ATOM     44  H6  UNL     1      27.467  26.987 -34.371  1.00  0.00     0.213 HD
ENDBRANCH  40  43
ENDBRANCH  35  40
BRANCH  39  45
HETATM   45  C16 UNL     1      23.801  28.804 -38.280  1.00  0.00     0.132 C 
HETATM   46  N4  UNL     1      22.667  29.025 -37.868  1.00  0.00    -0.279 N 
ATOM     47  H4  UNL     1      22.147  29.389 -38.667  1.00  0.00     0.193 HD
BRANCH  46  48
HETATM   48  O8  UNL     1      21.836  29.007 -36.888  1.00  0.00    -0.290 OA
ATOM     49  H8  UNL     1      21.430  28.520 -36.182  1.00  0.00     0.244 HD
ENDBRANCH  46  48
ENDBRANCH  39  45
ENDBRANCH  30  33
ENDBRANCH  29  30
ENDBRANCH  27  29
ENDBRANCH   1  27
TORSDOF 18
ENDMDL
MODEL 3
REMARK VINA RESULT: -6.745055905      4.676      7.697
REMARK  18 active torsions:
REMARK  status: ('A' for Active; 'I' for Inactive)
REMARK    1  A    between atoms: C2_3  and  C3_4 
REMARK    2  A    between atoms: C3_4  and  O1_5 
REMARK    3  A    between atoms: C3_4  and  O2_7 
REMARK    4  A    between atoms: C7_12  and  N2_13 
REMARK    5  A    between atoms: N2_13  and  N3_15 
REMARK    6  A    between atoms: N3_15  and  C8_17 
REMARK    7  A    between atoms: C8_17  and  C9_18 
REMARK    8  A    between atoms: C9_18  and  O3_19 
REMARK    9  A    between atoms: C9_18  and  C10_21 
REMARK   10  A    between atoms: C11_23  and  C12_24 
REMARK   11  A    between atoms: C12_24  and  O5_25 
REMARK   12  A    between atoms: C12_24  and  O6_27 
REMARK   13  A    between atoms: C15_32  and  C16_33 
REMARK   14  A    between atoms: N4_34  and  O8_36 
REMARK   15  A    between atoms: C17_38  and  O9_39 
REMARK   16  A    between atoms: C18_41  and  O10_43 
REMARK   17  A    between atoms: C20_45  and  C21_46 
REMARK   18  A    between atoms: C21_46  and  O11_47 
ROOT
HETATM    1  N2  UNL     1      30.383  25.945 -47.319  1.00  0.00    -0.289 N 
ATOM      2  H2  UNL     1      30.728  26.137 -46.378  1.00  0.00     0.188 HD
ENDROOT
BRANCH   1   3
HETATM    3  C7  UNL     1      30.650  26.921 -48.009  1.00  0.00     0.133 A 
HETATM    4  N1  UNL     1      30.845  28.109 -47.340  1.00  0.00    -0.335 N 
HETATM    5  C1  UNL     1      30.729  28.111 -45.909  1.00  0.00     0.158 C 
HETATM    6  C2  UNL     1      31.139  29.258 -47.968  1.00  0.00     0.070 A 
HETATM    7  C4  UNL     1      31.254  29.276 -49.337  1.00  0.00     0.068 A 
HETATM    8  C5  UNL     1      31.071  28.127 -50.072  1.00  0.00     0.084 A 
HETATM    9  C6  UNL     1      30.767  26.946 -49.384  1.00  0.00     0.052 A 
HETATM   10  O12 UNL     1      31.188  28.152 -51.452  1.00  0.00    -0.340 OA
HETATM   11  C17 UNL     1      30.562  25.678 -50.124  1.00  0.00     0.194 C 
HETATM   12  C18 UNL     1      31.111  25.738 -51.554  1.00  0.00     0.113 C 
HETATM   13  C19 UNL     1      32.582  25.492 -51.479  1.00  0.00     0.052 C 
HETATM   14  C20 UNL     1      30.751  27.061 -52.196  1.00  0.00     0.189 C 
BRANCH   6  15
HETATM   15  C3  UNL     1      31.345  30.534 -47.240  1.00  0.00     0.305 C 
BRANCH  15  16
HETATM   16  O1  UNL     1      32.367  31.298 -47.794  1.00  0.00    -0.366 OA
ATOM     17  H1  UNL     1      33.013  30.764 -48.242  1.00  0.00     0.213 HD
ENDBRANCH  15  16
BRANCH  15  18
HETATM   18  O2  UNL     1      30.184  31.291 -47.375  1.00  0.00    -0.366 OA
ATOM     19  H2  UNL     1      30.144  31.891 -46.640  1.00  0.00     0.213 HD
ENDBRANCH  15  18
ENDBRANCH   6  15
BRANCH  11  20
HETATM   20  O9  UNL     1      29.163  25.504 -50.254  1.00  0.00    -0.388 OA
ATOM     21  H9  UNL     1      28.981  24.593 -50.058  1.00  0.00     0.210 HD
ENDBRANCH  11  20
BRANCH  12  22
HETATM   22  O10 UNL     1      30.481  24.737 -52.286  1.00  0.00    -0.385 OA
ATOM     23  H10 UNL     1      29.686  25.106 -52.650  1.00  0.00     0.210 HD
ENDBRANCH  12  22
BRANCH  14  24
HETATM   24  C21 UNL     1      31.257  27.088 -53.599  1.00  0.00     0.199 C 
BRANCH  24  25
HETATM   25  O11 UNL     1      31.987  28.258 -53.837  1.00  0.00    -0.398 OA
ATOM     26  H11 UNL     1      31.468  28.881 -54.334  1.00  0.00     0.209 HD
ENDBRANCH  24  25
ENDBRANCH  14  24
ENDBRANCH   1   3
BRANCH   1  27
HETATM   27  N3  UNL     1      29.830  24.743 -47.295  1.00  0.00    -0.332 N 
ATOM     28  H3  UNL     1      30.321  23.941 -47.690  1.00  0.00     0.180 HD
BRANCH  27  29
HETATM   29  C8  UNL     1      28.498  24.578 -46.692  1.00  0.00     0.177 C 
BRANCH  29  30
HETATM   30  C9  UNL     1      28.696  23.829 -45.370  1.00  0.00     0.195 C 
BRANCH  30  31
HETATM   31  O3  UNL     1      29.250  22.597 -45.724  1.00  0.00    -0.387 OA
ATOM     32  H3  UNL     1      29.459  22.172 -44.901  1.00  0.00     0.210 HD
ENDBRANCH  30  31
BRANCH  30  33
HETATM   33  C10 UNL     1      29.652  24.565 -44.506  1.00  0.00     0.099 A 
HETATM   34  O4  UNL     1      30.914  24.352 -44.678  1.00  0.00    -0.310 OA
HETATM   35  C11 UNL     1      31.847  24.936 -43.979  1.00  0.00     0.111 A 
HETATM   36  C13 UNL     1      31.510  25.827 -43.008  1.00  0.00     0.093 A 
HETATM   37  C14 UNL     1      30.167  26.108 -42.765  1.00  0.00     0.188 A 
HETATM   38  O7  UNL     1      29.869  26.920 -41.877  1.00  0.00    -0.287 OA
HETATM   39  C15 UNL     1      29.221  25.465 -43.528  1.00  0.00     0.064 A 
BRANCH  35  40
HETATM   40  C12 UNL     1      33.278  24.596 -44.284  1.00  0.00     0.312 C 
BRANCH  40  41
HETATM   41  O5  UNL     1      33.421  24.418 -45.639  1.00  0.00    -0.365 OA
ATOM     42  H5  UNL     1      34.345  24.330 -45.847  1.00  0.00     0.213 HD
ENDBRANCH  40  41
BRANCH  40  43
HETATM   43  O6  UNL     1      33.549  23.432 -43.553  1.00  0.00    -0.365 OA
ATOM     44  H6  UNL     1      34.132  23.702 -42.853  1.00  0.00     0.213 HD
ENDBRANCH  40  43
ENDBRANCH  35  40
BRANCH  39  45
HETATM   45  C16 UNL     1      27.783  25.682 -43.375  1.00  0.00     0.132 C 
HETATM   46  N4  UNL     1      27.127  25.958 -42.375  1.00  0.00    -0.279 N 
ATOM     47  H4  UNL     1      26.158  26.025 -42.687  1.00  0.00     0.193 HD
BRANCH  46  48
HETATM   48  O8  UNL     1      27.107  26.203 -41.115  1.00  0.00    -0.290 OA
ATOM     49  H8  UNL     1      26.768  25.985 -40.254  1.00  0.00     0.244 HD
ENDBRANCH  46  48
ENDBRANCH  39  45
ENDBRANCH  30  33
ENDBRANCH  29  30
ENDBRANCH  27  29
ENDBRANCH   1  27
TORSDOF 18
ENDMDL
MODEL 4
REMARK VINA RESULT: -6.656956619      2.906      4.291
REMARK  18 active torsions:
REMARK  status: ('A' for Active; 'I' for Inactive)
REMARK    1  A    between atoms: C2_3  and  C3_4 
REMARK    2  A    between atoms: C3_4  and  O1_5 
REMARK    3  A    between atoms: C3_4  and  O2_7 
REMARK    4  A    between atoms: C7_12  and  N2_13 
REMARK    5  A    between atoms: N2_13  and  N3_15 
REMARK    6  A    between atoms: N3_15  and  C8_17 
REMARK    7  A    between atoms: C8_17  and  C9_18 
REMARK    8  A    between atoms: C9_18  and  O3_19 
REMARK    9  A    between atoms: C9_18  and  C10_21 
REMARK   10  A    between atoms: C11_23  and  C12_24 
REMARK   11  A    between atoms: C12_24  and  O5_25 
REMARK   12  A    between atoms: C12_24  and  O6_27 
REMARK   13  A    between atoms: C15_32  and  C16_33 
REMARK   14  A    between atoms: N4_34  and  O8_36 
REMARK   15  A    between atoms: C17_38  and  O9_39 
REMARK   16  A    between atoms: C18_41  and  O10_43 
REMARK   17  A    between atoms: C20_45  and  C21_46 
REMARK   18  A    between atoms: C21_46  and  O11_47 
ROOT
HETATM    1  N2  UNL     1      29.327  26.939 -42.443  1.00  0.00    -0.289 N 
ATOM      2  H2  UNL     1      29.244  27.705 -43.111  1.00  0.00     0.188 HD
ENDROOT
BRANCH   1   3
HETATM    3  C7  UNL     1      29.861  26.004 -43.028  1.00  0.00     0.133 A 
HETATM    4  N1  UNL     1      29.106  25.376 -43.994  1.00  0.00    -0.335 N 
HETATM    5  C1  UNL     1      27.777  25.858 -44.240  1.00  0.00     0.158 C 
HETATM    6  C2  UNL     1      29.562  24.336 -44.710  1.00  0.00     0.070 A 
HETATM    7  C4  UNL     1      30.831  23.859 -44.487  1.00  0.00     0.068 A 
HETATM    8  C5  UNL     1      31.642  24.438 -43.538  1.00  0.00     0.084 A 
HETATM    9  C6  UNL     1      31.135  25.521 -42.810  1.00  0.00     0.052 A 
HETATM   10  O12 UNL     1      32.921  23.952 -43.318  1.00  0.00    -0.340 OA
HETATM   11  C17 UNL     1      31.965  26.184 -41.776  1.00  0.00     0.194 C 
HETATM   12  C18 UNL     1      33.453  25.844 -41.911  1.00  0.00     0.113 C 
HETATM   13  C19 UNL     1      34.019  26.726 -42.975  1.00  0.00     0.052 C 
HETATM   14  C20 UNL     1      33.628  24.367 -42.194  1.00  0.00     0.189 C 
BRANCH   6  15
HETATM   15  C3  UNL     1      28.742  23.662 -45.746  1.00  0.00     0.305 C 
BRANCH  15  16
HETATM   16  O1  UNL     1      29.016  24.134 -47.025  1.00  0.00    -0.366 OA
ATOM     17  H1  UNL     1      28.305  24.658 -47.376  1.00  0.00     0.213 HD
ENDBRANCH  15  16
BRANCH  15  18
HETATM   18  O2  UNL     1      29.091  22.314 -45.751  1.00  0.00    -0.366 OA
ATOM     19  H2  UNL     1      29.598  22.151 -46.539  1.00  0.00     0.213 HD
ENDBRANCH  15  18
ENDBRANCH   6  15
BRANCH  11  20
HETATM   20  O9  UNL     1      31.559  25.657 -40.527  1.00  0.00    -0.388 OA
ATOM     21  H9  UNL     1      32.335  25.621 -39.980  1.00  0.00     0.210 HD
ENDBRANCH  11  20
BRANCH  12  22
HETATM   22  O10 UNL     1      34.054  26.105 -40.684  1.00  0.00    -0.385 OA
ATOM     23  H10 UNL     1      34.540  26.917 -40.771  1.00  0.00     0.210 HD
ENDBRANCH  12  22
BRANCH  14  24
HETATM   24  C21 UNL     1      35.081  24.044 -42.283  1.00  0.00     0.199 C 
BRANCH  24  25
HETATM   25  O11 UNL     1      35.536  23.488 -41.082  1.00  0.00    -0.398 OA
ATOM     26  H11 UNL     1      35.928  22.636 -41.234  1.00  0.00     0.209 HD
ENDBRANCH  24  25
ENDBRANCH  14  24
ENDBRANCH   1   3
BRANCH   1  27
HETATM   27  N3  UNL     1      28.814  27.361 -41.299  1.00  0.00    -0.332 N 
ATOM     28  H3  UNL     1      29.208  27.050 -40.411  1.00  0.00     0.180 HD
BRANCH  27  29
HETATM   29  C8  UNL     1      27.668  28.284 -41.324  1.00  0.00     0.177 C 
BRANCH  29  30
HETATM   30  C9  UNL     1      26.513  27.581 -40.602  1.00  0.00     0.195 C 
BRANCH  30  31
HETATM   31  O3  UNL     1      26.627  26.234 -40.951  1.00  0.00    -0.387 OA
ATOM     32  H3  UNL     1      26.254  25.754 -40.221  1.00  0.00     0.210 HD
ENDBRANCH  30  31
BRANCH  30  33
HETATM   33  C10 UNL     1      26.671  27.720 -39.133  1.00  0.00     0.099 A 
HETATM   34  O4  UNL     1      27.756  27.273 -38.593  1.00  0.00    -0.310 OA
HETATM   35  C11 UNL     1      28.006  27.337 -37.316  1.00  0.00     0.111 A 
HETATM   36  C13 UNL     1      27.098  27.899 -36.473  1.00  0.00     0.093 A 
HETATM   37  C14 UNL     1      25.904  28.403 -36.984  1.00  0.00     0.188 A 
HETATM   38  O7  UNL     1      25.081  28.913 -36.209  1.00  0.00    -0.287 OA
HETATM   39  C15 UNL     1      25.686  28.312 -38.338  1.00  0.00     0.064 A 
BRANCH  35  40
HETATM   40  C12 UNL     1      29.310  26.778 -36.821  1.00  0.00     0.312 C 
BRANCH  40  41
HETATM   41  O5  UNL     1      30.151  26.580 -37.890  1.00  0.00    -0.365 OA
ATOM     42  H5  UNL     1      30.927  26.118 -37.594  1.00  0.00     0.213 HD
ENDBRANCH  40  41
BRANCH  40  43
HETATM   43  O6  UNL     1      28.980  25.586 -36.163  1.00  0.00    -0.365 OA
ATOM     44  H6  UNL     1      29.744  25.363 -35.644  1.00  0.00     0.213 HD
ENDBRANCH  40  43
ENDBRANCH  35  40
BRANCH  39  45
HETATM   45  C16 UNL     1      24.478  28.812 -38.994  1.00  0.00     0.132 C 
HETATM   46  N4  UNL     1      23.323  28.867 -38.584  1.00  0.00    -0.279 N 
ATOM     47  H4  UNL     1      22.778  29.281 -39.341  1.00  0.00     0.193 HD
BRANCH  46  48
HETATM   48  O8  UNL     1      22.487  28.642 -37.635  1.00  0.00    -0.290 OA
ATOM     49  H8  UNL     1      21.586  28.642 -37.334  1.00  0.00     0.244 HD
ENDBRANCH  46  48
ENDBRANCH  39  45
ENDBRANCH  30  33
ENDBRANCH  29  30
ENDBRANCH  27  29
ENDBRANCH   1  27
TORSDOF 18
ENDMDL
MODEL 5
REMARK VINA RESULT: -6.649289870      2.506      4.512
REMARK  18 active torsions:
REMARK  status: ('A' for Active; 'I' for Inactive)
REMARK    1  A    between atoms: C2_3  and  C3_4 
REMARK    2  A    between atoms: C3_4  and  O1_5 
REMARK    3  A    between atoms: C3_4  and  O2_7 
REMARK    4  A    between atoms: C7_12  and  N2_13 
REMARK    5  A    between atoms: N2_13  and  N3_15 
REMARK    6  A    between atoms: N3_15  and  C8_17 
REMARK    7  A    between atoms: C8_17  and  C9_18 
REMARK    8  A    between atoms: C9_18  and  O3_19 
REMARK    9  A    between atoms: C9_18  and  C10_21 
REMARK   10  A    between atoms: C11_23  and  C12_24 
REMARK   11  A    between atoms: C12_24  and  O5_25 
REMARK   12  A    between atoms: C12_24  and  O6_27 
REMARK   13  A    between atoms: C15_32  and  C16_33 
REMARK   14  A    between atoms: N4_34  and  O8_36 
REMARK   15  A    between atoms: C17_38  and  O9_39 
REMARK   16  A    between atoms: C18_41  and  O10_43 
REMARK   17  A    between atoms: C20_45  and  C21_46 
REMARK   18  A    between atoms: C21_46  and  O11_47 
ROOT
HETATM    1  N2  UNL     1      28.398  27.868 -41.970  1.00  0.00    -0.289 N 
ATOM      2  H2  UNL     1      28.739  28.780 -42.274  1.00  0.00     0.188 HD
ENDROOT
BRANCH   1   3
HETATM    3  C7  UNL     1      29.338  27.087 -42.041  1.00  0.00     0.133 A 
HETATM    4  N1  UNL     1      29.288  26.160 -43.059  1.00  0.00    -0.335 N 
HETATM    5  C1  UNL     1      28.159  26.184 -43.946  1.00  0.00     0.158 C 
HETATM    6  C2  UNL     1      30.246  25.241 -43.254  1.00  0.00     0.070 A 
HETATM    7  C4  UNL     1      31.334  25.203 -42.415  1.00  0.00     0.068 A 
HETATM    8  C5  UNL     1      31.451  26.097 -41.377  1.00  0.00     0.084 A 
HETATM    9  C6  UNL     1      30.434  27.043 -41.203  1.00  0.00     0.052 A 
HETATM   10  O12 UNL     1      32.550  26.053 -40.534  1.00  0.00    -0.340 OA
HETATM   11  C17 UNL     1      30.509  28.032 -40.102  1.00  0.00     0.194 C 
HETATM   12  C18 UNL     1      31.920  28.152 -39.516  1.00  0.00     0.113 C 
HETATM   13  C19 UNL     1      32.703  29.050 -40.417  1.00  0.00     0.052 C 
HETATM   14  C20 UNL     1      32.534  26.779 -39.348  1.00  0.00     0.189 C 
BRANCH   6  15
HETATM   15  C3  UNL     1      30.183  24.244 -44.351  1.00  0.00     0.305 C 
BRANCH  15  16
HETATM   16  O1  UNL     1      31.405  24.095 -44.998  1.00  0.00    -0.366 OA
ATOM     17  H1  UNL     1      31.470  23.266 -45.459  1.00  0.00     0.213 HD
ENDBRANCH  15  16
BRANCH  15  18
HETATM   18  O2  UNL     1      29.898  23.006 -43.781  1.00  0.00    -0.366 OA
ATOM     19  H2  UNL     1      29.657  22.414 -44.484  1.00  0.00     0.213 HD
ENDBRANCH  15  18
ENDBRANCH   6  15
BRANCH  11  20
HETATM   20  O9  UNL     1      29.696  27.538 -39.054  1.00  0.00    -0.388 OA
ATOM     21  H9  UNL     1      30.258  27.439 -38.294  1.00  0.00     0.210 HD
ENDBRANCH  11  20
BRANCH  12  22
HETATM   22  O10 UNL     1      31.800  28.711 -38.248  1.00  0.00    -0.385 OA
ATOM     23  H10 UNL     1      32.602  29.187 -38.068  1.00  0.00     0.210 HD
ENDBRANCH  12  22
BRANCH  14  24
HETATM   24  C21 UNL     1      33.890  26.909 -38.740  1.00  0.00     0.199 C 
BRANCH  24  25
HETATM   25  O11 UNL     1      33.794  27.090 -37.356  1.00  0.00    -0.398 OA
ATOM     26  H11 UNL     1      34.530  27.599 -37.033  1.00  0.00     0.209 HD
ENDBRANCH  24  25
ENDBRANCH  14  24
ENDBRANCH   1   3
BRANCH   1  27
HETATM   27  N3  UNL     1      27.120  28.013 -41.659  1.00  0.00    -0.332 N 
ATOM     28  H3  UNL     1      26.393  27.723 -42.313  1.00  0.00     0.180 HD
BRANCH  27  29
HETATM   29  C8  UNL     1      26.760  28.599 -40.358  1.00  0.00     0.177 C 
BRANCH  29  30
HETATM   30  C9  UNL     1      25.888  27.570 -39.630  1.00  0.00     0.195 C 
BRANCH  30  31
HETATM   31  O3  UNL     1      26.386  26.325 -40.020  1.00  0.00    -0.387 OA
ATOM     32  H3  UNL     1      25.655  25.883 -40.437  1.00  0.00     0.210 HD
ENDBRANCH  30  31
BRANCH  30  33
HETATM   33  C10 UNL     1      26.042  27.720 -38.161  1.00  0.00     0.099 A 
HETATM   34  O4  UNL     1      27.162  27.361 -37.628  1.00  0.00    -0.310 OA
HETATM   35  C11 UNL     1      27.413  27.443 -36.352  1.00  0.00     0.111 A 
HETATM   36  C13 UNL     1      26.468  27.930 -35.504  1.00  0.00     0.093 A 
HETATM   37  C14 UNL     1      25.234  28.338 -36.008  1.00  0.00     0.188 A 
HETATM   38  O7  UNL     1      24.377  28.780 -35.228  1.00  0.00    -0.287 OA
HETATM   39  C15 UNL     1      25.017  28.230 -37.361  1.00  0.00     0.064 A 
BRANCH  35  40
HETATM   40  C12 UNL     1      28.761  26.990 -35.864  1.00  0.00     0.312 C 
BRANCH  40  41
HETATM   41  O5  UNL     1      29.699  27.945 -36.178  1.00  0.00    -0.365 OA
ATOM     42  H5  UNL     1      30.472  27.809 -35.643  1.00  0.00     0.213 HD
ENDBRANCH  40  41
BRANCH  40  43
HETATM   43  O6  UNL     1      28.998  25.767 -36.505  1.00  0.00    -0.365 OA
ATOM     44  H6  UNL     1      28.982  25.112 -35.817  1.00  0.00     0.213 HD
ENDBRANCH  40  43
ENDBRANCH  35  40
BRANCH  39  45
HETATM   45  C16 UNL     1      23.770  28.632 -38.009  1.00  0.00     0.132 C 
HETATM   46  N4  UNL     1      22.672  28.886 -37.522  1.00  0.00    -0.279 N 
ATOM     47  H4  UNL     1      22.068  29.126 -38.308  1.00  0.00     0.193 HD
BRANCH  46  48
HETATM   48  O8  UNL     1      21.939  28.987 -36.473  1.00  0.00    -0.290 OA
ATOM     49  H8  UNL     1      21.268  29.463 -35.998  1.00  0.00     0.244 HD
ENDBRANCH  46  48
ENDBRANCH  39  45
ENDBRANCH  30  33
ENDBRANCH  29  30
ENDBRANCH  27  29
ENDBRANCH   1  27
TORSDOF 18
ENDMDL
