MODEL 1
REMARK VINA RESULT: -8.181355331      0.000      0.000
REMARK  6 active torsions:
REMARK  status: ('A' for Active; 'I' for Inactive)
REMARK    1  A    between atoms: O1_2  and  N1_3 
REMARK       I    between atoms: N1_3  and  C2_5 
REMARK    2  A    between atoms: C2_5  and  C3_7 
REMARK    3  A    between atoms: C3_7  and  C4_8 
REMARK    4  A    between atoms: C4_8  and  C5_9 
REMARK    5  A    between atoms: C5_9  and  C7_11 
REMARK    6  A    between atoms: C19_24  and  O4_25 
ROOT
HETATM    1  C7  UNL     1      48.517  31.875  40.878  1.00  0.00    -0.002 C 
HETATM    2  C8  UNL     1      47.179  31.260  40.371  1.00  0.00     0.006 C 
HETATM    3  C9  UNL     1      46.641  32.297  39.398  1.00  0.00     0.006 C 
HETATM    4  C10 UNL     1      47.911  32.669  38.781  1.00  0.00     0.006 C 
HETATM    5  C11 UNL     1      48.038  33.880  37.984  1.00  0.00     0.069 C 
HETATM    6  C12 UNL     1      47.941  33.428  36.548  1.00  0.00     0.132 C 
HETATM    7  O3  UNL     1      46.938  33.481  35.904  1.00  0.00    -0.298 OA
HETATM    8  C13 UNL     1      49.259  32.937  36.148  1.00  0.00     0.084 C 
HETATM    9  C14 UNL     1      50.179  33.853  36.910  1.00  0.00     0.010 C 
HETATM   10  C15 UNL     1      50.681  34.964  36.033  1.00  0.00    -0.035 C 
HETATM   11  C16 UNL     1      51.551  34.268  34.967  1.00  0.00     0.016 C 
HETATM   12  C17 UNL     1      49.586  35.620  35.266  1.00  0.00     0.012 C 
HETATM   13  C18 UNL     1      50.085  36.816  34.479  1.00  0.00     0.033 C 
HETATM   14  C19 UNL     1      50.606  37.800  35.467  1.00  0.00     0.126 C 
HETATM   15  C20 UNL     1      51.785  37.230  36.177  1.00  0.00    -0.017 C 
HETATM   16  C21 UNL     1      52.987  37.200  35.220  1.00  0.00     0.018 C 
HETATM   17  C22 UNL     1      52.191  38.276  37.222  1.00  0.00     0.018 C 
HETATM   18  C23 UNL     1      51.569  35.889  36.807  1.00  0.00     0.004 C 
HETATM   19  C24 UNL     1      51.231  35.945  38.267  1.00  0.00     0.007 C 
HETATM   20  C25 UNL     1      49.743  35.679  38.550  1.00  0.00     0.011 C 
HETATM   21  C26 UNL     1      49.486  34.267  38.177  1.00  0.00    -0.024 C 
HETATM   22  C27 UNL     1      49.960  33.409  39.377  1.00  0.00     0.020 C 
HETATM   23  C28 UNL     1      48.722  33.016  40.046  1.00  0.00    -0.035 C 
HETATM   24  C29 UNL     1      48.039  34.196  40.758  1.00  0.00     0.016 C 
ENDROOT
BRANCH   1  25
HETATM   25  C5  UNL     1      49.501  30.769  41.109  1.00  0.00    -0.013 C 
HETATM   26  C6  UNL     1      48.749  29.512  40.728  1.00  0.00     0.010 C 
BRANCH  25  27
HETATM   27  C4  UNL     1      50.016  30.777  42.492  1.00  0.00     0.014 C 
BRANCH  27  28
HETATM   28  C3  UNL     1      49.295  31.542  43.537  1.00  0.00     0.105 C 
BRANCH  28  29
HETATM   29  C2  UNL     1      49.670  31.186  44.908  1.00  0.00     0.241 C 
HETATM   30  N1  UNL     1      50.719  30.280  45.225  1.00  0.00    -0.235 N 
ATOM     31  H1  UNL     1      51.253  29.834  44.480  1.00  0.00     0.197 HD
HETATM   32  O2  UNL     1      49.025  31.715  45.870  1.00  0.00    -0.271 OA
BRANCH  30  33
HETATM   33  O1  UNL     1      51.000  30.015  46.503  1.00  0.00    -0.283 OA
HETATM   34  C1  UNL     1      52.106  29.245  46.741  1.00  0.00     0.237 C 
ENDBRANCH  30  33
ENDBRANCH  28  29
ENDBRANCH  27  28
ENDBRANCH  25  27
ENDBRANCH   1  25
BRANCH  14  35
HETATM   35  O4  UNL     1      50.996  38.985  34.869  1.00  0.00    -0.395 OA
ATOM     36  H4  UNL     1      51.922  39.157  34.984  1.00  0.00     0.210 HD
ENDBRANCH  14  35
TORSDOF 6
ENDMDL
MODEL 2
REMARK VINA RESULT: -8.121295089      2.451      4.659
REMARK  6 active torsions:
REMARK  status: ('A' for Active; 'I' for Inactive)
REMARK    1  A    between atoms: O1_2  and  N1_3 
REMARK       I    between atoms: N1_3  and  C2_5 
REMARK    2  A    between atoms: C2_5  and  C3_7 
REMARK    3  A    between atoms: C3_7  and  C4_8 
REMARK    4  A    between atoms: C4_8  and  C5_9 
REMARK    5  A    between atoms: C5_9  and  C7_11 
REMARK    6  A    between atoms: C19_24  and  O4_25 
ROOT
HETATM    1  C7  UNL     1      48.680  31.877  45.237  1.00  0.00    -0.002 C 
HETATM    2  C8  UNL     1      47.475  30.959  45.598  1.00  0.00     0.006 C 
HETATM    3  C9  UNL     1      46.501  31.158  44.446  1.00  0.00     0.006 C 
HETATM    4  C10 UNL     1      47.481  31.208  43.364  1.00  0.00     0.006 C 
HETATM    5  C11 UNL     1      47.127  31.712  42.046  1.00  0.00     0.069 C 
HETATM    6  C12 UNL     1      46.865  30.489  41.205  1.00  0.00     0.132 C 
HETATM    7  O3  UNL     1      45.775  30.054  40.989  1.00  0.00    -0.298 OA
HETATM    8  C13 UNL     1      48.158  29.983  40.745  1.00  0.00     0.084 C 
HETATM    9  C14 UNL     1      48.941  31.253  40.551  1.00  0.00     0.010 C 
HETATM   10  C15 UNL     1      48.950  31.665  39.108  1.00  0.00    -0.035 C 
HETATM   11  C16 UNL     1      49.740  30.557  38.381  1.00  0.00     0.016 C 
HETATM   12  C17 UNL     1      47.592  31.631  38.498  1.00  0.00     0.012 C 
HETATM   13  C18 UNL     1      47.594  32.164  37.079  1.00  0.00     0.033 C 
HETATM   14  C19 UNL     1      48.029  33.587  37.151  1.00  0.00     0.126 C 
HETATM   15  C20 UNL     1      49.433  33.664  37.642  1.00  0.00    -0.017 C 
HETATM   16  C21 UNL     1      50.384  33.183  36.535  1.00  0.00     0.018 C 
HETATM   17  C22 UNL     1      49.754  35.159  37.760  1.00  0.00     0.018 C 
HETATM   18  C23 UNL     1      49.704  32.948  38.929  1.00  0.00     0.004 C 
HETATM   19  C24 UNL     1      49.663  33.829  40.141  1.00  0.00     0.007 C 
HETATM   20  C25 UNL     1      48.383  33.645  40.974  1.00  0.00     0.011 C 
HETATM   21  C26 UNL     1      48.432  32.272  41.531  1.00  0.00    -0.024 C 
HETATM   22  C27 UNL     1      49.344  32.344  42.782  1.00  0.00     0.020 C 
HETATM   23  C28 UNL     1      48.410  32.313  43.906  1.00  0.00    -0.035 C 
HETATM   24  C29 UNL     1      47.602  33.614  44.035  1.00  0.00     0.016 C 
ENDROOT
BRANCH   1  25
HETATM   25  C5  UNL     1      49.943  31.223  45.709  1.00  0.00    -0.013 C 
HETATM   26  C6  UNL     1      50.443  30.458  44.502  1.00  0.00     0.010 C 
BRANCH  25  27
HETATM   27  C4  UNL     1      49.714  30.393  46.906  1.00  0.00     0.014 C 
BRANCH  27  28
HETATM   28  C3  UNL     1      50.534  30.616  48.121  1.00  0.00     0.105 C 
BRANCH  28  29
HETATM   29  C2  UNL     1      51.194  29.411  48.629  1.00  0.00     0.241 C 
HETATM   30  N1  UNL     1      52.545  29.075  48.341  1.00  0.00    -0.235 N 
ATOM     31  H1  UNL     1      53.109  29.684  47.749  1.00  0.00     0.197 HD
HETATM   32  O2  UNL     1      50.526  28.619  49.369  1.00  0.00    -0.271 OA
BRANCH  30  33
HETATM   33  O1  UNL     1      53.072  27.960  48.851  1.00  0.00    -0.283 OA
HETATM   34  C1  UNL     1      53.117  26.869  48.026  1.00  0.00     0.237 C 
ENDBRANCH  30  33
ENDBRANCH  28  29
ENDBRANCH  27  28
ENDBRANCH  25  27
ENDBRANCH   1  25
BRANCH  14  35
HETATM   35  O4  UNL     1      47.969  34.214  35.919  1.00  0.00    -0.395 OA
ATOM     36  H4  UNL     1      47.489  35.033  35.957  1.00  0.00     0.210 HD
ENDBRANCH  14  35
TORSDOF 6
ENDMDL
MODEL 3
REMARK VINA RESULT: -8.039590670      0.990      1.188
REMARK  6 active torsions:
REMARK  status: ('A' for Active; 'I' for Inactive)
REMARK    1  A    between atoms: O1_2  and  N1_3 
REMARK       I    between atoms: N1_3  and  C2_5 
REMARK    2  A    between atoms: C2_5  and  C3_7 
REMARK    3  A    between atoms: C3_7  and  C4_8 
REMARK    4  A    between atoms: C4_8  and  C5_9 
REMARK    5  A    between atoms: C5_9  and  C7_11 
REMARK    6  A    between atoms: C19_24  and  O4_25 
ROOT
HETATM    1  C7  UNL     1      48.403  31.814  40.867  1.00  0.00    -0.002 C 
HETATM    2  C8  UNL     1      47.149  31.099  40.282  1.00  0.00     0.006 C 
HETATM    3  C9  UNL     1      46.631  32.065  39.228  1.00  0.00     0.006 C 
HETATM    4  C10 UNL     1      47.924  32.492  38.698  1.00  0.00     0.006 C 
HETATM    5  C11 UNL     1      48.043  33.678  37.864  1.00  0.00     0.069 C 
HETATM    6  C12 UNL     1      48.089  33.168  36.445  1.00  0.00     0.132 C 
HETATM    7  O3  UNL     1      47.141  33.136  35.722  1.00  0.00    -0.298 OA
HETATM    8  C13 UNL     1      49.462  32.746  36.171  1.00  0.00     0.084 C 
HETATM    9  C14 UNL     1      50.262  33.744  36.963  1.00  0.00     0.010 C 
HETATM   10  C15 UNL     1      50.767  34.851  36.084  1.00  0.00    -0.035 C 
HETATM   11  C16 UNL     1      51.760  34.172  35.119  1.00  0.00     0.016 C 
HETATM   12  C17 UNL     1      49.702  35.410  35.206  1.00  0.00     0.012 C 
HETATM   13  C18 UNL     1      50.191  36.605  34.412  1.00  0.00     0.033 C 
HETATM   14  C19 UNL     1      50.572  37.654  35.397  1.00  0.00     0.126 C 
HETATM   15  C20 UNL     1      51.721  37.185  36.220  1.00  0.00    -0.017 C 
HETATM   16  C21 UNL     1      52.996  37.194  35.362  1.00  0.00     0.018 C 
HETATM   17  C22 UNL     1      51.979  38.292  37.249  1.00  0.00     0.018 C 
HETATM   18  C23 UNL     1      51.534  35.857  36.886  1.00  0.00     0.004 C 
HETATM   19  C24 UNL     1      51.076  35.945  38.311  1.00  0.00     0.007 C 
HETATM   20  C25 UNL     1      49.589  35.598  38.487  1.00  0.00     0.011 C 
HETATM   21  C26 UNL     1      49.445  34.161  38.154  1.00  0.00    -0.024 C 
HETATM   22  C27 UNL     1      49.870  33.377  39.422  1.00  0.00     0.020 C 
HETATM   23  C28 UNL     1      48.607  32.934  40.007  1.00  0.00    -0.035 C 
HETATM   24  C29 UNL     1      47.801  34.094  40.614  1.00  0.00     0.016 C 
ENDROOT
BRANCH   1  25
HETATM   25  C5  UNL     1      49.428  30.780  41.221  1.00  0.00    -0.013 C 
HETATM   26  C6  UNL     1      48.823  29.475  40.749  1.00  0.00     0.010 C 
BRANCH  25  27
HETATM   27  C4  UNL     1      49.764  30.814  42.657  1.00  0.00     0.014 C 
BRANCH  27  28
HETATM   28  C3  UNL     1      49.144  31.838  43.530  1.00  0.00     0.105 C 
BRANCH  28  29
HETATM   29  C2  UNL     1      49.088  31.466  44.946  1.00  0.00     0.241 C 
HETATM   30  N1  UNL     1      47.887  31.445  45.706  1.00  0.00    -0.235 N 
ATOM     31  H1  UNL     1      47.002  31.702  45.270  1.00  0.00     0.197 HD
HETATM   32  O2  UNL     1      50.172  31.143  45.531  1.00  0.00    -0.271 OA
BRANCH  30  33
HETATM   33  O1  UNL     1      47.924  31.087  46.991  1.00  0.00    -0.283 OA
HETATM   34  C1  UNL     1      47.291  29.919  47.321  1.00  0.00     0.237 C 
ENDBRANCH  30  33
ENDBRANCH  28  29
ENDBRANCH  27  28
ENDBRANCH  25  27
ENDBRANCH   1  25
BRANCH  14  35
HETATM   35  O4  UNL     1      50.939  38.839  34.782  1.00  0.00    -0.395 OA
ATOM     36  H4  UNL     1      50.649  39.600  35.271  1.00  0.00     0.210 HD
ENDBRANCH  14  35
TORSDOF 6
ENDMDL
MODEL 4
REMARK VINA RESULT: -7.999278928      2.477      4.796
REMARK  6 active torsions:
REMARK  status: ('A' for Active; 'I' for Inactive)
REMARK    1  A    between atoms: O1_2  and  N1_3 
REMARK       I    between atoms: N1_3  and  C2_5 
REMARK    2  A    between atoms: C2_5  and  C3_7 
REMARK    3  A    between atoms: C3_7  and  C4_8 
REMARK    4  A    between atoms: C4_8  and  C5_9 
REMARK    5  A    between atoms: C5_9  and  C7_11 
REMARK    6  A    between atoms: C19_24  and  O4_25 
ROOT
HETATM    1  C7  UNL     1      48.688  31.831  45.276  1.00  0.00    -0.002 C 
HETATM    2  C8  UNL     1      47.478  30.915  45.625  1.00  0.00     0.006 C 
HETATM    3  C9  UNL     1      46.510  31.127  44.471  1.00  0.00     0.006 C 
HETATM    4  C10 UNL     1      47.495  31.180  43.393  1.00  0.00     0.006 C 
HETATM    5  C11 UNL     1      47.147  31.694  42.077  1.00  0.00     0.069 C 
HETATM    6  C12 UNL     1      46.883  30.478  41.226  1.00  0.00     0.132 C 
HETATM    7  O3  UNL     1      45.793  30.049  41.003  1.00  0.00    -0.298 OA
HETATM    8  C13 UNL     1      48.176  29.970  40.768  1.00  0.00     0.084 C 
HETATM    9  C14 UNL     1      48.965  31.238  40.586  1.00  0.00     0.010 C 
HETATM   10  C15 UNL     1      48.982  31.660  39.146  1.00  0.00    -0.035 C 
HETATM   11  C16 UNL     1      49.770  30.554  38.415  1.00  0.00     0.016 C 
HETATM   12  C17 UNL     1      47.626  31.635  38.530  1.00  0.00     0.012 C 
HETATM   13  C18 UNL     1      47.636  32.179  37.115  1.00  0.00     0.033 C 
HETATM   14  C19 UNL     1      48.077  33.598  37.198  1.00  0.00     0.126 C 
HETATM   15  C20 UNL     1      49.478  33.667  37.696  1.00  0.00    -0.017 C 
HETATM   16  C21 UNL     1      50.433  33.190  36.589  1.00  0.00     0.018 C 
HETATM   17  C22 UNL     1      49.805  35.160  37.825  1.00  0.00     0.018 C 
HETATM   18  C23 UNL     1      49.741  32.941  38.979  1.00  0.00     0.004 C 
HETATM   19  C24 UNL     1      49.699  33.814  40.197  1.00  0.00     0.007 C 
HETATM   20  C25 UNL     1      48.416  33.630  41.023  1.00  0.00     0.011 C 
HETATM   21  C26 UNL     1      48.457  32.252  41.571  1.00  0.00    -0.024 C 
HETATM   22  C27 UNL     1      49.364  32.312  42.826  1.00  0.00     0.020 C 
HETATM   23  C28 UNL     1      48.425  32.277  43.946  1.00  0.00    -0.035 C 
HETATM   24  C29 UNL     1      47.622  33.581  44.081  1.00  0.00     0.016 C 
ENDROOT
BRANCH   1  25
HETATM   25  C5  UNL     1      49.947  31.169  45.747  1.00  0.00    -0.013 C 
HETATM   26  C6  UNL     1      50.441  30.399  44.541  1.00  0.00     0.010 C 
BRANCH  25  27
HETATM   27  C4  UNL     1      49.712  30.342  46.946  1.00  0.00     0.014 C 
BRANCH  27  28
HETATM   28  C3  UNL     1      50.592  29.181  47.220  1.00  0.00     0.105 C 
BRANCH  28  29
HETATM   29  C2  UNL     1      49.887  27.899  47.301  1.00  0.00     0.241 C 
HETATM   30  N1  UNL     1      48.499  27.783  47.582  1.00  0.00    -0.235 N 
ATOM     31  H1  UNL     1      47.937  28.618  47.744  1.00  0.00     0.197 HD
HETATM   32  O2  UNL     1      50.551  26.830  47.110  1.00  0.00    -0.271 OA
BRANCH  30  33
HETATM   33  O1  UNL     1      47.933  26.575  47.631  1.00  0.00    -0.283 OA
HETATM   34  C1  UNL     1      46.567  26.539  47.698  1.00  0.00     0.237 C 
ENDBRANCH  30  33
ENDBRANCH  28  29
ENDBRANCH  27  28
ENDBRANCH  25  27
ENDBRANCH   1  25
BRANCH  14  35
HETATM   35  O4  UNL     1      48.024  34.234  35.971  1.00  0.00    -0.395 OA
ATOM     36  H4  UNL     1      48.345  35.127  36.015  1.00  0.00     0.210 HD
ENDBRANCH  14  35
TORSDOF 6
ENDMDL
MODEL 5
REMARK VINA RESULT: -7.966639567      1.269      1.696
REMARK  6 active torsions:
REMARK  status: ('A' for Active; 'I' for Inactive)
REMARK    1  A    between atoms: O1_2  and  N1_3 
REMARK       I    between atoms: N1_3  and  C2_5 
REMARK    2  A    between atoms: C2_5  and  C3_7 
REMARK    3  A    between atoms: C3_7  and  C4_8 
REMARK    4  A    between atoms: C4_8  and  C5_9 
REMARK    5  A    between atoms: C5_9  and  C7_11 
REMARK    6  A    between atoms: C19_24  and  O4_25 
ROOT
HETATM    1  C7  UNL     1      48.082  31.002  39.329  1.00  0.00    -0.002 C 
HETATM    2  C8  UNL     1      47.601  30.202  38.083  1.00  0.00     0.006 C 
HETATM    3  C9  UNL     1      47.384  31.269  37.020  1.00  0.00     0.006 C 
HETATM    4  C10 UNL     1      48.543  32.101  37.336  1.00  0.00     0.006 C 
HETATM    5  C11 UNL     1      48.657  33.460  36.829  1.00  0.00     0.069 C 
HETATM    6  C12 UNL     1      49.563  33.367  35.627  1.00  0.00     0.132 C 
HETATM    7  O3  UNL     1      49.168  33.313  34.503  1.00  0.00    -0.298 OA
HETATM    8  C13 UNL     1      50.943  33.353  36.114  1.00  0.00     0.084 C 
HETATM    9  C14 UNL     1      50.862  34.261  37.311  1.00  0.00     0.010 C 
HETATM   10  C15 UNL     1      51.335  35.644  36.971  1.00  0.00    -0.035 C 
HETATM   11  C16 UNL     1      52.835  35.486  36.650  1.00  0.00     0.016 C 
HETATM   12  C17 UNL     1      50.726  36.160  35.713  1.00  0.00     0.012 C 
HETATM   13  C18 UNL     1      51.115  37.600  35.444  1.00  0.00     0.033 C 
HETATM   14  C19 UNL     1      50.586  38.411  36.575  1.00  0.00     0.126 C 
HETATM   15  C20 UNL     1      51.258  38.013  37.843  1.00  0.00    -0.017 C 
HETATM   16  C21 UNL     1      52.704  38.535  37.835  1.00  0.00     0.018 C 
HETATM   17  C22 UNL     1      50.590  38.838  38.949  1.00  0.00     0.018 C 
HETATM   18  C23 UNL     1      51.221  36.550  38.159  1.00  0.00     0.004 C 
HETATM   19  C24 UNL     1      50.120  36.154  39.097  1.00  0.00     0.007 C 
HETATM   20  C25 UNL     1      48.953  35.446  38.389  1.00  0.00     0.011 C 
HETATM   21  C26 UNL     1      49.480  34.153  37.890  1.00  0.00    -0.024 C 
HETATM   22  C27 UNL     1      49.456  33.181  39.096  1.00  0.00     0.020 C 
HETATM   23  C28 UNL     1      48.299  32.325  38.841  1.00  0.00    -0.035 C 
HETATM   24  C29 UNL     1      46.966  33.072  39.017  1.00  0.00     0.016 C 
ENDROOT
BRANCH   1  25
HETATM   25  C5  UNL     1      49.075  30.170  40.083  1.00  0.00    -0.013 C 
HETATM   26  C6  UNL     1      48.797  28.753  39.632  1.00  0.00     0.010 C 
BRANCH  25  27
HETATM   27  C4  UNL     1      48.969  30.381  41.539  1.00  0.00     0.014 C 
BRANCH  27  28
HETATM   28  C3  UNL     1      49.986  31.202  42.238  1.00  0.00     0.105 C 
BRANCH  28  29
HETATM   29  C2  UNL     1      49.901  31.149  43.699  1.00  0.00     0.241 C 
HETATM   30  N1  UNL     1      50.764  30.360  44.508  1.00  0.00    -0.235 N 
ATOM     31  H1  UNL     1      51.488  29.787  44.077  1.00  0.00     0.197 HD
HETATM   32  O2  UNL     1      49.007  31.846  44.279  1.00  0.00    -0.271 OA
BRANCH  30  33
HETATM   33  O1  UNL     1      50.621  30.375  45.835  1.00  0.00    -0.283 OA
HETATM   34  C1  UNL     1      51.491  29.600  46.555  1.00  0.00     0.237 C 
ENDBRANCH  30  33
ENDBRANCH  28  29
ENDBRANCH  27  28
ENDBRANCH  25  27
ENDBRANCH   1  25
BRANCH  14  35
HETATM   35  O4  UNL     1      50.790  39.766  36.387  1.00  0.00    -0.395 OA
ATOM     36  H4  UNL     1      50.719  40.255  37.197  1.00  0.00     0.210 HD
ENDBRANCH  14  35
TORSDOF 6
ENDMDL
