MODEL 1
REMARK VINA RESULT: -7.852585934      0.000      0.000
REMARK  12 active torsions:
REMARK  status: ('A' for Active; 'I' for Inactive)
REMARK    1  A    between atoms: C2_2  and  C3_3 
REMARK    2  A    between atoms: C3_3  and  N1_4 
REMARK    3  A    between atoms: N1_4  and  C4_6 
REMARK    4  A    between atoms: C5_9  and  N3_10 
REMARK    5  A    between atoms: N3_10  and  C6_12 
REMARK    6  A    between atoms: C6_12  and  C7_13 
REMARK    7  A    between atoms: C7_13  and  C8_14 
REMARK    8  A    between atoms: C8_14  and  C9_15 
REMARK    9  A    between atoms: C9_15  and  N4_16 
REMARK   10  A    between atoms: C10_22  and  N6_23 
REMARK   11  A    between atoms: N6_23  and  C11_25 
REMARK   12  A    between atoms: C11_25  and  C12_26 
ROOT
HETATM    1  C4  UNL     1      -7.875  -7.409  -9.818  1.00  0.00     0.707 A 
HETATM    2  N2  UNL     1      -6.683  -6.968  -9.376  1.00  0.00    -0.022 N 
ATOM      3  H2  UNL     1      -5.938  -6.813 -10.056  1.00  0.00     0.203 HD
HETATM    4  C5  UNL     1      -6.430  -6.722  -8.083  1.00  0.00     0.707 A 
HETATM    5  N5  UNL     1      -7.436  -6.936  -7.216  1.00  0.00    -0.022 N 
ATOM      6  H5  UNL     1      -7.290  -6.763  -6.222  1.00  0.00     0.203 HD
HETATM    7  C10 UNL     1      -8.636  -7.379  -7.648  1.00  0.00     0.707 A 
HETATM    8  N10 UNL     1      -8.881  -7.623  -8.952  1.00  0.00    -0.022 N 
ATOM      9  H10 UNL     1      -9.792  -7.957  -9.268  1.00  0.00     0.203 HD
ENDROOT
BRANCH   7  10
HETATM   10  N6  UNL     1      -9.613  -7.589  -6.818  1.00  0.00    -0.218 N 
ATOM     11  H6  UNL     1      -9.544  -7.298  -5.843  1.00  0.00     0.178 HD
BRANCH  10  12
HETATM   12  C11 UNL     1     -10.802  -8.247  -7.317  1.00  0.00     0.216 C 
BRANCH  12  13
HETATM   13  C12 UNL     1     -10.932  -9.543  -6.616  1.00  0.00     0.115 A 
HETATM   14  N7  UNL     1     -11.732 -10.549  -6.971  1.00  0.00    -0.338 N 
HETATM   15  C13 UNL     1     -11.553 -11.540  -6.077  1.00  0.00     0.201 A 
ATOM     16  H7  UNL     1     -12.363 -10.565  -7.772  1.00  0.00     0.168 HD
HETATM   17  N8  UNL     1     -10.635 -11.119  -5.179  1.00  0.00    -0.291 N 
HETATM   18  C14 UNL     1     -10.108 -11.824  -4.029  1.00  0.00     0.178 C 
HETATM   19  N9  UNL     1     -10.248  -9.882  -5.509  1.00  0.00    -0.285 N 
ATOM     20  H9  UNL     1      -9.565  -9.307  -5.016  1.00  0.00     0.188 HD
ENDBRANCH  12  13
ENDBRANCH  10  12
ENDBRANCH   7  10
BRANCH   4  21
HETATM   21  N3  UNL     1      -5.270  -6.297  -7.676  1.00  0.00    -0.225 N 
ATOM     22  H3  UNL     1      -4.610  -5.887  -8.337  1.00  0.00     0.177 HD
BRANCH  21  23
HETATM   23  C6  UNL     1      -4.921  -6.415  -6.246  1.00  0.00     0.138 C 
BRANCH  23  24
HETATM   24  C7  UNL     1      -3.481  -6.766  -6.076  1.00  0.00     0.022 C 
BRANCH  24  25
HETATM   25  C8  UNL     1      -2.674  -6.302  -7.254  1.00  0.00     0.029 C 
BRANCH  25  26
HETATM   26  C9  UNL     1      -1.484  -5.519  -6.784  1.00  0.00     0.229 C 
BRANCH  26  27
HETATM   27  N4  UNL     1      -1.862  -4.153  -6.462  1.00  0.00    -0.079 N 
ATOM     28  H43 UNL     1      -2.541  -3.782  -7.127  1.00  0.00     0.274 HD
ATOM     29  H42 UNL     1      -2.434  -4.107  -5.619  1.00  0.00     0.274 HD
ATOM     30  H41 UNL     1      -1.037  -3.558  -6.393  1.00  0.00     0.274 HD
ENDBRANCH  26  27
ENDBRANCH  25  26
ENDBRANCH  24  25
ENDBRANCH  23  24
ENDBRANCH  21  23
ENDBRANCH   4  21
BRANCH   1  31
HETATM   31  N1  UNL     1      -8.123  -7.647 -11.060  1.00  0.00    -0.225 N 
ATOM     32  H1  UNL     1      -7.333  -7.799 -11.686  1.00  0.00     0.177 HD
BRANCH  31  33
HETATM   33  C3  UNL     1      -9.448  -7.709 -11.615  1.00  0.00     0.137 C 
BRANCH  33  34
HETATM   34  C2  UNL     1     -10.111  -9.045 -11.373  1.00  0.00     0.016 C 
HETATM   35  C1  UNL     1     -11.523  -8.896 -10.873  1.00  0.00     0.006 C 
ENDBRANCH  33  34
ENDBRANCH  31  33
ENDBRANCH   1  31
TORSDOF 12
ENDMDL
MODEL 2
REMARK VINA RESULT: -7.845214507      1.375      7.186
REMARK  12 active torsions:
REMARK  status: ('A' for Active; 'I' for Inactive)
REMARK    1  A    between atoms: C2_2  and  C3_3 
REMARK    2  A    between atoms: C3_3  and  N1_4 
REMARK    3  A    between atoms: N1_4  and  C4_6 
REMARK    4  A    between atoms: C5_9  and  N3_10 
REMARK    5  A    between atoms: N3_10  and  C6_12 
REMARK    6  A    between atoms: C6_12  and  C7_13 
REMARK    7  A    between atoms: C7_13  and  C8_14 
REMARK    8  A    between atoms: C8_14  and  C9_15 
REMARK    9  A    between atoms: C9_15  and  N4_16 
REMARK   10  A    between atoms: C10_22  and  N6_23 
REMARK   11  A    between atoms: N6_23  and  C11_25 
REMARK   12  A    between atoms: C11_25  and  C12_26 
ROOT
HETATM    1  C4  UNL     1     -10.814  -9.388  -6.152  1.00  0.00     0.707 A 
HETATM    2  N2  UNL     1     -11.761  -9.342  -7.106  1.00  0.00    -0.022 N 
ATOM      3  H2  UNL     1     -12.575  -9.950  -7.015  1.00  0.00     0.203 HD
HETATM    4  C5  UNL     1     -11.684  -8.531  -8.171  1.00  0.00     0.707 A 
HETATM    5  N5  UNL     1     -10.598  -7.743  -8.257  1.00  0.00    -0.022 N 
ATOM      6  H5  UNL     1     -10.496  -7.109  -9.049  1.00  0.00     0.203 HD
HETATM    7  C10 UNL     1      -9.641  -7.781  -7.304  1.00  0.00     0.707 A 
HETATM    8  N10 UNL     1      -9.728  -8.600  -6.236  1.00  0.00    -0.022 N 
ATOM      9  H10 UNL     1      -9.000  -8.621  -5.522  1.00  0.00     0.203 HD
ENDROOT
BRANCH   7  10
HETATM   10  N6  UNL     1      -8.589  -7.023  -7.379  1.00  0.00    -0.218 N 
ATOM     11  H6  UNL     1      -8.577  -6.098  -6.949  1.00  0.00     0.178 HD
BRANCH  10  12
HETATM   12  C11 UNL     1      -7.434  -7.529  -8.090  1.00  0.00     0.216 C 
BRANCH  12  13
HETATM   13  C12 UNL     1      -6.234  -6.855  -7.544  1.00  0.00     0.115 A 
HETATM   14  N7  UNL     1      -5.985  -6.622  -6.256  1.00  0.00    -0.338 N 
HETATM   15  C13 UNL     1      -4.796  -5.991  -6.184  1.00  0.00     0.201 A 
ATOM     16  H7  UNL     1      -6.584  -6.873  -5.469  1.00  0.00     0.168 HD
HETATM   17  N8  UNL     1      -4.333  -5.849  -7.445  1.00  0.00    -0.291 N 
HETATM   18  C14 UNL     1      -3.099  -5.235  -7.889  1.00  0.00     0.178 C 
HETATM   19  N9  UNL     1      -5.221  -6.383  -8.292  1.00  0.00    -0.285 N 
ATOM     20  H9  UNL     1      -5.143  -6.423  -9.307  1.00  0.00     0.188 HD
ENDBRANCH  12  13
ENDBRANCH  10  12
ENDBRANCH   7  10
BRANCH   4  21
HETATM   21  N3  UNL     1     -12.611  -8.502  -9.084  1.00  0.00    -0.225 N 
ATOM     22  H3  UNL     1     -13.586  -8.665  -8.834  1.00  0.00     0.177 HD
BRANCH  21  23
HETATM   23  C6  UNL     1     -12.233  -8.230 -10.485  1.00  0.00     0.138 C 
BRANCH  23  24
HETATM   24  C7  UNL     1     -11.172  -9.174 -10.943  1.00  0.00     0.022 C 
BRANCH  24  25
HETATM   25  C8  UNL     1     -10.186  -8.479 -11.838  1.00  0.00     0.029 C 
BRANCH  25  26
HETATM   26  C9  UNL     1      -8.874  -8.320 -11.130  1.00  0.00     0.229 C 
BRANCH  26  27
HETATM   27  N4  UNL     1      -8.274  -9.617 -10.864  1.00  0.00    -0.079 N 
ATOM     28  H43 UNL     1      -7.762  -9.624  -9.982  1.00  0.00     0.274 HD
ATOM     29  H42 UNL     1      -8.977 -10.320 -10.638  1.00  0.00     0.274 HD
ATOM     30  H41 UNL     1      -7.685  -9.908 -11.645  1.00  0.00     0.274 HD
ENDBRANCH  26  27
ENDBRANCH  25  26
ENDBRANCH  24  25
ENDBRANCH  23  24
ENDBRANCH  21  23
ENDBRANCH   4  21
BRANCH   1  31
HETATM   31  N1  UNL     1     -10.883 -10.166  -5.126  1.00  0.00    -0.225 N 
ATOM     32  H1  UNL     1     -10.660  -9.775  -4.211  1.00  0.00     0.177 HD
BRANCH  31  33
HETATM   33  C3  UNL     1     -11.258 -11.552  -5.196  1.00  0.00     0.137 C 
BRANCH  33  34
HETATM   34  C2  UNL     1     -11.403 -12.179  -3.830  1.00  0.00     0.016 C 
HETATM   35  C1  UNL     1     -10.093 -12.707  -3.306  1.00  0.00     0.006 C 
ENDBRANCH  33  34
ENDBRANCH  31  33
ENDBRANCH   1  31
TORSDOF 12
ENDMDL
MODEL 3
REMARK VINA RESULT: -7.671241946      1.309      7.249
REMARK  12 active torsions:
REMARK  status: ('A' for Active; 'I' for Inactive)
REMARK    1  A    between atoms: C2_2  and  C3_3 
REMARK    2  A    between atoms: C3_3  and  N1_4 
REMARK    3  A    between atoms: N1_4  and  C4_6 
REMARK    4  A    between atoms: C5_9  and  N3_10 
REMARK    5  A    between atoms: N3_10  and  C6_12 
REMARK    6  A    between atoms: C6_12  and  C7_13 
REMARK    7  A    between atoms: C7_13  and  C8_14 
REMARK    8  A    between atoms: C8_14  and  C9_15 
REMARK    9  A    between atoms: C9_15  and  N4_16 
REMARK   10  A    between atoms: C10_22  and  N6_23 
REMARK   11  A    between atoms: N6_23  and  C11_25 
REMARK   12  A    between atoms: C11_25  and  C12_26 
ROOT
HETATM    1  C4  UNL     1      -8.084  -7.562  -9.774  1.00  0.00     0.707 A 
HETATM    2  N2  UNL     1      -9.048  -7.875  -8.890  1.00  0.00    -0.022 N 
ATOM      3  H2  UNL     1      -9.915  -8.285  -9.240  1.00  0.00     0.203 HD
HETATM    4  C5  UNL     1      -8.922  -7.674  -7.571  1.00  0.00     0.707 A 
HETATM    5  N5  UNL     1      -7.766  -7.134  -7.148  1.00  0.00    -0.022 N 
ATOM      6  H5  UNL     1      -7.624  -6.962  -6.152  1.00  0.00     0.203 HD
HETATM    7  C10 UNL     1      -6.791  -6.815  -8.026  1.00  0.00     0.707 A 
HETATM    8  N10 UNL     1      -6.928  -7.022  -9.352  1.00  0.00    -0.022 N 
ATOM      9  H10 UNL     1      -6.185  -6.778 -10.007  1.00  0.00     0.203 HD
ENDROOT
BRANCH   7  10
HETATM   10  N6  UNL     1      -5.671  -6.293  -7.626  1.00  0.00    -0.218 N 
ATOM     11  H6  UNL     1      -5.603  -5.827  -6.721  1.00  0.00     0.178 HD
BRANCH  10  12
HETATM   12  C11 UNL     1      -4.521  -6.391  -8.500  1.00  0.00     0.216 C 
BRANCH  12  13
HETATM   13  C12 UNL     1      -3.312  -6.107  -7.696  1.00  0.00     0.115 A 
HETATM   14  N7  UNL     1      -2.422  -5.144  -7.934  1.00  0.00    -0.338 N 
HETATM   15  C13 UNL     1      -1.478  -5.222  -6.976  1.00  0.00     0.201 A 
ATOM     16  H7  UNL     1      -2.450  -4.471  -8.702  1.00  0.00     0.168 HD
HETATM   17  N8  UNL     1      -1.812  -6.243  -6.158  1.00  0.00    -0.291 N 
HETATM   18  C14 UNL     1      -1.114  -6.724  -4.983  1.00  0.00     0.178 C 
HETATM   19  N9  UNL     1      -2.948  -6.795  -6.600  1.00  0.00    -0.285 N 
ATOM     20  H9  UNL     1      -3.442  -7.585  -6.185  1.00  0.00     0.188 HD
ENDBRANCH  12  13
ENDBRANCH  10  12
ENDBRANCH   7  10
BRANCH   4  21
HETATM   21  N3  UNL     1      -9.867  -7.984  -6.733  1.00  0.00    -0.225 N 
ATOM     22  H3  UNL     1      -9.809  -7.690  -5.758  1.00  0.00     0.177 HD
BRANCH  21  23
HETATM   23  C6  UNL     1     -11.025  -8.766  -7.210  1.00  0.00     0.138 C 
BRANCH  23  24
HETATM   24  C7  UNL     1     -10.830 -10.221  -6.947  1.00  0.00     0.022 C 
BRANCH  24  25
HETATM   25  C8  UNL     1     -11.568 -11.052  -7.956  1.00  0.00     0.029 C 
BRANCH  25  26
HETATM   26  C9  UNL     1     -12.530 -11.970  -7.262  1.00  0.00     0.229 C 
BRANCH  26  27
HETATM   27  N4  UNL     1     -12.329 -11.931  -5.823  1.00  0.00    -0.079 N 
ATOM     28  H43 UNL     1     -11.821 -12.750  -5.489  1.00  0.00     0.274 HD
ATOM     29  H42 UNL     1     -11.655 -11.214  -5.555  1.00  0.00     0.274 HD
ATOM     30  H41 UNL     1     -13.219 -11.813  -5.339  1.00  0.00     0.274 HD
ENDBRANCH  26  27
ENDBRANCH  25  26
ENDBRANCH  24  25
ENDBRANCH  23  24
ENDBRANCH  21  23
ENDBRANCH   4  21
BRANCH   1  31
HETATM   31  N1  UNL     1      -8.201  -7.753 -11.044  1.00  0.00    -0.225 N 
ATOM     32  H1  UNL     1      -7.350  -7.885 -11.590  1.00  0.00     0.177 HD
BRANCH  31  33
HETATM   33  C3  UNL     1      -9.462  -7.791 -11.735  1.00  0.00     0.137 C 
BRANCH  33  34
HETATM   34  C2  UNL     1     -10.272  -9.017 -11.388  1.00  0.00     0.016 C 
HETATM   35  C1  UNL     1     -11.646  -8.665 -10.882  1.00  0.00     0.006 C 
ENDBRANCH  33  34
ENDBRANCH  31  33
ENDBRANCH   1  31
TORSDOF 12
ENDMDL
MODEL 4
REMARK VINA RESULT: -7.660263977      1.644      7.292
REMARK  12 active torsions:
REMARK  status: ('A' for Active; 'I' for Inactive)
REMARK    1  A    between atoms: C2_2  and  C3_3 
REMARK    2  A    between atoms: C3_3  and  N1_4 
REMARK    3  A    between atoms: N1_4  and  C4_6 
REMARK    4  A    between atoms: C5_9  and  N3_10 
REMARK    5  A    between atoms: N3_10  and  C6_12 
REMARK    6  A    between atoms: C6_12  and  C7_13 
REMARK    7  A    between atoms: C7_13  and  C8_14 
REMARK    8  A    between atoms: C8_14  and  C9_15 
REMARK    9  A    between atoms: C9_15  and  N4_16 
REMARK   10  A    between atoms: C10_22  and  N6_23 
REMARK   11  A    between atoms: N6_23  and  C11_25 
REMARK   12  A    between atoms: C11_25  and  C12_26 
ROOT
HETATM    1  C4  UNL     1      -8.702  -7.465  -7.671  1.00  0.00     0.707 A 
HETATM    2  N2  UNL     1      -8.954  -7.489  -8.993  1.00  0.00    -0.022 N 
ATOM      3  H2  UNL     1      -9.920  -7.601  -9.303  1.00  0.00     0.203 HD
HETATM    4  C5  UNL     1      -7.994  -7.371  -9.921  1.00  0.00     0.707 A 
HETATM    5  N5  UNL     1      -6.734  -7.224  -9.475  1.00  0.00    -0.022 N 
ATOM      6  H5  UNL     1      -5.970  -7.130 -10.144  1.00  0.00     0.203 HD
HETATM    7  C10 UNL     1      -6.470  -7.199  -8.151  1.00  0.00     0.707 A 
HETATM    8  N10 UNL     1      -7.443  -7.318  -7.225  1.00  0.00    -0.022 N 
ATOM      9  H10 UNL     1      -7.232  -7.297  -6.227  1.00  0.00     0.203 HD
ENDROOT
BRANCH   7  10
HETATM   10  N6  UNL     1      -5.255  -7.057  -7.712  1.00  0.00    -0.218 N 
ATOM     11  H6  UNL     1      -4.865  -7.705  -7.028  1.00  0.00     0.178 HD
BRANCH  10  12
HETATM   12  C11 UNL     1      -4.471  -5.951  -8.221  1.00  0.00     0.216 C 
BRANCH  12  13
HETATM   13  C12 UNL     1      -3.734  -5.355  -7.085  1.00  0.00     0.115 A 
HETATM   14  N7  UNL     1      -2.580  -4.693  -7.160  1.00  0.00    -0.338 N 
HETATM   15  C13 UNL     1      -2.248  -4.317  -5.910  1.00  0.00     0.201 A 
ATOM     16  H7  UNL     1      -2.046  -4.506  -8.009  1.00  0.00     0.168 HD
HETATM   17  N8  UNL     1      -3.218  -4.761  -5.080  1.00  0.00    -0.291 N 
HETATM   18  C14 UNL     1      -3.316  -4.608  -3.644  1.00  0.00     0.178 C 
HETATM   19  N9  UNL     1      -4.141  -5.405  -5.804  1.00  0.00    -0.285 N 
ATOM     20  H9  UNL     1      -4.989  -5.847  -5.451  1.00  0.00     0.188 HD
ENDBRANCH  12  13
ENDBRANCH  10  12
ENDBRANCH   7  10
BRANCH   4  21
HETATM   21  N3  UNL     1      -8.259  -7.397 -11.194  1.00  0.00    -0.225 N 
ATOM     22  H3  UNL     1      -7.565  -7.083 -11.872  1.00  0.00     0.177 HD
BRANCH  21  23
HETATM   23  C6  UNL     1      -9.577  -7.887 -11.645  1.00  0.00     0.138 C 
BRANCH  23  24
HETATM   24  C7  UNL     1      -9.728  -9.345 -11.365  1.00  0.00     0.022 C 
BRANCH  24  25
HETATM   25  C8  UNL     1     -10.989  -9.615 -10.596  1.00  0.00     0.029 C 
BRANCH  25  26
HETATM   26  C9  UNL     1     -11.913  -8.438 -10.695  1.00  0.00     0.229 C 
BRANCH  26  27
HETATM   27  N4  UNL     1     -12.678  -8.281  -9.470  1.00  0.00    -0.079 N 
ATOM     28  H43 UNL     1     -12.562  -9.080  -8.845  1.00  0.00     0.274 HD
ATOM     29  H42 UNL     1     -12.284  -7.558  -8.868  1.00  0.00     0.274 HD
ATOM     30  H41 UNL     1     -13.661  -8.104  -9.679  1.00  0.00     0.274 HD
ENDBRANCH  26  27
ENDBRANCH  25  26
ENDBRANCH  24  25
ENDBRANCH  23  24
ENDBRANCH  21  23
ENDBRANCH   4  21
BRANCH   1  31
HETATM   31  N1  UNL     1      -9.622  -7.578  -6.776  1.00  0.00    -0.225 N 
ATOM     32  H1  UNL     1      -9.576  -6.967  -5.961  1.00  0.00     0.177 HD
BRANCH  31  33
HETATM   33  C3  UNL     1     -10.709  -8.516  -6.858  1.00  0.00     0.137 C 
BRANCH  33  34
HETATM   34  C2  UNL     1     -10.231  -9.940  -7.019  1.00  0.00     0.016 C 
HETATM   35  C1  UNL     1     -11.374 -10.911  -7.150  1.00  0.00     0.006 C 
ENDBRANCH  33  34
ENDBRANCH  31  33
ENDBRANCH   1  31
TORSDOF 12
ENDMDL
MODEL 5
REMARK VINA RESULT: -7.379837882      3.418      7.296
REMARK  12 active torsions:
REMARK  status: ('A' for Active; 'I' for Inactive)
REMARK    1  A    between atoms: C2_2  and  C3_3 
REMARK    2  A    between atoms: C3_3  and  N1_4 
REMARK    3  A    between atoms: N1_4  and  C4_6 
REMARK    4  A    between atoms: C5_9  and  N3_10 
REMARK    5  A    between atoms: N3_10  and  C6_12 
REMARK    6  A    between atoms: C6_12  and  C7_13 
REMARK    7  A    between atoms: C7_13  and  C8_14 
REMARK    8  A    between atoms: C8_14  and  C9_15 
REMARK    9  A    between atoms: C9_15  and  N4_16 
REMARK   10  A    between atoms: C10_22  and  N6_23 
REMARK   11  A    between atoms: N6_23  and  C11_25 
REMARK   12  A    between atoms: C11_25  and  C12_26 
ROOT
HETATM    1  C4  UNL     1      -1.714  -6.297  -5.201  1.00  0.00     0.707 A 
HETATM    2  N2  UNL     1      -1.411  -4.998  -5.022  1.00  0.00    -0.022 N 
ATOM      3  H2  UNL     1      -0.629  -4.760  -4.412  1.00  0.00     0.203 HD
HETATM    4  C5  UNL     1      -2.090  -4.003  -5.610  1.00  0.00     0.707 A 
HETATM    5  N5  UNL     1      -3.113  -4.356  -6.408  1.00  0.00    -0.022 N 
ATOM      6  H5  UNL     1      -3.659  -3.633  -6.877  1.00  0.00     0.203 HD
HETATM    7  C10 UNL     1      -3.426  -5.656  -6.594  1.00  0.00     0.707 A 
HETATM    8  N10 UNL     1      -2.737  -6.650  -5.998  1.00  0.00    -0.022 N 
ATOM      9  H10 UNL     1      -2.981  -7.630  -6.146  1.00  0.00     0.203 HD
ENDROOT
BRANCH   7  10
HETATM   10  N6  UNL     1      -4.414  -6.006  -7.363  1.00  0.00    -0.218 N 
ATOM     11  H6  UNL     1      -4.350  -5.907  -8.377  1.00  0.00     0.178 HD
BRANCH  10  12
HETATM   12  C11 UNL     1      -5.607  -6.539  -6.741  1.00  0.00     0.216 C 
BRANCH  12  13
HETATM   13  C12 UNL     1      -6.579  -6.848  -7.812  1.00  0.00     0.115 A 
HETATM   14  N7  UNL     1      -6.363  -6.734  -9.123  1.00  0.00    -0.338 N 
HETATM   15  C13 UNL     1      -7.493  -7.110  -9.752  1.00  0.00     0.201 A 
ATOM     16  H7  UNL     1      -5.501  -6.418  -9.568  1.00  0.00     0.168 HD
HETATM   17  N8  UNL     1      -8.393  -7.453  -8.803  1.00  0.00    -0.291 N 
HETATM   18  C14 UNL     1      -9.751  -7.923  -8.976  1.00  0.00     0.178 C 
HETATM   19  N9  UNL     1      -7.830  -7.292  -7.600  1.00  0.00    -0.285 N 
ATOM     20  H9  UNL     1      -8.267  -7.472  -6.696  1.00  0.00     0.188 HD
ENDBRANCH  12  13
ENDBRANCH  10  12
ENDBRANCH   7  10
BRANCH   4  21
HETATM   21  N3  UNL     1      -1.781  -2.754  -5.424  1.00  0.00    -0.225 N 
ATOM     22  H3  UNL     1      -1.552  -2.155  -6.217  1.00  0.00     0.177 HD
BRANCH  21  23
HETATM   23  C6  UNL     1      -1.767  -2.213  -4.050  1.00  0.00     0.138 C 
BRANCH  23  24
HETATM   24  C7  UNL     1      -0.968  -0.955  -3.980  1.00  0.00     0.022 C 
BRANCH  24  25
HETATM   25  C8  UNL     1      -1.865   0.242  -3.841  1.00  0.00     0.029 C 
BRANCH  25  26
HETATM   26  C9  UNL     1      -1.174   1.465  -4.367  1.00  0.00     0.229 C 
BRANCH  26  27
HETATM   27  N4  UNL     1      -2.081   2.600  -4.381  1.00  0.00    -0.079 N 
ATOM     28  H43 UNL     1      -3.020   2.331  -4.676  1.00  0.00     0.274 HD
ATOM     29  H42 UNL     1      -2.303   2.918  -3.438  1.00  0.00     0.274 HD
ATOM     30  H41 UNL     1      -1.705   3.354  -4.956  1.00  0.00     0.274 HD
ENDBRANCH  26  27
ENDBRANCH  25  26
ENDBRANCH  24  25
ENDBRANCH  23  24
ENDBRANCH  21  23
ENDBRANCH   4  21
BRANCH   1  31
HETATM   31  N1  UNL     1      -1.064  -7.257  -4.637  1.00  0.00    -0.225 N 
ATOM     32  H1  UNL     1      -0.296  -7.685  -5.154  1.00  0.00     0.177 HD
BRANCH  31  33
HETATM   33  C3  UNL     1      -1.358  -7.760  -3.322  1.00  0.00     0.137 C 
BRANCH  33  34
HETATM   34  C2  UNL     1      -2.265  -8.967  -3.358  1.00  0.00     0.016 C 
HETATM   35  C1  UNL     1      -1.805  -9.993  -4.359  1.00  0.00     0.006 C 
ENDBRANCH  33  34
ENDBRANCH  31  33
ENDBRANCH   1  31
TORSDOF 12
ENDMDL
