MODEL 1
REMARK VINA RESULT: -6.847709223      0.000      0.000
REMARK  10 active torsions:
REMARK  status: ('A' for Active; 'I' for Inactive)
REMARK    1  A    between atoms: C4_4  and  O1_5 
REMARK    2  A    between atoms: C5_7  and  O2_8 
REMARK    3  A    between atoms: C6_10  and  O3_11 
REMARK    4  A    between atoms: C7_13  and  O4_14 
REMARK    5  A    between atoms: N1_17  and  C9_18 
REMARK    6  A    between atoms: C9_18  and  C10_19 
REMARK    7  A    between atoms: C10_19  and  C11_20 
REMARK    8  A    between atoms: C11_20  and  C12_21 
REMARK    9  A    between atoms: C12_21  and  C13_22 
REMARK   10  A    between atoms: C13_22  and  C14_23 
ROOT
HETATM    1  C1  UNL     1      -2.223 -10.133  -4.685  1.00  0.00     0.014 C 
HETATM    2  C2  UNL     1      -2.507  -8.957  -4.738  1.00  0.00    -0.089 C 
HETATM    3  C3  UNL     1      -2.834  -7.534  -4.780  1.00  0.00     0.193 C 
HETATM    4  C4  UNL     1      -1.721  -6.800  -4.080  1.00  0.00     0.184 C 
HETATM    5  C5  UNL     1      -1.886  -5.324  -4.002  1.00  0.00     0.181 C 
HETATM    6  C6  UNL     1      -2.231  -4.651  -5.287  1.00  0.00     0.179 C 
HETATM    7  C7  UNL     1      -1.581  -5.253  -6.492  1.00  0.00     0.167 C 
HETATM    8  C8  UNL     1      -2.103  -6.594  -6.884  1.00  0.00     0.157 C 
HETATM    9  N1  UNL     1      -3.146  -7.089  -6.060  1.00  0.00    -0.373 N 
ENDROOT
BRANCH   4  10
HETATM   10  O1  UNL     1      -0.489  -7.168  -4.595  1.00  0.00    -0.390 OA
ATOM     11  H1  UNL     1      -0.541  -7.295  -5.535  1.00  0.00     0.210 HD
ENDBRANCH   4  10
BRANCH   9  12
HETATM   12  C9  UNL     1      -4.406  -7.266  -6.614  1.00  0.00     0.059 C 
BRANCH  12  13
HETATM   13  C10 UNL     1      -4.697  -6.792  -7.985  1.00  0.00     0.044 C 
BRANCH  13  14
HETATM   14  C11 UNL     1      -6.122  -6.881  -8.417  1.00  0.00     0.005 C 
BRANCH  14  15
HETATM   15  C12 UNL     1      -6.263  -7.140  -9.898  1.00  0.00     0.000 C 
BRANCH  15  16
HETATM   16  C13 UNL     1      -7.718  -7.347 -10.268  1.00  0.00    -0.000 C 
BRANCH  16  17
HETATM   17  C14 UNL     1      -7.982  -8.779 -10.674  1.00  0.00    -0.005 C 
HETATM   18  C15 UNL     1      -9.330  -8.988 -11.311  1.00  0.00     0.005 C 
ENDBRANCH  16  17
ENDBRANCH  15  16
ENDBRANCH  14  15
ENDBRANCH  13  14
ENDBRANCH  12  13
ENDBRANCH   9  12
BRANCH   5  19
HETATM   19  O2  UNL     1      -2.781  -5.021  -3.001  1.00  0.00    -0.390 OA
ATOM     20  H2  UNL     1      -2.465  -4.267  -2.518  1.00  0.00     0.210 HD
ENDBRANCH   5  19
BRANCH   6  21
HETATM   21  O3  UNL     1      -3.598  -4.479  -5.438  1.00  0.00    -0.390 OA
ATOM     22  H3  UNL     1      -3.923  -4.872  -6.239  1.00  0.00     0.210 HD
ENDBRANCH   6  21
BRANCH   7  23
HETATM   23  O4  UNL     1      -1.744  -4.344  -7.567  1.00  0.00    -0.391 OA
ATOM     24  H4  UNL     1      -2.631  -4.007  -7.528  1.00  0.00     0.210 HD
ENDBRANCH   7  23
TORSDOF 10
ENDMDL
MODEL 2
REMARK VINA RESULT: -6.397672221      4.850      8.697
REMARK  10 active torsions:
REMARK  status: ('A' for Active; 'I' for Inactive)
REMARK    1  A    between atoms: C4_4  and  O1_5 
REMARK    2  A    between atoms: C5_7  and  O2_8 
REMARK    3  A    between atoms: C6_10  and  O3_11 
REMARK    4  A    between atoms: C7_13  and  O4_14 
REMARK    5  A    between atoms: N1_17  and  C9_18 
REMARK    6  A    between atoms: C9_18  and  C10_19 
REMARK    7  A    between atoms: C10_19  and  C11_20 
REMARK    8  A    between atoms: C11_20  and  C12_21 
REMARK    9  A    between atoms: C12_21  and  C13_22 
REMARK   10  A    between atoms: C13_22  and  C14_23 
ROOT
HETATM    1  C1  UNL     1       1.000  -2.404  -1.251  1.00  0.00     0.014 C 
HETATM    2  C2  UNL     1       0.394  -2.716  -2.252  1.00  0.00    -0.089 C 
HETATM    3  C3  UNL     1      -0.324  -3.118  -3.459  1.00  0.00     0.193 C 
HETATM    4  C4  UNL     1      -0.435  -4.620  -3.432  1.00  0.00     0.184 C 
HETATM    5  C5  UNL     1      -1.126  -5.224  -4.603  1.00  0.00     0.181 C 
HETATM    6  C6  UNL     1      -2.436  -4.608  -4.960  1.00  0.00     0.179 C 
HETATM    7  C7  UNL     1      -3.244  -4.154  -3.785  1.00  0.00     0.167 C 
HETATM    8  C8  UNL     1      -2.706  -2.956  -3.078  1.00  0.00     0.157 C 
HETATM    9  N1  UNL     1      -1.515  -2.423  -3.635  1.00  0.00    -0.373 N 
ENDROOT
BRANCH   4  10
HETATM   10  O1  UNL     1      -0.959  -5.053  -2.226  1.00  0.00    -0.390 OA
ATOM     11  H1  UNL     1      -0.277  -5.419  -1.674  1.00  0.00     0.210 HD
ENDBRANCH   4  10
BRANCH   9  12
HETATM   12  C9  UNL     1      -1.551  -1.151  -4.189  1.00  0.00     0.059 C 
BRANCH  12  13
HETATM   13  C10 UNL     1      -2.215  -0.038  -3.475  1.00  0.00     0.044 C 
BRANCH  13  14
HETATM   14  C11 UNL     1      -1.363   1.151  -3.185  1.00  0.00     0.005 C 
BRANCH  14  15
HETATM   15  C12 UNL     1      -0.427   0.924  -2.023  1.00  0.00     0.000 C 
BRANCH  15  16
HETATM   16  C13 UNL     1       0.936   1.521  -2.309  1.00  0.00    -0.000 C 
BRANCH  16  17
HETATM   17  C14 UNL     1       0.824   2.973  -2.719  1.00  0.00    -0.005 C 
HETATM   18  C15 UNL     1       1.760   3.360  -3.832  1.00  0.00     0.005 C 
ENDBRANCH  16  17
ENDBRANCH  15  16
ENDBRANCH  14  15
ENDBRANCH  13  14
ENDBRANCH  12  13
ENDBRANCH   9  12
BRANCH   5  19
HETATM   19  O2  UNL     1      -0.260  -5.258  -5.672  1.00  0.00    -0.390 OA
ATOM     20  H2  UNL     1      -0.218  -6.143  -6.013  1.00  0.00     0.210 HD
ENDBRANCH   5  19
BRANCH   6  21
HETATM   21  O3  UNL     1      -2.308  -3.635  -5.938  1.00  0.00    -0.390 OA
ATOM     22  H3  UNL     1      -2.968  -2.956  -5.858  1.00  0.00     0.210 HD
ENDBRANCH   6  21
BRANCH   7  23
HETATM   23  O4  UNL     1      -4.558  -3.888  -4.245  1.00  0.00    -0.391 OA
ATOM     24  H4  UNL     1      -5.150  -4.466  -3.779  1.00  0.00     0.210 HD
ENDBRANCH   7  23
TORSDOF 10
ENDMDL
MODEL 3
REMARK VINA RESULT: -6.206432070      4.836      8.687
REMARK  10 active torsions:
REMARK  status: ('A' for Active; 'I' for Inactive)
REMARK    1  A    between atoms: C4_4  and  O1_5 
REMARK    2  A    between atoms: C5_7  and  O2_8 
REMARK    3  A    between atoms: C6_10  and  O3_11 
REMARK    4  A    between atoms: C7_13  and  O4_14 
REMARK    5  A    between atoms: N1_17  and  C9_18 
REMARK    6  A    between atoms: C9_18  and  C10_19 
REMARK    7  A    between atoms: C10_19  and  C11_20 
REMARK    8  A    between atoms: C11_20  and  C12_21 
REMARK    9  A    between atoms: C12_21  and  C13_22 
REMARK   10  A    between atoms: C13_22  and  C14_23 
ROOT
HETATM    1  C1  UNL     1       0.708  -3.130  -0.683  1.00  0.00     0.014 C 
HETATM    2  C2  UNL     1       0.202  -3.260  -1.775  1.00  0.00    -0.089 C 
HETATM    3  C3  UNL     1      -0.396  -3.441  -3.095  1.00  0.00     0.193 C 
HETATM    4  C4  UNL     1      -0.549  -4.923  -3.315  1.00  0.00     0.184 C 
HETATM    5  C5  UNL     1      -1.130  -5.312  -4.628  1.00  0.00     0.181 C 
HETATM    6  C6  UNL     1      -2.378  -4.593  -5.012  1.00  0.00     0.179 C 
HETATM    7  C7  UNL     1      -3.293  -4.290  -3.868  1.00  0.00     0.167 C 
HETATM    8  C8  UNL     1      -2.800  -3.238  -2.932  1.00  0.00     0.157 C 
HETATM    9  N1  UNL     1      -1.544  -2.677  -3.277  1.00  0.00    -0.373 N 
ENDROOT
BRANCH   4  10
HETATM   10  O1  UNL     1      -1.208  -5.513  -2.250  1.00  0.00    -0.390 OA
ATOM     11  H1  UNL     1      -2.122  -5.665  -2.460  1.00  0.00     0.210 HD
ENDBRANCH   4  10
BRANCH   9  12
HETATM   12  C9  UNL     1      -1.487  -1.335  -3.627  1.00  0.00     0.059 C 
BRANCH  12  13
HETATM   13  C10 UNL     1      -1.773  -0.285  -2.625  1.00  0.00     0.044 C 
BRANCH  13  14
HETATM   14  C11 UNL     1      -0.651   0.647  -2.318  1.00  0.00     0.005 C 
BRANCH  14  15
HETATM   15  C12 UNL     1      -0.129   0.484  -0.911  1.00  0.00     0.000 C 
BRANCH  15  16
HETATM   16  C13 UNL     1       1.367   0.718  -0.864  1.00  0.00    -0.000 C 
BRANCH  16  17
HETATM   17  C14 UNL     1       2.055   0.116  -2.068  1.00  0.00    -0.005 C 
HETATM   18  C15 UNL     1       3.305  -0.650  -1.729  1.00  0.00     0.005 C 
ENDBRANCH  16  17
ENDBRANCH  15  16
ENDBRANCH  14  15
ENDBRANCH  13  14
ENDBRANCH  12  13
ENDBRANCH   9  12
BRANCH   5  19
HETATM   19  O2  UNL     1      -0.159  -5.218  -5.598  1.00  0.00    -0.390 OA
ATOM     20  H2  UNL     1      -0.074  -4.311  -5.869  1.00  0.00     0.210 HD
ENDBRANCH   5  19
BRANCH   6  21
HETATM   21  O3  UNL     1      -2.123  -3.488  -5.809  1.00  0.00    -0.390 OA
ATOM     22  H3  UNL     1      -2.005  -3.724  -6.722  1.00  0.00     0.210 HD
ENDBRANCH   6  21
BRANCH   7  23
HETATM   23  O4  UNL     1      -4.543  -3.900  -4.408  1.00  0.00    -0.391 OA
ATOM     24  H4  UNL     1      -4.374  -3.292  -5.119  1.00  0.00     0.210 HD
ENDBRANCH   7  23
TORSDOF 10
ENDMDL
MODEL 4
REMARK VINA RESULT: -6.161467711      5.871      9.267
REMARK  10 active torsions:
REMARK  status: ('A' for Active; 'I' for Inactive)
REMARK    1  A    between atoms: C4_4  and  O1_5 
REMARK    2  A    between atoms: C5_7  and  O2_8 
REMARK    3  A    between atoms: C6_10  and  O3_11 
REMARK    4  A    between atoms: C7_13  and  O4_14 
REMARK    5  A    between atoms: N1_17  and  C9_18 
REMARK    6  A    between atoms: C9_18  and  C10_19 
REMARK    7  A    between atoms: C10_19  and  C11_20 
REMARK    8  A    between atoms: C11_20  and  C12_21 
REMARK    9  A    between atoms: C12_21  and  C13_22 
REMARK   10  A    between atoms: C13_22  and  C14_23 
ROOT
HETATM    1  C1  UNL     1      -7.542  -8.922 -11.309  1.00  0.00     0.014 C 
HETATM    2  C2  UNL     1      -8.644  -8.740 -10.841  1.00  0.00    -0.089 C 
HETATM    3  C3  UNL     1      -9.984  -8.524 -10.302  1.00  0.00     0.193 C 
HETATM    4  C4  UNL     1     -10.947  -9.262 -11.194  1.00  0.00     0.184 C 
HETATM    5  C5  UNL     1     -12.381  -9.143 -10.815  1.00  0.00     0.181 C 
HETATM    6  C6  UNL     1     -12.685  -9.411  -9.380  1.00  0.00     0.179 C 
HETATM    7  C7  UNL     1     -11.850 -10.488  -8.762  1.00  0.00     0.167 C 
HETATM    8  C8  UNL     1     -10.420 -10.125  -8.543  1.00  0.00     0.157 C 
HETATM    9  N1  UNL     1     -10.073  -8.810  -8.944  1.00  0.00    -0.373 N 
ENDROOT
BRANCH   4  10
HETATM   10  O1  UNL     1     -10.552 -10.578 -11.363  1.00  0.00    -0.390 OA
ATOM     11  H1  UNL     1     -11.141 -11.169 -10.908  1.00  0.00     0.210 HD
ENDBRANCH   4  10
BRANCH   9  12
HETATM   12  C9  UNL     1      -9.674  -7.902  -7.973  1.00  0.00     0.059 C 
BRANCH  12  13
HETATM   13  C10 UNL     1      -8.259  -7.830  -7.547  1.00  0.00     0.044 C 
BRANCH  13  14
HETATM   14  C11 UNL     1      -7.405  -6.853  -8.281  1.00  0.00     0.005 C 
BRANCH  14  15
HETATM   15  C12 UNL     1      -5.953  -6.933  -7.876  1.00  0.00     0.000 C 
BRANCH  15  16
HETATM   16  C13 UNL     1      -5.050  -6.774  -9.082  1.00  0.00    -0.000 C 
BRANCH  16  17
HETATM   17  C14 UNL     1      -3.601  -7.005  -8.718  1.00  0.00    -0.005 C 
HETATM   18  C15 UNL     1      -3.303  -6.789  -7.259  1.00  0.00     0.005 C 
ENDBRANCH  16  17
ENDBRANCH  15  16
ENDBRANCH  14  15
ENDBRANCH  13  14
ENDBRANCH  12  13
ENDBRANCH   9  12
BRANCH   5  19
HETATM   19  O2  UNL     1     -12.859  -7.921 -11.227  1.00  0.00    -0.390 OA
ATOM     20  H2  UNL     1     -13.173  -7.437 -10.471  1.00  0.00     0.210 HD
ENDBRANCH   5  19
BRANCH   6  21
HETATM   21  O3  UNL     1     -12.716  -8.249  -8.625  1.00  0.00    -0.390 OA
ATOM     22  H3  UNL     1     -11.888  -7.784  -8.648  1.00  0.00     0.210 HD
ENDBRANCH   6  21
BRANCH   7  23
HETATM   23  O4  UNL     1     -12.448 -10.840  -7.527  1.00  0.00    -0.391 OA
ATOM     24  H4  UNL     1     -12.252 -11.755  -7.362  1.00  0.00     0.210 HD
ENDBRANCH   7  23
TORSDOF 10
ENDMDL
MODEL 5
REMARK VINA RESULT: -6.149445412      3.759      4.843
REMARK  10 active torsions:
REMARK  status: ('A' for Active; 'I' for Inactive)
REMARK    1  A    between atoms: C4_4  and  O1_5 
REMARK    2  A    between atoms: C5_7  and  O2_8 
REMARK    3  A    between atoms: C6_10  and  O3_11 
REMARK    4  A    between atoms: C7_13  and  O4_14 
REMARK    5  A    between atoms: N1_17  and  C9_18 
REMARK    6  A    between atoms: C9_18  and  C10_19 
REMARK    7  A    between atoms: C10_19  and  C11_20 
REMARK    8  A    between atoms: C11_20  and  C12_21 
REMARK    9  A    between atoms: C12_21  and  C13_22 
REMARK   10  A    between atoms: C13_22  and  C14_23 
ROOT
HETATM    1  C1  UNL     1      -0.313  -6.750  -2.039  1.00  0.00     0.014 C 
HETATM    2  C2  UNL     1      -1.151  -6.400  -2.839  1.00  0.00    -0.089 C 
HETATM    3  C3  UNL     1      -2.162  -5.952  -3.793  1.00  0.00     0.193 C 
HETATM    4  C4  UNL     1      -2.031  -4.457  -3.913  1.00  0.00     0.184 C 
HETATM    5  C5  UNL     1      -3.001  -3.807  -4.835  1.00  0.00     0.181 C 
HETATM    6  C6  UNL     1      -3.118  -4.434  -6.183  1.00  0.00     0.179 C 
HETATM    7  C7  UNL     1      -1.832  -4.966  -6.730  1.00  0.00     0.167 C 
HETATM    8  C8  UNL     1      -1.316  -6.187  -6.046  1.00  0.00     0.157 C 
HETATM    9  N1  UNL     1      -2.131  -6.664  -4.987  1.00  0.00    -0.373 N 
ENDROOT
BRANCH   4  10
HETATM   10  O1  UNL     1      -0.721  -4.098  -4.185  1.00  0.00    -0.390 OA
ATOM     11  H1  UNL     1      -0.549  -3.208  -3.903  1.00  0.00     0.210 HD
ENDBRANCH   4  10
BRANCH   9  12
HETATM   12  C9  UNL     1      -2.736  -7.905  -5.121  1.00  0.00     0.059 C 
BRANCH  12  13
HETATM   13  C10 UNL     1      -2.034  -9.135  -4.691  1.00  0.00     0.044 C 
BRANCH  13  14
HETATM   14  C11 UNL     1      -2.739  -9.967  -3.674  1.00  0.00     0.005 C 
BRANCH  14  15
HETATM   15  C12 UNL     1      -2.709 -11.439  -4.008  1.00  0.00     0.000 C 
BRANCH  15  16
HETATM   16  C13 UNL     1      -1.665 -11.726  -5.069  1.00  0.00    -0.000 C 
BRANCH  16  17
HETATM   17  C14 UNL     1      -2.051 -12.923  -5.908  1.00  0.00    -0.005 C 
HETATM   18  C15 UNL     1      -1.159 -13.137  -7.101  1.00  0.00     0.005 C 
ENDBRANCH  16  17
ENDBRANCH  15  16
ENDBRANCH  14  15
ENDBRANCH  13  14
ENDBRANCH  12  13
ENDBRANCH   9  12
BRANCH   5  19
HETATM   19  O2  UNL     1      -4.220  -3.699  -4.206  1.00  0.00    -0.390 OA
ATOM     20  H2  UNL     1      -4.547  -2.813  -4.309  1.00  0.00     0.210 HD
ENDBRANCH   5  19
BRANCH   6  21
HETATM   21  O3  UNL     1      -4.155  -5.351  -6.247  1.00  0.00    -0.390 OA
ATOM     22  H3  UNL     1      -4.680  -5.247  -7.032  1.00  0.00     0.210 HD
ENDBRANCH   6  21
BRANCH   7  23
HETATM   23  O4  UNL     1      -2.030  -5.238  -8.107  1.00  0.00    -0.391 OA
ATOM     24  H4  UNL     1      -1.203  -5.091  -8.552  1.00  0.00     0.210 HD
ENDBRANCH   7  23
TORSDOF 10
ENDMDL
