MODEL 1
REMARK VINA RESULT: -6.758030519      0.000      0.000
REMARK  7 active torsions:
REMARK  status: ('A' for Active; 'I' for Inactive)
REMARK    1  A    between atoms: C1_2  and  N1_3 
REMARK    2  A    between atoms: N1_3  and  C2_5 
REMARK    3  A    between atoms: C5_9  and  C6_10 
REMARK    4  A    between atoms: C7_12  and  N2_13 
REMARK    5  A    between atoms: N2_13  and  C8_16 
REMARK    6  A    between atoms: C8_16  and  C9_17 
REMARK    7  A    between atoms: C12_20  and  O3_21 
ROOT
HETATM    1  C2  UNL     1     -12.156  -7.409 -19.211  1.00  0.00     0.138 C 
HETATM    2  C3  UNL     1     -13.588  -7.219 -19.634  1.00  0.00     0.194 C 
HETATM    3  O2  UNL     1     -13.991  -5.884 -19.590  1.00  0.00    -0.389 OA
HETATM    4  C4  UNL     1     -13.632  -5.424 -18.301  1.00  0.00     0.175 C 
HETATM    5  C5  UNL     1     -12.172  -5.031 -18.401  1.00  0.00     0.056 C 
HETATM    6  C7  UNL     1     -11.403  -6.101 -19.098  1.00  0.00     0.217 C 
ENDROOT
BRANCH   6   7
HETATM    7  N2  UNL     1     -10.159  -6.404 -18.389  1.00  0.00    -0.066 N 
ATOM      8  H22 UNL     1      -9.644  -7.157 -18.847  1.00  0.00     0.277 HD
ATOM      9  H21 UNL     1      -9.476  -5.654 -18.499  1.00  0.00     0.277 HD
BRANCH   7  10
HETATM   10  C8  UNL     1     -10.391  -6.699 -17.005  1.00  0.00     0.264 C 
BRANCH  10  11
HETATM   11  C9  UNL     1      -9.066  -6.643 -16.287  1.00  0.00     0.150 C 
HETATM   12  C10 UNL     1      -9.264  -6.714 -14.800  1.00  0.00     0.038 C 
HETATM   13  C11 UNL     1      -7.985  -7.401 -14.346  1.00  0.00     0.063 C 
HETATM   14  C12 UNL     1      -7.225  -7.559 -15.640  1.00  0.00     0.257 C 
HETATM   15  O4  UNL     1      -8.274  -7.758 -16.551  1.00  0.00    -0.355 OA
BRANCH  14  16
HETATM   16  O3  UNL     1      -6.568  -6.374 -15.974  1.00  0.00    -0.371 OA
ATOM     17  H3  UNL     1      -5.879  -6.538 -16.608  1.00  0.00     0.212 HD
ENDBRANCH  14  16
ENDBRANCH  10  11
ENDBRANCH   7  10
ENDBRANCH   6   7
BRANCH   1  18
HETATM   18  N1  UNL     1     -11.515  -8.251 -20.187  1.00  0.00    -0.359 N 
ATOM     19  H1  UNL     1     -10.667  -7.926 -20.650  1.00  0.00     0.162 HD
BRANCH  18  20
HETATM   20  C1  UNL     1     -12.044  -9.526 -20.517  1.00  0.00     0.348 C 
HETATM   21  O1  UNL     1     -11.358 -10.584 -20.418  1.00  0.00    -0.284 OA
ENDBRANCH  18  20
ENDBRANCH   1  18
BRANCH   5  22
HETATM   22  C6  UNL     1     -12.144  -3.706 -19.164  1.00  0.00     0.123 C 
HETATM   23 CL1  UNL     1     -11.391  -4.064 -20.744  1.00  0.00    -0.130 Cl
ENDBRANCH   5  22
TORSDOF 7
ENDMDL
MODEL 2
REMARK VINA RESULT: -6.734088632      4.006      7.382
REMARK  7 active torsions:
REMARK  status: ('A' for Active; 'I' for Inactive)
REMARK    1  A    between atoms: C1_2  and  N1_3 
REMARK    2  A    between atoms: N1_3  and  C2_5 
REMARK    3  A    between atoms: C5_9  and  C6_10 
REMARK    4  A    between atoms: C7_12  and  N2_13 
REMARK    5  A    between atoms: N2_13  and  C8_16 
REMARK    6  A    between atoms: C8_16  and  C9_17 
REMARK    7  A    between atoms: C12_20  and  O3_21 
ROOT
HETATM    1  C2  UNL     1      -4.090  -8.360 -16.657  1.00  0.00     0.138 C 
HETATM    2  C3  UNL     1      -3.110  -9.027 -15.728  1.00  0.00     0.194 C 
HETATM    3  O2  UNL     1      -3.672  -9.353 -14.494  1.00  0.00    -0.389 OA
HETATM    4  C4  UNL     1      -4.291  -8.166 -14.037  1.00  0.00     0.175 C 
HETATM    5  C5  UNL     1      -5.651  -8.131 -14.703  1.00  0.00     0.056 C 
HETATM    6  C7  UNL     1      -5.515  -8.438 -16.155  1.00  0.00     0.217 C 
ENDROOT
BRANCH   6   7
HETATM    7  N2  UNL     1      -6.288  -7.499 -16.968  1.00  0.00    -0.066 N 
ATOM      8  H22 UNL     1      -5.678  -6.870 -17.490  1.00  0.00     0.277 HD
ATOM      9  H21 UNL     1      -6.740  -7.971 -17.752  1.00  0.00     0.277 HD
BRANCH   7  10
HETATM   10  C8  UNL     1      -7.239  -6.769 -16.181  1.00  0.00     0.264 C 
BRANCH  10  11
HETATM   11  C9  UNL     1      -8.585  -6.884 -16.851  1.00  0.00     0.150 C 
HETATM   12  C10 UNL     1      -9.691  -6.642 -15.864  1.00  0.00     0.038 C 
HETATM   13  C11 UNL     1     -10.775  -6.044 -16.749  1.00  0.00     0.063 C 
HETATM   14  C12 UNL     1     -10.142  -6.097 -18.118  1.00  0.00     0.257 C 
HETATM   15  O4  UNL     1      -8.790  -5.887 -17.802  1.00  0.00    -0.355 OA
BRANCH  14  16
HETATM   16  O3  UNL     1     -10.273  -7.369 -18.675  1.00  0.00    -0.371 OA
ATOM     17  H3  UNL     1     -10.214  -7.330 -19.622  1.00  0.00     0.212 HD
ENDBRANCH  14  16
ENDBRANCH  10  11
ENDBRANCH   7  10
ENDBRANCH   6   7
BRANCH   1  18
HETATM   18  N1  UNL     1      -3.994  -9.008 -17.939  1.00  0.00    -0.359 N 
ATOM     19  H1  UNL     1      -4.176  -8.472 -18.787  1.00  0.00     0.162 HD
BRANCH  18  20
HETATM   20  C1  UNL     1      -3.652 -10.382 -18.043  1.00  0.00     0.348 C 
HETATM   21  O1  UNL     1      -3.735 -11.014 -19.136  1.00  0.00    -0.284 OA
ENDBRANCH  18  20
ENDBRANCH   1  18
BRANCH   5  22
HETATM   22  C6  UNL     1      -6.505  -9.165 -13.967  1.00  0.00     0.123 C 
HETATM   23 CL1  UNL     1      -7.932  -8.279 -13.357  1.00  0.00    -0.130 Cl
ENDBRANCH   5  22
TORSDOF 7
ENDMDL
MODEL 3
REMARK VINA RESULT: -6.707223037      2.903      4.584
REMARK  7 active torsions:
REMARK  status: ('A' for Active; 'I' for Inactive)
REMARK    1  A    between atoms: C1_2  and  N1_3 
REMARK    2  A    between atoms: N1_3  and  C2_5 
REMARK    3  A    between atoms: C5_9  and  C6_10 
REMARK    4  A    between atoms: C7_12  and  N2_13 
REMARK    5  A    between atoms: N2_13  and  C8_16 
REMARK    6  A    between atoms: C8_16  and  C9_17 
REMARK    7  A    between atoms: C12_20  and  O3_21 
ROOT
HETATM    1  C2  UNL     1     -12.494  -3.174 -20.315  1.00  0.00     0.138 C 
HETATM    2  C3  UNL     1     -13.197  -3.149 -21.646  1.00  0.00     0.194 C 
HETATM    3  O2  UNL     1     -13.688  -4.400 -22.019  1.00  0.00    -0.389 OA
HETATM    4  C4  UNL     1     -12.597  -5.290 -21.881  1.00  0.00     0.175 C 
HETATM    5  C5  UNL     1     -12.573  -5.682 -20.418  1.00  0.00     0.056 C 
HETATM    6  C7  UNL     1     -12.712  -4.469 -19.563  1.00  0.00     0.217 C 
ENDROOT
BRANCH   6   7
HETATM    7  N2  UNL     1     -11.739  -4.477 -18.470  1.00  0.00    -0.066 N 
ATOM      8  H22 UNL     1     -11.351  -3.548 -18.311  1.00  0.00     0.277 HD
ATOM      9  H21 UNL     1     -12.195  -4.617 -17.568  1.00  0.00     0.277 HD
BRANCH   7  10
HETATM   10  C8  UNL     1     -10.703  -5.446 -18.686  1.00  0.00     0.264 C 
BRANCH  10  11
HETATM   11  C9  UNL     1     -10.510  -6.216 -17.404  1.00  0.00     0.150 C 
HETATM   12  C10 UNL     1      -9.097  -6.712 -17.290  1.00  0.00     0.038 C 
HETATM   13  C11 UNL     1      -8.890  -6.727 -15.783  1.00  0.00     0.063 C 
HETATM   14  C12 UNL     1     -10.240  -6.295 -15.266  1.00  0.00     0.257 C 
HETATM   15  O4  UNL     1     -10.650  -5.410 -16.277  1.00  0.00    -0.355 OA
BRANCH  14  16
HETATM   16  O3  UNL     1     -11.126  -7.374 -15.238  1.00  0.00    -0.371 OA
ATOM     17  H3  UNL     1     -11.894  -7.193 -15.767  1.00  0.00     0.212 HD
ENDBRANCH  14  16
ENDBRANCH  10  11
ENDBRANCH   7  10
ENDBRANCH   6   7
BRANCH   1  18
HETATM   18  N1  UNL     1     -12.993  -2.073 -19.532  1.00  0.00    -0.359 N 
ATOM     19  H1  UNL     1     -13.378  -2.251 -18.605  1.00  0.00     0.162 HD
BRANCH  18  20
HETATM   20  C1  UNL     1     -12.958  -0.743 -20.028  1.00  0.00     0.348 C 
HETATM   21  O1  UNL     1     -11.904  -0.233 -20.507  1.00  0.00    -0.284 OA
ENDBRANCH  18  20
ENDBRANCH   1  18
BRANCH   5  22
HETATM   22  C6  UNL     1     -13.730  -6.664 -20.226  1.00  0.00     0.123 C 
HETATM   23 CL1  UNL     1     -12.983  -8.219 -19.759  1.00  0.00    -0.130 Cl
ENDBRANCH   5  22
TORSDOF 7
ENDMDL
MODEL 4
REMARK VINA RESULT: -6.697115830      2.416      3.980
REMARK  7 active torsions:
REMARK  status: ('A' for Active; 'I' for Inactive)
REMARK    1  A    between atoms: C1_2  and  N1_3 
REMARK    2  A    between atoms: N1_3  and  C2_5 
REMARK    3  A    between atoms: C5_9  and  C6_10 
REMARK    4  A    between atoms: C7_12  and  N2_13 
REMARK    5  A    between atoms: N2_13  and  C8_16 
REMARK    6  A    between atoms: C8_16  and  C9_17 
REMARK    7  A    between atoms: C12_20  and  O3_21 
ROOT
HETATM    1  C2  UNL     1     -12.302  -3.720 -19.962  1.00  0.00     0.138 C 
HETATM    2  C3  UNL     1     -13.382  -3.632 -21.007  1.00  0.00     0.194 C 
HETATM    3  O2  UNL     1     -13.967  -4.868 -21.283  1.00  0.00    -0.389 OA
HETATM    4  C4  UNL     1     -12.889  -5.746 -21.541  1.00  0.00     0.175 C 
HETATM    5  C5  UNL     1     -12.414  -6.219 -20.182  1.00  0.00     0.056 C 
HETATM    6  C7  UNL     1     -12.279  -5.059 -19.257  1.00  0.00     0.217 C 
ENDROOT
BRANCH   6   7
HETATM    7  N2  UNL     1     -11.016  -5.113 -18.521  1.00  0.00    -0.066 N 
ATOM      8  H22 UNL     1     -10.243  -5.383 -19.129  1.00  0.00     0.277 HD
ATOM      9  H21 UNL     1     -10.697  -4.179 -18.261  1.00  0.00     0.277 HD
BRANCH   7  10
HETATM   10  C8  UNL     1     -11.102  -5.972 -17.375  1.00  0.00     0.264 C 
BRANCH  10  11
HETATM   11  C9  UNL     1      -9.711  -6.156 -16.824  1.00  0.00     0.150 C 
HETATM   12  C10 UNL     1      -9.737  -6.200 -15.323  1.00  0.00     0.038 C 
HETATM   13  C11 UNL     1      -8.553  -7.105 -15.016  1.00  0.00     0.063 C 
HETATM   14  C12 UNL     1      -7.995  -7.386 -16.389  1.00  0.00     0.257 C 
HETATM   15  O4  UNL     1      -9.166  -7.391 -17.165  1.00  0.00    -0.355 OA
BRANCH  14  16
HETATM   16  O3  UNL     1      -7.185  -6.333 -16.819  1.00  0.00    -0.371 OA
ATOM     17  H3  UNL     1      -6.430  -6.235 -16.250  1.00  0.00     0.212 HD
ENDBRANCH  14  16
ENDBRANCH  10  11
ENDBRANCH   7  10
ENDBRANCH   6   7
BRANCH   1  18
HETATM   18  N1  UNL     1     -12.531  -2.673 -19.000  1.00  0.00    -0.359 N 
ATOM     19  H1  UNL     1     -12.499  -2.891 -18.005  1.00  0.00     0.162 HD
BRANCH  18  20
HETATM   20  C1  UNL     1     -12.801  -1.342 -19.414  1.00  0.00     0.348 C 
HETATM   21  O1  UNL     1     -11.984  -0.678 -20.114  1.00  0.00    -0.284 OA
ENDBRANCH  18  20
ENDBRANCH   1  18
BRANCH   5  22
HETATM   22  C6  UNL     1     -13.457  -7.229 -19.700  1.00  0.00     0.123 C 
HETATM   23 CL1  UNL     1     -12.665  -8.829 -19.778  1.00  0.00    -0.130 Cl
ENDBRANCH   5  22
TORSDOF 7
ENDMDL
MODEL 5
REMARK VINA RESULT: -6.415748767      2.967      4.547
REMARK  7 active torsions:
REMARK  status: ('A' for Active; 'I' for Inactive)
REMARK    1  A    between atoms: C1_2  and  N1_3 
REMARK    2  A    between atoms: N1_3  and  C2_5 
REMARK    3  A    between atoms: C5_9  and  C6_10 
REMARK    4  A    between atoms: C7_12  and  N2_13 
REMARK    5  A    between atoms: N2_13  and  C8_16 
REMARK    6  A    between atoms: C8_16  and  C9_17 
REMARK    7  A    between atoms: C12_20  and  O3_21 
ROOT
HETATM    1  C2  UNL     1     -12.853  -3.048 -20.628  1.00  0.00     0.138 C 
HETATM    2  C3  UNL     1     -13.312  -3.238 -22.049  1.00  0.00     0.194 C 
HETATM    3  O2  UNL     1     -13.616  -4.566 -22.344  1.00  0.00    -0.389 OA
HETATM    4  C4  UNL     1     -12.492  -5.314 -21.924  1.00  0.00     0.175 C 
HETATM    5  C5  UNL     1     -12.688  -5.547 -20.440  1.00  0.00     0.056 C 
HETATM    6  C7  UNL     1     -13.082  -4.274 -19.772  1.00  0.00     0.217 C 
ENDROOT
BRANCH   6   7
HETATM    7  N2  UNL     1     -12.318  -4.065 -18.541  1.00  0.00    -0.066 N 
ATOM      8  H22 UNL     1     -11.351  -3.813 -18.743  1.00  0.00     0.277 HD
ATOM      9  H21 UNL     1     -12.610  -3.211 -18.064  1.00  0.00     0.277 HD
BRANCH   7  10
HETATM   10  C8  UNL     1     -12.390  -5.201 -17.669  1.00  0.00     0.264 C 
BRANCH  10  11
HETATM   11  C9  UNL     1     -10.983  -5.578 -17.278  1.00  0.00     0.150 C 
HETATM   12  C10 UNL     1     -10.810  -5.511 -15.788  1.00  0.00     0.038 C 
HETATM   13  C11 UNL     1      -9.754  -6.580 -15.546  1.00  0.00     0.063 C 
HETATM   14  C12 UNL     1      -9.442  -7.048 -16.946  1.00  0.00     0.257 C 
HETATM   15  O4  UNL     1     -10.693  -6.909 -17.568  1.00  0.00    -0.355 OA
BRANCH  14  16
HETATM   16  O3  UNL     1      -8.541  -6.182 -17.568  1.00  0.00    -0.371 OA
ATOM     17  H3  UNL     1      -8.585  -5.316 -17.181  1.00  0.00     0.212 HD
ENDBRANCH  14  16
ENDBRANCH  10  11
ENDBRANCH   7  10
ENDBRANCH   6   7
BRANCH   1  18
HETATM   18  N1  UNL     1     -13.576  -1.933 -20.075  1.00  0.00    -0.359 N 
ATOM     19  H1  UNL     1     -14.534  -2.067 -19.753  1.00  0.00     0.162 HD
BRANCH  18  20
HETATM   20  C1  UNL     1     -12.979  -0.649 -19.971  1.00  0.00     0.348 C 
HETATM   21  O1  UNL     1     -11.875  -0.375 -20.523  1.00  0.00    -0.284 OA
ENDBRANCH  18  20
ENDBRANCH   1  18
BRANCH   5  22
HETATM   22  C6  UNL     1     -13.770  -6.623 -20.323  1.00  0.00     0.123 C 
HETATM   23 CL1  UNL     1     -12.915  -8.135 -19.901  1.00  0.00    -0.130 Cl
ENDBRANCH   5  22
TORSDOF 7
ENDMDL
