MODEL 1
REMARK VINA RESULT: -6.919709195      0.000      0.000
REMARK  3 active torsions:
REMARK  status: ('A' for Active; 'I' for Inactive)
REMARK    1  A    between atoms: C2_2  and  C4_4 
REMARK    2  A    between atoms: C4_4  and  C5_6 
REMARK    3  A    between atoms: C6_7  and  C7_8 
ROOT
HETATM    1  C5  UNL     1      33.354   0.481  34.606  1.00  0.00     0.051 C 
HETATM    2  C6  UNL     1      34.173  -0.386  33.997  1.00  0.00    -0.018 C 
ENDROOT
BRANCH   2   3
HETATM    3  C7  UNL     1      35.473   0.053  33.524  1.00  0.00     0.008 C 
HETATM    4  C8  UNL     1      36.188   0.957  34.525  1.00  0.00     0.008 C 
HETATM    5  C9  UNL     1      37.485   1.450  33.946  1.00  0.00     0.001 C 
HETATM    6  C10 UNL     1      37.862   0.680  32.713  1.00  0.00     0.000 C 
HETATM    7  C11 UNL     1      36.836   0.742  31.631  1.00  0.00     0.001 C 
HETATM    8  C12 UNL     1      35.446   0.814  32.218  1.00  0.00     0.008 C 
ENDBRANCH   2   3
BRANCH   1   9
HETATM    9  C4  UNL     1      32.055   0.086  35.091  1.00  0.00     0.176 C 
HETATM   10  O1  UNL     1      31.005   0.621  34.593  1.00  0.00    -0.288 OA
BRANCH   9  11
HETATM   11  C2  UNL     1      31.894  -0.897  36.124  1.00  0.00    -0.021 C 
HETATM   12  C1  UNL     1      31.185  -1.983  35.944  1.00  0.00     0.022 C 
HETATM   13  C3  UNL     1      32.571  -0.645  37.443  1.00  0.00     0.051 C 
ENDBRANCH   9  11
ENDBRANCH   1   9
TORSDOF 3
ENDMDL
MODEL 2
REMARK VINA RESULT: -6.889765393      1.849      5.417
REMARK  3 active torsions:
REMARK  status: ('A' for Active; 'I' for Inactive)
REMARK    1  A    between atoms: C2_2  and  C4_4 
REMARK    2  A    between atoms: C4_4  and  C5_6 
REMARK    3  A    between atoms: C6_7  and  C7_8 
ROOT
HETATM    1  C5  UNL     1      34.557  -0.446  33.297  1.00  0.00     0.051 C 
HETATM    2  C6  UNL     1      34.195   0.444  34.229  1.00  0.00    -0.018 C 
ENDROOT
BRANCH   2   3
HETATM    3  C7  UNL     1      33.656  -0.011  35.498  1.00  0.00     0.008 C 
HETATM    4  C8  UNL     1      34.640  -0.882  36.275  1.00  0.00     0.008 C 
HETATM    5  C9  UNL     1      33.997  -1.394  37.534  1.00  0.00     0.001 C 
HETATM    6  C10 UNL     1      32.718  -0.665  37.832  1.00  0.00     0.000 C 
HETATM    7  C11 UNL     1      31.705  -0.763  36.740  1.00  0.00     0.001 C 
HETATM    8  C12 UNL     1      32.379  -0.815  35.390  1.00  0.00     0.008 C 
ENDBRANCH   2   3
BRANCH   1   9
HETATM    9  C4  UNL     1      35.096  -0.037  32.024  1.00  0.00     0.176 C 
HETATM   10  O1  UNL     1      34.644  -0.560  30.948  1.00  0.00    -0.288 OA
BRANCH   9  11
HETATM   11  C2  UNL     1      36.133   0.950  31.918  1.00  0.00    -0.021 C 
HETATM   12  C1  UNL     1      35.935   2.105  31.335  1.00  0.00     0.022 C 
HETATM   13  C3  UNL     1      37.478   0.618  32.503  1.00  0.00     0.051 C 
ENDBRANCH   9  11
ENDBRANCH   1   9
TORSDOF 3
ENDMDL
MODEL 3
REMARK VINA RESULT: -6.825570317      0.722      1.618
REMARK  3 active torsions:
REMARK  status: ('A' for Active; 'I' for Inactive)
REMARK    1  A    between atoms: C2_2  and  C4_4 
REMARK    2  A    between atoms: C4_4  and  C5_6 
REMARK    3  A    between atoms: C6_7  and  C7_8 
ROOT
HETATM    1  C5  UNL     1      33.211   0.139  34.485  1.00  0.00     0.051 C 
HETATM    2  C6  UNL     1      33.995   1.198  34.726  1.00  0.00    -0.018 C 
ENDROOT
BRANCH   2   3
HETATM    3  C7  UNL     1      35.352   1.228  34.213  1.00  0.00     0.008 C 
HETATM    4  C8  UNL     1      35.544   0.316  33.004  1.00  0.00     0.008 C 
HETATM    5  C9  UNL     1      36.984   0.321  32.572  1.00  0.00     0.001 C 
HETATM    6  C10 UNL     1      37.747   1.440  33.225  1.00  0.00     0.000 C 
HETATM    7  C11 UNL     1      37.726   1.389  34.715  1.00  0.00     0.001 C 
HETATM    8  C12 UNL     1      36.414   0.829  35.212  1.00  0.00     0.008 C 
ENDBRANCH   2   3
BRANCH   1   9
HETATM    9  C4  UNL     1      31.857   0.068  34.977  1.00  0.00     0.176 C 
HETATM   10  O1  UNL     1      30.942   0.762  34.414  1.00  0.00    -0.288 OA
BRANCH   9  11
HETATM   11  C2  UNL     1      31.495  -0.764  36.088  1.00  0.00    -0.021 C 
HETATM   12  C1  UNL     1      30.573  -1.690  35.991  1.00  0.00     0.022 C 
HETATM   13  C3  UNL     1      32.211  -0.544  37.392  1.00  0.00     0.051 C 
ENDBRANCH   9  11
ENDBRANCH   1   9
TORSDOF 3
ENDMDL
MODEL 4
REMARK VINA RESULT: -6.823892388      1.981      5.443
REMARK  3 active torsions:
REMARK  status: ('A' for Active; 'I' for Inactive)
REMARK    1  A    between atoms: C2_2  and  C4_4 
REMARK    2  A    between atoms: C4_4  and  C5_6 
REMARK    3  A    between atoms: C6_7  and  C7_8 
ROOT
HETATM    1  C5  UNL     1      34.510  -0.153  33.215  1.00  0.00     0.051 C 
HETATM    2  C6  UNL     1      34.689  -1.240  33.976  1.00  0.00    -0.018 C 
ENDROOT
BRANCH   2   3
HETATM    3  C7  UNL     1      34.183  -1.265  35.337  1.00  0.00     0.008 C 
HETATM    4  C8  UNL     1      32.949  -0.386  35.521  1.00  0.00     0.008 C 
HETATM    5  C9  UNL     1      32.525  -0.382  36.963  1.00  0.00     0.001 C 
HETATM    6  C10 UNL     1      33.213  -1.468  37.739  1.00  0.00     0.000 C 
HETATM    7  C11 UNL     1      34.702  -1.374  37.710  1.00  0.00     0.001 C 
HETATM    8  C12 UNL     1      35.176  -0.820  36.388  1.00  0.00     0.008 C 
ENDBRANCH   2   3
BRANCH   1   9
HETATM    9  C4  UNL     1      34.997  -0.087  31.859  1.00  0.00     0.176 C 
HETATM   10  O1  UNL     1      34.436  -0.790  30.950  1.00  0.00    -0.288 OA
BRANCH   9  11
HETATM   11  C2  UNL     1      36.102   0.751  31.488  1.00  0.00    -0.021 C 
HETATM   12  C1  UNL     1      35.995   1.672  30.563  1.00  0.00     0.022 C 
HETATM   13  C3  UNL     1      37.411   0.541  32.199  1.00  0.00     0.051 C 
ENDBRANCH   9  11
ENDBRANCH   1   9
TORSDOF 3
ENDMDL
MODEL 5
REMARK VINA RESULT: -6.790841643      1.286      1.517
REMARK  3 active torsions:
REMARK  status: ('A' for Active; 'I' for Inactive)
REMARK    1  A    between atoms: C2_2  and  C4_4 
REMARK    2  A    between atoms: C4_4  and  C5_6 
REMARK    3  A    between atoms: C6_7  and  C7_8 
ROOT
HETATM    1  C5  UNL     1      33.437   0.006  35.315  1.00  0.00     0.051 C 
HETATM    2  C6  UNL     1      34.746  -0.210  35.502  1.00  0.00    -0.018 C 
ENDROOT
BRANCH   2   3
HETATM    3  C7  UNL     1      35.699   0.176  34.478  1.00  0.00     0.008 C 
HETATM    4  C8  UNL     1      36.829   1.046  35.024  1.00  0.00     0.008 C 
HETATM    5  C9  UNL     1      37.732   1.486  33.907  1.00  0.00     0.001 C 
HETATM    6  C10 UNL     1      37.470   0.706  32.650  1.00  0.00     0.000 C 
HETATM    7  C11 UNL     1      36.065   0.814  32.160  1.00  0.00     0.001 C 
HETATM    8  C12 UNL     1      35.104   0.943  33.318  1.00  0.00     0.008 C 
ENDBRANCH   2   3
BRANCH   1   9
HETATM    9  C4  UNL     1      32.457  -0.363  36.306  1.00  0.00     0.176 C 
HETATM   10  O1  UNL     1      32.492   0.180  37.464  1.00  0.00    -0.288 OA
BRANCH   9  11
HETATM   11  C2  UNL     1      31.431  -1.330  36.039  1.00  0.00    -0.021 C 
HETATM   12  C1  UNL     1      31.695  -2.607  35.915  1.00  0.00     0.022 C 
HETATM   13  C3  UNL     1      30.018  -0.833  35.900  1.00  0.00     0.051 C 
ENDBRANCH   9  11
ENDBRANCH   1   9
TORSDOF 3
ENDMDL
