MODEL 1
REMARK VINA RESULT: -6.395710205      0.000      0.000
REMARK  1 active torsions:
REMARK  status: ('A' for Active; 'I' for Inactive)
REMARK    1  A    between atoms: C9_9  and  C10_10 
ROOT
HETATM    1  C1  UNL     1      34.806  -1.436  37.722  1.00  0.00     0.010 C 
HETATM    2  C2  UNL     1      34.920  -0.600  36.438  1.00  0.00    -0.014 C 
HETATM    3  C3  UNL     1      35.994  -1.262  35.613  1.00  0.00     0.005 C 
HETATM    4  C4  UNL     1      37.135  -0.355  35.274  1.00  0.00     0.000 C 
HETATM    5  C5  UNL     1      36.747   1.059  34.999  1.00  0.00     0.000 C 
HETATM    6  C6  UNL     1      35.624   1.066  34.002  1.00  0.00     0.000 C 
HETATM    7  C7  UNL     1      34.384   1.534  34.707  1.00  0.00     0.000 C 
HETATM    8  C8  UNL     1      33.324   0.489  34.817  1.00  0.00     0.006 C 
HETATM    9  C9  UNL     1      33.583  -0.611  35.764  1.00  0.00    -0.001 C 
ENDROOT
BRANCH   9  10
HETATM   10  C10 UNL     1      32.426  -0.641  36.764  1.00  0.00     0.091 C 
HETATM   11  S1  UNL     1      30.875  -1.143  35.989  1.00  0.00    -0.097 SA
ENDBRANCH   9  10
TORSDOF 1
ENDMDL
MODEL 2
REMARK VINA RESULT: -6.372719329      2.614      4.148
REMARK  1 active torsions:
REMARK  status: ('A' for Active; 'I' for Inactive)
REMARK    1  A    between atoms: C9_9  and  C10_10 
ROOT
HETATM    1  C1  UNL     1      37.711   1.433  34.775  1.00  0.00     0.010 C 
HETATM    2  C2  UNL     1      36.428   0.596  34.887  1.00  0.00    -0.014 C 
HETATM    3  C3  UNL     1      35.602   1.256  35.961  1.00  0.00     0.005 C 
HETATM    4  C4  UNL     1      35.263   0.348  37.101  1.00  0.00     0.000 C 
HETATM    5  C5  UNL     1      34.989  -1.066  36.711  1.00  0.00     0.000 C 
HETATM    6  C6  UNL     1      33.993  -1.073  35.588  1.00  0.00     0.000 C 
HETATM    7  C7  UNL     1      34.699  -1.539  34.348  1.00  0.00     0.000 C 
HETATM    8  C8  UNL     1      34.809  -0.492  33.288  1.00  0.00     0.006 C 
HETATM    9  C9  UNL     1      35.755   0.608  33.550  1.00  0.00    -0.001 C 
ENDROOT
BRANCH   9  10
HETATM   10  C10 UNL     1      36.756   0.640  32.393  1.00  0.00     0.091 C 
HETATM   11  S1  UNL     1      35.983   1.150  30.844  1.00  0.00    -0.097 SA
ENDBRANCH   9  10
TORSDOF 1
ENDMDL
MODEL 3
REMARK VINA RESULT: -6.306234246      1.736      2.241
REMARK  1 active torsions:
REMARK  status: ('A' for Active; 'I' for Inactive)
REMARK    1  A    between atoms: C9_9  and  C10_10 
ROOT
HETATM    1  C1  UNL     1      34.610   1.746  36.297  1.00  0.00     0.010 C 
HETATM    2  C2  UNL     1      35.279   1.140  35.054  1.00  0.00    -0.014 C 
HETATM    3  C3  UNL     1      36.653   0.710  35.498  1.00  0.00     0.005 C 
HETATM    4  C4  UNL     1      37.762   1.345  34.720  1.00  0.00     0.000 C 
HETATM    5  C5  UNL     1      37.473   1.541  33.270  1.00  0.00     0.000 C 
HETATM    6  C6  UNL     1      36.970   0.247  32.699  1.00  0.00     0.000 C 
HETATM    7  C7  UNL     1      35.519   0.426  32.358  1.00  0.00     0.000 C 
HETATM    8  C8  UNL     1      34.599  -0.410  33.185  1.00  0.00     0.006 C 
HETATM    9  C9  UNL     1      34.434  -0.007  34.592  1.00  0.00    -0.001 C 
ENDROOT
BRANCH   9  10
HETATM   10  C10 UNL     1      32.942   0.235  34.832  1.00  0.00     0.091 C 
HETATM   11  S1  UNL     1      32.197  -1.075  35.826  1.00  0.00    -0.097 SA
ENDBRANCH   9  10
TORSDOF 1
ENDMDL
MODEL 4
REMARK VINA RESULT: -6.291445651      2.366      3.668
REMARK  1 active torsions:
REMARK  status: ('A' for Active; 'I' for Inactive)
REMARK    1  A    between atoms: C9_9  and  C10_10 
ROOT
HETATM    1  C1  UNL     1      36.279  -1.750  34.569  1.00  0.00     0.010 C 
HETATM    2  C2  UNL     1      35.044  -1.141  35.251  1.00  0.00    -0.014 C 
HETATM    3  C3  UNL     1      35.511  -0.686  36.610  1.00  0.00     0.005 C 
HETATM    4  C4  UNL     1      34.758  -1.308  37.743  1.00  0.00     0.000 C 
HETATM    5  C5  UNL     1      33.304  -1.517  37.484  1.00  0.00     0.000 C 
HETATM    6  C6  UNL     1      32.715  -0.235  36.971  1.00  0.00     0.000 C 
HETATM    7  C7  UNL     1      32.349  -0.440  35.529  1.00  0.00     0.000 C 
HETATM    8  C8  UNL     1      33.153   0.387  34.581  1.00  0.00     0.006 C 
HETATM    9  C9  UNL     1      34.560  -0.011  34.397  1.00  0.00    -0.001 C 
ENDROOT
BRANCH   9  10
HETATM   10  C10 UNL     1      34.774  -0.275  32.904  1.00  0.00     0.091 C 
HETATM   11  S1  UNL     1      35.800   0.995  32.134  1.00  0.00    -0.097 SA
ENDBRANCH   9  10
TORSDOF 1
ENDMDL
MODEL 5
REMARK VINA RESULT: -6.165246521      1.160      2.700
REMARK  1 active torsions:
REMARK  status: ('A' for Active; 'I' for Inactive)
REMARK    1  A    between atoms: C9_9  and  C10_10 
ROOT
HETATM    1  C1  UNL     1      34.068   1.944  35.111  1.00  0.00     0.010 C 
HETATM    2  C2  UNL     1      35.159   0.878  35.294  1.00  0.00    -0.014 C 
HETATM    3  C3  UNL     1      36.463   1.632  35.343  1.00  0.00     0.005 C 
HETATM    4  C4  UNL     1      37.440   1.210  34.292  1.00  0.00     0.000 C 
HETATM    5  C5  UNL     1      37.432  -0.249  33.983  1.00  0.00     0.000 C 
HETATM    6  C6  UNL     1      37.529  -1.016  35.270  1.00  0.00     0.000 C 
HETATM    7  C7  UNL     1      36.215  -1.706  35.495  1.00  0.00     0.000 C 
HETATM    8  C8  UNL     1      35.467  -1.203  36.685  1.00  0.00     0.006 C 
HETATM    9  C9  UNL     1      34.869   0.139  36.563  1.00  0.00    -0.001 C 
ENDROOT
BRANCH   9  10
HETATM   10  C10 UNL     1      33.368   0.001  36.828  1.00  0.00     0.091 C 
HETATM   11  S1  UNL     1      32.672  -1.459  36.027  1.00  0.00    -0.097 SA
ENDBRANCH   9  10
TORSDOF 1
ENDMDL
