MODEL 1
REMARK VINA RESULT: -4.842793410      0.000      0.000
REMARK  3 active torsions:
REMARK  status: ('A' for Active; 'I' for Inactive)
REMARK    1  A    between atoms: N1_2  and  C2_3 
REMARK    2  A    between atoms: C2_3  and  C3_4 
REMARK    3  A    between atoms: C7_12  and  N3_13 
ROOT
HETATM    1  C1  UNL     1      28.635  34.054  20.583  1.00  0.00     0.277 C 
HETATM    2  N1  UNL     1      28.120  32.700  20.683  1.00  0.00    -0.017 N 
HETATM    3  C4  UNL     1      29.270  31.832  20.833  1.00  0.00     0.243 C 
HETATM    4  C5  UNL     1      29.984  32.016  22.140  1.00  0.00     0.055 C 
HETATM    5  C6  UNL     1      28.961  31.932  23.252  1.00  0.00     0.238 C 
HETATM    6  N2  UNL     1      28.029  33.037  23.024  1.00  0.00    -0.021 N 
ATOM      7  H21 UNL     1      28.486  33.945  22.947  1.00  0.00     0.281 HD
ATOM      8  H22 UNL     1      27.452  33.258  23.836  1.00  0.00     0.281 HD
HETATM    9  C7  UNL     1      27.260  32.672  21.848  1.00  0.00     0.582 C 
ENDROOT
BRANCH   2  10
HETATM   10  C2  UNL     1      27.398  32.394  19.496  1.00  0.00     0.256 C 
BRANCH  10  11
HETATM   11  C3  UNL     1      27.743  31.118  18.811  1.00  0.00     0.142 C 
HETATM   12 CL1  UNL     1      26.322  30.113  18.493  1.00  0.00    -0.129 Cl
ENDBRANCH  10  11
ENDBRANCH   2  10
BRANCH   9  13
HETATM   13  N3  UNL     1      26.656  31.409  22.098  1.00  0.00    -0.025 N 
ATOM     14  H33 UNL     1      25.738  31.359  21.655  1.00  0.00     0.278 HD
ATOM     15  H32 UNL     1      27.138  30.674  21.580  1.00  0.00     0.278 HD
ATOM     16  H31 UNL     1      26.588  31.164  23.085  1.00  0.00     0.278 HD
ENDBRANCH   9  13
TORSDOF 3
ENDMDL
MODEL 2
REMARK VINA RESULT: -4.808132514      1.127      1.400
REMARK  3 active torsions:
REMARK  status: ('A' for Active; 'I' for Inactive)
REMARK    1  A    between atoms: N1_2  and  C2_3 
REMARK    2  A    between atoms: C2_3  and  C3_4 
REMARK    3  A    between atoms: C7_12  and  N3_13 
ROOT
HETATM    1  C1  UNL     1      29.584  32.433  20.433  1.00  0.00     0.277 C 
HETATM    2  N1  UNL     1      28.408  31.901  21.098  1.00  0.00    -0.017 N 
HETATM    3  C4  UNL     1      28.836  31.477  22.416  1.00  0.00     0.243 C 
HETATM    4  C5  UNL     1      29.236  32.620  23.303  1.00  0.00     0.055 C 
HETATM    5  C6  UNL     1      28.123  33.644  23.284  1.00  0.00     0.238 C 
HETATM    6  N2  UNL     1      28.016  34.095  21.896  1.00  0.00    -0.021 N 
ATOM      7  H21 UNL     1      28.898  34.431  21.509  1.00  0.00     0.281 HD
ATOM      8  H22 UNL     1      27.495  34.965  21.788  1.00  0.00     0.281 HD
HETATM    9  C7  UNL     1      27.445  32.982  21.159  1.00  0.00     0.582 C 
ENDROOT
BRANCH   2  10
HETATM   10  C2  UNL     1      27.910  30.803  20.344  1.00  0.00     0.256 C 
BRANCH  10  11
HETATM   11  C3  UNL     1      27.554  31.071  18.923  1.00  0.00     0.142 C 
HETATM   12 CL1  UNL     1      26.184  30.096  18.372  1.00  0.00    -0.129 Cl
ENDBRANCH  10  11
ENDBRANCH   2  10
BRANCH   9  13
HETATM   13  N3  UNL     1      26.214  32.634  21.780  1.00  0.00    -0.025 N 
ATOM     14  H33 UNL     1      25.652  32.054  21.157  1.00  0.00     0.278 HD
ATOM     15  H32 UNL     1      26.373  31.970  22.538  1.00  0.00     0.278 HD
ATOM     16  H31 UNL     1      25.671  33.431  22.110  1.00  0.00     0.278 HD
ENDBRANCH   9  13
TORSDOF 3
ENDMDL
MODEL 3
REMARK VINA RESULT: -4.555828190      2.904      4.147
REMARK  3 active torsions:
REMARK  status: ('A' for Active; 'I' for Inactive)
REMARK    1  A    between atoms: N1_2  and  C2_3 
REMARK    2  A    between atoms: C2_3  and  C3_4 
REMARK    3  A    between atoms: C7_12  and  N3_13 
ROOT
HETATM    1  C1  UNL     1      26.538  32.549  22.058  1.00  0.00     0.277 C 
HETATM    2  N1  UNL     1      27.947  32.702  21.743  1.00  0.00    -0.017 N 
HETATM    3  C4  UNL     1      28.467  31.367  21.523  1.00  0.00     0.243 C 
HETATM    4  C5  UNL     1      27.916  30.714  20.289  1.00  0.00     0.055 C 
HETATM    5  C6  UNL     1      28.087  31.674  19.132  1.00  0.00     0.238 C 
HETATM    6  N2  UNL     1      27.299  32.859  19.472  1.00  0.00    -0.021 N 
ATOM      7  H21 UNL     1      26.327  32.650  19.699  1.00  0.00     0.281 HD
ATOM      8  H22 UNL     1      27.111  33.467  18.676  1.00  0.00     0.281 HD
HETATM    9  C7  UNL     1      28.017  33.518  20.549  1.00  0.00     0.582 C 
ENDROOT
BRANCH   2  10
HETATM   10  C2  UNL     1      28.598  33.329  22.841  1.00  0.00     0.256 C 
BRANCH  10  11
HETATM   11  C3  UNL     1      28.144  34.702  23.196  1.00  0.00     0.142 C 
HETATM   12 CL1  UNL     1      29.064  35.396  24.537  1.00  0.00    -0.129 Cl
ENDBRANCH  10  11
ENDBRANCH   2  10
BRANCH   9  13
HETATM   13  N3  UNL     1      29.339  33.778  20.096  1.00  0.00    -0.025 N 
ATOM     14  H33 UNL     1      29.930  34.075  20.872  1.00  0.00     0.278 HD
ATOM     15  H32 UNL     1      29.807  32.908  19.844  1.00  0.00     0.278 HD
ATOM     16  H31 UNL     1      29.395  34.449  19.329  1.00  0.00     0.278 HD
ENDBRANCH   9  13
TORSDOF 3
ENDMDL
MODEL 4
REMARK VINA RESULT: -4.496977811      1.393      2.302
REMARK  3 active torsions:
REMARK  status: ('A' for Active; 'I' for Inactive)
REMARK    1  A    between atoms: N1_2  and  C2_3 
REMARK    2  A    between atoms: C2_3  and  C3_4 
REMARK    3  A    between atoms: C7_12  and  N3_13 
ROOT
HETATM    1  C1  UNL     1      28.386  30.804  20.956  1.00  0.00     0.277 C 
HETATM    2  N1  UNL     1      27.958  32.063  20.372  1.00  0.00    -0.017 N 
HETATM    3  C4  UNL     1      26.686  32.389  20.984  1.00  0.00     0.243 C 
HETATM    4  C5  UNL     1      26.799  32.717  22.445  1.00  0.00     0.055 C 
HETATM    5  C6  UNL     1      27.883  33.760  22.611  1.00  0.00     0.238 C 
HETATM    6  N2  UNL     1      29.118  33.135  22.135  1.00  0.00    -0.021 N 
ATOM      7  H21 UNL     1      29.324  32.245  22.588  1.00  0.00     0.281 HD
ATOM      8  H22 UNL     1      29.963  33.622  22.433  1.00  0.00     0.281 HD
HETATM    9  C7  UNL     1      28.983  33.035  20.693  1.00  0.00     0.582 C 
ENDROOT
BRANCH   2  10
HETATM   10  C2  UNL     1      27.821  31.896  18.966  1.00  0.00     0.256 C 
BRANCH  10  11
HETATM   11  C3  UNL     1      27.636  30.504  18.471  1.00  0.00     0.142 C 
HETATM   12 CL1  UNL     1      25.931  30.056  18.329  1.00  0.00    -0.129 Cl
ENDBRANCH  10  11
ENDBRANCH   2  10
BRANCH   9  13
HETATM   13  N3  UNL     1      28.729  34.340  20.188  1.00  0.00    -0.025 N 
ATOM     14  H33 UNL     1      28.402  34.291  19.223  1.00  0.00     0.278 HD
ATOM     15  H32 UNL     1      27.902  34.739  20.632  1.00  0.00     0.278 HD
ATOM     16  H31 UNL     1      29.519  34.980  20.263  1.00  0.00     0.278 HD
ENDBRANCH   9  13
TORSDOF 3
ENDMDL
MODEL 5
REMARK VINA RESULT: -4.468205846      1.321      1.668
REMARK  3 active torsions:
REMARK  status: ('A' for Active; 'I' for Inactive)
REMARK    1  A    between atoms: N1_2  and  C2_3 
REMARK    2  A    between atoms: C2_3  and  C3_4 
REMARK    3  A    between atoms: C7_12  and  N3_13 
ROOT
HETATM    1  C1  UNL     1      26.597  32.607  19.633  1.00  0.00     0.277 C 
HETATM    2  N1  UNL     1      27.643  31.927  20.377  1.00  0.00    -0.017 N 
HETATM    3  C4  UNL     1      28.821  32.766  20.293  1.00  0.00     0.243 C 
HETATM    4  C5  UNL     1      28.675  34.065  21.031  1.00  0.00     0.055 C 
HETATM    5  C6  UNL     1      28.197  33.760  22.434  1.00  0.00     0.238 C 
HETATM    6  N2  UNL     1      26.892  33.115  22.282  1.00  0.00    -0.021 N 
ATOM      7  H21 UNL     1      26.232  33.658  21.727  1.00  0.00     0.281 HD
ATOM      8  H22 UNL     1      26.344  33.096  23.141  1.00  0.00     0.281 HD
HETATM    9  C7  UNL     1      27.162  31.796  21.737  1.00  0.00     0.582 C 
ENDROOT
BRANCH   2  10
HETATM   10  C2  UNL     1      27.877  30.656  19.783  1.00  0.00     0.256 C 
BRANCH  10  11
HETATM   11  C3  UNL     1      27.430  30.480  18.374  1.00  0.00     0.142 C 
HETATM   12 CL1  UNL     1      25.795  29.815  18.259  1.00  0.00    -0.129 Cl
ENDBRANCH  10  11
ENDBRANCH   2  10
BRANCH   9  13
HETATM   13  N3  UNL     1      28.066  31.138  22.615  1.00  0.00    -0.025 N 
ATOM     14  H33 UNL     1      28.779  31.788  22.945  1.00  0.00     0.278 HD
ATOM     15  H32 UNL     1      27.608  30.919  23.500  1.00  0.00     0.278 HD
ATOM     16  H31 UNL     1      28.500  30.303  22.221  1.00  0.00     0.278 HD
ENDBRANCH   9  13
TORSDOF 3
ENDMDL
