MODEL 1
REMARK VINA RESULT: -8.337770289      0.000      0.000
REMARK  9 active torsions:
REMARK  status: ('A' for Active; 'I' for Inactive)
REMARK    1  A    between atoms: C1_2  and  C2_3 
REMARK       I    between atoms: C1_2  and  N1_20 
REMARK    2  A    between atoms: C2_3  and  C3_4 
REMARK    3  A    between atoms: C3_4  and  O2_5 
REMARK    4  A    between atoms: C3_4  and  C4_7 
REMARK    5  A    between atoms: C3_4  and  C10_13 
REMARK    6  A    between atoms: N1_20  and  C16_22 
REMARK    7  A    between atoms: C16_22  and  C17_23 
REMARK    8  A    between atoms: C17_23  and  C18_24 
REMARK    9  A    between atoms: N2_29  and  O3_30 
ROOT
HETATM    1  C3  UNL     1      17.560 -14.191  22.786  1.00  0.00     0.121 C 
ENDROOT
BRANCH   1   2
HETATM    2  C2  UNL     1      16.890 -15.406  22.304  1.00  0.00     0.150 C 
BRANCH   2   3
HETATM    3  C1  UNL     1      15.843 -15.195  21.273  1.00  0.00     0.221 C 
HETATM    4  O1  UNL     1      16.106 -15.606  20.104  1.00  0.00    -0.273 OA
HETATM    5  N1  UNL     1      14.613 -14.580  21.521  1.00  0.00    -0.361 N 
ATOM      6  H1  UNL     1      14.414 -14.255  22.467  1.00  0.00     0.162 HD
BRANCH   5   7
HETATM    7  C16 UNL     1      13.613 -14.383  20.503  1.00  0.00     0.128 C 
BRANCH   7   8
HETATM    8  C17 UNL     1      13.654 -13.070  19.808  1.00  0.00     0.079 C 
BRANCH   8   9
HETATM    9  C18 UNL     1      13.188 -12.026  20.789  1.00  0.00     0.041 A 
HETATM   10  C19 UNL     1      12.017 -12.201  21.489  1.00  0.00     0.027 A 
HETATM   11  C20 UNL     1      11.553 -11.280  22.390  1.00  0.00     0.003 A 
HETATM   12  C21 UNL     1      12.300 -10.128  22.600  1.00  0.00     0.020 A 
HETATM   13  C22 UNL     1      13.469  -9.961  21.896  1.00  0.00     0.123 A 
HETATM   14  N2  UNL     1      13.888 -10.900  21.015  1.00  0.00    -0.240 N 
BRANCH  14  15
HETATM   15  O3  UNL     1      15.052 -10.698  20.336  1.00  0.00    -0.283 OA
ATOM     16  H3  UNL     1      15.722 -10.147  20.724  1.00  0.00     0.245 HD
ENDBRANCH  14  15
ENDBRANCH   8   9
ENDBRANCH   7   8
ENDBRANCH   5   7
ENDBRANCH   2   3
ENDBRANCH   1   2
BRANCH   1  17
HETATM   17  O2  UNL     1      16.518 -13.241  23.060  1.00  0.00    -0.380 OA
ATOM     18  H2  UNL     1      16.436 -12.706  22.280  1.00  0.00     0.211 HD
ENDBRANCH   1  17
BRANCH   1  19
HETATM   19  C4  UNL     1      18.367 -14.238  23.979  1.00  0.00    -0.019 A 
HETATM   20  C5  UNL     1      19.488 -13.512  24.279  1.00  0.00     0.010 A 
HETATM   21  C6  UNL     1      20.184 -13.657  25.456  1.00  0.00     0.001 A 
HETATM   22  C7  UNL     1      19.760 -14.571  26.406  1.00  0.00     0.000 A 
HETATM   23  C8  UNL     1      18.642 -15.315  26.140  1.00  0.00     0.001 A 
HETATM   24  C9  UNL     1      17.963 -15.157  24.963  1.00  0.00     0.010 A 
ENDBRANCH   1  19
BRANCH   1  25
HETATM   25  C10 UNL     1      18.332 -13.576  21.646  1.00  0.00    -0.002 A 
HETATM   26  C11 UNL     1      18.086 -12.247  21.281  1.00  0.00     0.012 A 
HETATM   27  C12 UNL     1      18.782 -11.695  20.258  1.00  0.00     0.001 A 
HETATM   28  C13 UNL     1      19.742 -12.376  19.537  1.00  0.00     0.001 A 
HETATM   29  C14 UNL     1      19.990 -13.665  19.881  1.00  0.00     0.020 A 
HETATM   30  C15 UNL     1      19.286 -14.263  20.933  1.00  0.00     0.020 A 
HETATM   31 BR1  UNL     1      19.731 -16.064  21.291  1.00  0.00    -0.050 Br
ENDBRANCH   1  25
TORSDOF 9
ENDMDL
MODEL 2
REMARK VINA RESULT: -8.219153229      1.285      1.500
REMARK  9 active torsions:
REMARK  status: ('A' for Active; 'I' for Inactive)
REMARK    1  A    between atoms: C1_2  and  C2_3 
REMARK       I    between atoms: C1_2  and  N1_20 
REMARK    2  A    between atoms: C2_3  and  C3_4 
REMARK    3  A    between atoms: C3_4  and  O2_5 
REMARK    4  A    between atoms: C3_4  and  C4_7 
REMARK    5  A    between atoms: C3_4  and  C10_13 
REMARK    6  A    between atoms: N1_20  and  C16_22 
REMARK    7  A    between atoms: C16_22  and  C17_23 
REMARK    8  A    between atoms: C17_23  and  C18_24 
REMARK    9  A    between atoms: N2_29  and  O3_30 
ROOT
HETATM    1  C3  UNL     1      17.354 -14.151  22.705  1.00  0.00     0.121 C 
ENDROOT
BRANCH   1   2
HETATM    2  C2  UNL     1      16.572 -15.235  22.096  1.00  0.00     0.150 C 
BRANCH   2   3
HETATM    3  C1  UNL     1      15.529 -14.808  21.128  1.00  0.00     0.221 C 
HETATM    4  O1  UNL     1      15.745 -15.073  19.908  1.00  0.00    -0.273 OA
HETATM    5  N1  UNL     1      14.353 -14.145  21.487  1.00  0.00    -0.361 N 
ATOM      6  H1  UNL     1      14.193 -13.939  22.473  1.00  0.00     0.162 HD
BRANCH   5   7
HETATM    7  C16 UNL     1      13.357 -13.738  20.529  1.00  0.00     0.128 C 
BRANCH   7   8
HETATM    8  C17 UNL     1      12.073 -13.259  21.102  1.00  0.00     0.079 C 
BRANCH   8   9
HETATM    9  C18 UNL     1      12.312 -11.879  21.654  1.00  0.00     0.041 A 
HETATM   10  C19 UNL     1      13.291 -11.073  21.118  1.00  0.00     0.027 A 
HETATM   11  C20 UNL     1      13.545  -9.812  21.587  1.00  0.00     0.003 A 
HETATM   12  C21 UNL     1      12.781  -9.335  22.644  1.00  0.00     0.020 A 
HETATM   13  C22 UNL     1      11.806 -10.146  23.174  1.00  0.00     0.123 A 
HETATM   14  N2  UNL     1      11.590 -11.386  22.677  1.00  0.00    -0.240 N 
BRANCH  14  15
HETATM   15  O3  UNL     1      10.614 -12.160  23.230  1.00  0.00    -0.283 OA
ATOM     16  H3  UNL     1       9.729 -11.819  23.281  1.00  0.00     0.245 HD
ENDBRANCH  14  15
ENDBRANCH   8   9
ENDBRANCH   7   8
ENDBRANCH   5   7
ENDBRANCH   2   3
ENDBRANCH   1   2
BRANCH   1  17
HETATM   17  O2  UNL     1      16.417 -13.106  23.013  1.00  0.00    -0.380 OA
ATOM     18  H2  UNL     1      16.581 -12.411  22.387  1.00  0.00     0.211 HD
ENDBRANCH   1  17
BRANCH   1  19
HETATM   19  C4  UNL     1      18.087 -14.388  23.922  1.00  0.00    -0.019 A 
HETATM   20  C5  UNL     1      19.153 -13.691  24.424  1.00  0.00     0.010 A 
HETATM   21  C6  UNL     1      19.781 -14.025  25.601  1.00  0.00     0.001 A 
HETATM   22  C7  UNL     1      19.341 -15.110  26.340  1.00  0.00     0.000 A 
HETATM   23  C8  UNL     1      18.276 -15.830  25.869  1.00  0.00     0.001 A 
HETATM   24  C9  UNL     1      17.665 -15.483  24.695  1.00  0.00     0.010 A 
ENDBRANCH   1  19
BRANCH   1  25
HETATM   25  C10 UNL     1      18.250 -13.546  21.653  1.00  0.00    -0.002 A 
HETATM   26  C11 UNL     1      18.112 -12.194  21.320  1.00  0.00     0.012 A 
HETATM   27  C12 UNL     1      18.919 -11.652  20.377  1.00  0.00     0.001 A 
HETATM   28  C13 UNL     1      19.894 -12.366  19.709  1.00  0.00     0.001 A 
HETATM   29  C14 UNL     1      20.038 -13.679  20.022  1.00  0.00     0.020 A 
HETATM   30  C15 UNL     1      19.217 -14.267  20.992  1.00  0.00     0.020 A 
HETATM   31 BR1  UNL     1      19.526 -16.102  21.316  1.00  0.00    -0.050 Br
ENDBRANCH   1  25
TORSDOF 9
ENDMDL
MODEL 3
REMARK VINA RESULT: -8.175689218      2.981      7.421
REMARK  9 active torsions:
REMARK  status: ('A' for Active; 'I' for Inactive)
REMARK    1  A    between atoms: C1_2  and  C2_3 
REMARK       I    between atoms: C1_2  and  N1_20 
REMARK    2  A    between atoms: C2_3  and  C3_4 
REMARK    3  A    between atoms: C3_4  and  O2_5 
REMARK    4  A    between atoms: C3_4  and  C4_7 
REMARK    5  A    between atoms: C3_4  and  C10_13 
REMARK    6  A    between atoms: N1_20  and  C16_22 
REMARK    7  A    between atoms: C16_22  and  C17_23 
REMARK    8  A    between atoms: C17_23  and  C18_24 
REMARK    9  A    between atoms: N2_29  and  O3_30 
ROOT
HETATM    1  C3  UNL     1      15.324 -12.189  20.452  1.00  0.00     0.121 C 
ENDROOT
BRANCH   1   2
HETATM    2  C2  UNL     1      15.300 -13.584  20.909  1.00  0.00     0.150 C 
BRANCH   2   3
HETATM    3  C1  UNL     1      16.568 -14.089  21.496  1.00  0.00     0.221 C 
HETATM    4  O1  UNL     1      17.349 -14.706  20.714  1.00  0.00    -0.273 OA
HETATM    5  N1  UNL     1      16.930 -13.923  22.836  1.00  0.00    -0.361 N 
ATOM      6  H1  UNL     1      16.291 -13.423  23.454  1.00  0.00     0.162 HD
BRANCH   5   7
HETATM    7  C16 UNL     1      18.165 -14.424  23.383  1.00  0.00     0.128 C 
BRANCH   7   8
HETATM    8  C17 UNL     1      19.377 -13.621  23.076  1.00  0.00     0.079 C 
BRANCH   8   9
HETATM    9  C18 UNL     1      20.238 -13.615  24.311  1.00  0.00     0.041 A 
HETATM   10  C19 UNL     1      19.670 -13.731  25.559  1.00  0.00     0.027 A 
HETATM   11  C20 UNL     1      20.412 -13.730  26.709  1.00  0.00     0.003 A 
HETATM   12  C21 UNL     1      21.791 -13.607  26.604  1.00  0.00     0.020 A 
HETATM   13  C22 UNL     1      22.351 -13.491  25.354  1.00  0.00     0.123 A 
HETATM   14  N2  UNL     1      21.577 -13.497  24.244  1.00  0.00    -0.240 N 
BRANCH  14  15
HETATM   15  O3  UNL     1      22.169 -13.380  23.022  1.00  0.00    -0.283 OA
ATOM     16  H3  UNL     1      22.870 -12.748  22.909  1.00  0.00     0.245 HD
ENDBRANCH  14  15
ENDBRANCH   8   9
ENDBRANCH   7   8
ENDBRANCH   5   7
ENDBRANCH   2   3
ENDBRANCH   1   2
BRANCH   1  17
HETATM   17  O2  UNL     1      16.449 -11.574  21.101  1.00  0.00    -0.380 OA
ATOM     18  H2  UNL     1      16.471 -11.926  21.983  1.00  0.00     0.211 HD
ENDBRANCH   1  17
BRANCH   1  19
HETATM   19  C4  UNL     1      15.473 -11.892  19.051  1.00  0.00    -0.019 A 
HETATM   20  C5  UNL     1      14.497 -11.644  18.124  1.00  0.00     0.010 A 
HETATM   21  C6  UNL     1      14.766 -11.383  16.801  1.00  0.00     0.001 A 
HETATM   22  C7  UNL     1      16.075 -11.361  16.349  1.00  0.00     0.000 A 
HETATM   23  C8  UNL     1      17.078 -11.604  17.250  1.00  0.00     0.001 A 
HETATM   24  C9  UNL     1      16.790 -11.862  18.561  1.00  0.00     0.010 A 
ENDBRANCH   1  19
BRANCH   1  25
HETATM   25  C10 UNL     1      14.129 -11.469  21.025  1.00  0.00    -0.002 A 
HETATM   26  C11 UNL     1      14.270 -10.159  21.498  1.00  0.00     0.012 A 
HETATM   27  C12 UNL     1      13.195  -9.513  22.009  1.00  0.00     0.001 A 
HETATM   28  C13 UNL     1      11.938 -10.078  22.094  1.00  0.00     0.001 A 
HETATM   29  C14 UNL     1      11.788 -11.348  21.639  1.00  0.00     0.020 A 
HETATM   30  C15 UNL     1      12.880 -12.041  21.106  1.00  0.00     0.020 A 
HETATM   31 BR1  UNL     1      12.523 -13.802  20.522  1.00  0.00    -0.050 Br
ENDBRANCH   1  25
TORSDOF 9
ENDMDL
MODEL 4
REMARK VINA RESULT: -8.169932602      2.577      6.862
REMARK  9 active torsions:
REMARK  status: ('A' for Active; 'I' for Inactive)
REMARK    1  A    between atoms: C1_2  and  C2_3 
REMARK       I    between atoms: C1_2  and  N1_20 
REMARK    2  A    between atoms: C2_3  and  C3_4 
REMARK    3  A    between atoms: C3_4  and  O2_5 
REMARK    4  A    between atoms: C3_4  and  C4_7 
REMARK    5  A    between atoms: C3_4  and  C10_13 
REMARK    6  A    between atoms: N1_20  and  C16_22 
REMARK    7  A    between atoms: C16_22  and  C17_23 
REMARK    8  A    between atoms: C17_23  and  C18_24 
REMARK    9  A    between atoms: N2_29  and  O3_30 
ROOT
HETATM    1  C3  UNL     1      15.477 -12.316  21.230  1.00  0.00     0.121 C 
ENDROOT
BRANCH   1   2
HETATM    2  C2  UNL     1      16.479 -11.394  20.678  1.00  0.00     0.150 C 
BRANCH   2   3
HETATM    3  C1  UNL     1      17.840 -11.960  20.496  1.00  0.00     0.221 C 
HETATM    4  O1  UNL     1      18.291 -11.984  19.313  1.00  0.00    -0.273 OA
HETATM    5  N1  UNL     1      18.628 -12.455  21.540  1.00  0.00    -0.361 N 
ATOM      6  H1  UNL     1      18.252 -12.428  22.487  1.00  0.00     0.162 HD
BRANCH   5   7
HETATM    7  C16 UNL     1      19.945 -13.001  21.338  1.00  0.00     0.128 C 
BRANCH   7   8
HETATM    8  C17 UNL     1      20.251 -14.237  22.103  1.00  0.00     0.079 C 
BRANCH   8   9
HETATM    9  C18 UNL     1      20.621 -13.821  23.503  1.00  0.00     0.041 A 
HETATM   10  C19 UNL     1      21.921 -13.493  23.812  1.00  0.00     0.027 A 
HETATM   11  C20 UNL     1      22.304 -13.110  25.070  1.00  0.00     0.003 A 
HETATM   12  C21 UNL     1      21.337 -13.052  26.065  1.00  0.00     0.020 A 
HETATM   13  C22 UNL     1      20.041 -13.381  25.747  1.00  0.00     0.123 A 
HETATM   14  N2  UNL     1      19.709 -13.754  24.489  1.00  0.00    -0.240 N 
BRANCH  14  15
HETATM   15  O3  UNL     1      18.413 -14.073  24.214  1.00  0.00    -0.283 OA
ATOM     16  H3  UNL     1      17.969 -14.711  24.760  1.00  0.00     0.245 HD
ENDBRANCH  14  15
ENDBRANCH   8   9
ENDBRANCH   7   8
ENDBRANCH   5   7
ENDBRANCH   2   3
ENDBRANCH   1   2
BRANCH   1  17
HETATM   17  O2  UNL     1      16.025 -12.810  22.463  1.00  0.00    -0.380 OA
ATOM     18  H2  UNL     1      15.466 -13.530  22.731  1.00  0.00     0.211 HD
ENDBRANCH   1  17
BRANCH   1  19
HETATM   19  C4  UNL     1      14.158 -11.838  21.554  1.00  0.00    -0.019 A 
HETATM   20  C5  UNL     1      13.043 -12.564  21.877  1.00  0.00     0.010 A 
HETATM   21  C6  UNL     1      11.827 -11.987  22.156  1.00  0.00     0.001 A 
HETATM   22  C7  UNL     1      11.685 -10.610  22.119  1.00  0.00     0.000 A 
HETATM   23  C8  UNL     1      12.780  -9.852  21.800  1.00  0.00     0.001 A 
HETATM   24  C9  UNL     1      13.981 -10.444  21.524  1.00  0.00     0.010 A 
ENDBRANCH   1  19
BRANCH   1  25
HETATM   25  C10 UNL     1      15.399 -13.536  20.346  1.00  0.00    -0.002 A 
HETATM   26  C11 UNL     1      15.675 -14.799  20.882  1.00  0.00     0.012 A 
HETATM   27  C12 UNL     1      15.601 -15.893  20.087  1.00  0.00     0.001 A 
HETATM   28  C13 UNL     1      15.262 -15.840  18.749  1.00  0.00     0.001 A 
HETATM   29  C14 UNL     1      14.992 -14.621  18.217  1.00  0.00     0.020 A 
HETATM   30  C15 UNL     1      15.061 -13.472  19.014  1.00  0.00     0.020 A 
HETATM   31 BR1  UNL     1      14.669 -11.846  18.135  1.00  0.00    -0.050 Br
ENDBRANCH   1  25
TORSDOF 9
ENDMDL
MODEL 5
REMARK VINA RESULT: -8.125968837      2.150      3.382
REMARK  9 active torsions:
REMARK  status: ('A' for Active; 'I' for Inactive)
REMARK    1  A    between atoms: C1_2  and  C2_3 
REMARK       I    between atoms: C1_2  and  N1_20 
REMARK    2  A    between atoms: C2_3  and  C3_4 
REMARK    3  A    between atoms: C3_4  and  O2_5 
REMARK    4  A    between atoms: C3_4  and  C4_7 
REMARK    5  A    between atoms: C3_4  and  C10_13 
REMARK    6  A    between atoms: N1_20  and  C16_22 
REMARK    7  A    between atoms: C16_22  and  C17_23 
REMARK    8  A    between atoms: C17_23  and  C18_24 
REMARK    9  A    between atoms: N2_29  and  O3_30 
ROOT
HETATM    1  C3  UNL     1      18.532 -14.923  24.462  1.00  0.00     0.121 C 
ENDROOT
BRANCH   1   2
HETATM    2  C2  UNL     1      18.269 -15.059  23.024  1.00  0.00     0.150 C 
BRANCH   2   3
HETATM    3  C1  UNL     1      17.710 -13.855  22.357  1.00  0.00     0.221 C 
HETATM    4  O1  UNL     1      18.546 -13.023  21.896  1.00  0.00    -0.273 OA
HETATM    5  N1  UNL     1      16.343 -13.601  22.218  1.00  0.00    -0.361 N 
ATOM      6  H1  UNL     1      15.682 -14.281  22.593  1.00  0.00     0.162 HD
BRANCH   5   7
HETATM    7  C16 UNL     1      15.825 -12.424  21.569  1.00  0.00     0.128 C 
BRANCH   7   8
HETATM    8  C17 UNL     1      14.518 -12.592  20.882  1.00  0.00     0.079 C 
BRANCH   8   9
HETATM    9  C18 UNL     1      13.504 -11.773  21.635  1.00  0.00     0.041 A 
HETATM   10  C19 UNL     1      13.571 -10.399  21.624  1.00  0.00     0.027 A 
HETATM   11  C20 UNL     1      12.672  -9.613  22.294  1.00  0.00     0.003 A 
HETATM   12  C21 UNL     1      11.656 -10.234  23.009  1.00  0.00     0.020 A 
HETATM   13  C22 UNL     1      11.597 -11.608  23.015  1.00  0.00     0.123 A 
HETATM   14  N2  UNL     1      12.508 -12.344  22.337  1.00  0.00    -0.240 N 
BRANCH  14  15
HETATM   15  O3  UNL     1      12.416 -13.703  22.367  1.00  0.00    -0.283 OA
ATOM     16  H3  UNL     1      12.502 -14.153  23.199  1.00  0.00     0.245 HD
ENDBRANCH  14  15
ENDBRANCH   8   9
ENDBRANCH   7   8
ENDBRANCH   5   7
ENDBRANCH   2   3
ENDBRANCH   1   2
BRANCH   1  17
HETATM   17  O2  UNL     1      17.660 -13.882  24.932  1.00  0.00    -0.380 OA
ATOM     18  H2  UNL     1      18.021 -13.588  25.759  1.00  0.00     0.211 HD
ENDBRANCH   1  17
BRANCH   1  19
HETATM   19  C4  UNL     1      18.313 -16.041  25.344  1.00  0.00    -0.019 A 
HETATM   20  C5  UNL     1      18.778 -16.226  26.618  1.00  0.00     0.010 A 
HETATM   21  C6  UNL     1      18.508 -17.352  27.360  1.00  0.00     0.001 A 
HETATM   22  C7  UNL     1      17.732 -18.367  26.825  1.00  0.00     0.000 A 
HETATM   23  C8  UNL     1      17.249 -18.216  25.553  1.00  0.00     0.001 A 
HETATM   24  C9  UNL     1      17.529 -17.089  24.831  1.00  0.00     0.010 A 
ENDBRANCH   1  19
BRANCH   1  25
HETATM   25  C10 UNL     1      19.918 -14.359  24.653  1.00  0.00    -0.002 A 
HETATM   26  C11 UNL     1      20.085 -13.148  25.335  1.00  0.00     0.012 A 
HETATM   27  C12 UNL     1      21.330 -12.645  25.508  1.00  0.00     0.001 A 
HETATM   28  C13 UNL     1      22.473 -13.266  25.043  1.00  0.00     0.001 A 
HETATM   29  C14 UNL     1      22.324 -14.440  24.380  1.00  0.00     0.020 A 
HETATM   30  C15 UNL     1      21.050 -14.985  24.185  1.00  0.00     0.020 A 
HETATM   31 BR1  UNL     1      20.998 -16.619  23.238  1.00  0.00    -0.050 Br
ENDBRANCH   1  25
TORSDOF 9
ENDMDL
