MODEL 1
REMARK VINA RESULT: -5.077861704      0.000      0.000
REMARK  5 active torsions:
REMARK  status: ('A' for Active; 'I' for Inactive)
REMARK    1  A    between atoms: C2_3  and  C3_4 
REMARK    2  A    between atoms: C3_4  and  C4_5 
REMARK    3  A    between atoms: C4_5  and  N2_6 
REMARK    4  A    between atoms: N2_6  and  C5_8 
REMARK    5  A    between atoms: N3_9  and  N4_11 
ROOT
HETATM    1  N2  UNL     1      30.652  13.097 -59.093  1.00  0.00    -0.385 N 
ATOM      2  H2  UNL     1      31.332  12.764 -58.409  1.00  0.00     0.160 HD
ENDROOT
BRANCH   1   3
HETATM    3  C4  UNL     1      29.238  13.088 -58.786  1.00  0.00     0.126 C 
BRANCH   3   4
HETATM    4  C3  UNL     1      28.632  14.460 -58.902  1.00  0.00     0.073 C 
BRANCH   4   5
HETATM    5  C2  UNL     1      28.190  14.961 -57.580  1.00  0.00     0.004 A 
HETATM    6  N1  UNL     1      27.647  14.728 -56.388  1.00  0.00    -0.385 N 
HETATM    7  C1  UNL     1      27.075  13.723 -55.522  1.00  0.00     0.149 C 
HETATM    8  C6  UNL     1      28.035  16.093 -56.626  1.00  0.00     0.174 A 
ENDBRANCH   4   5
ENDBRANCH   3   4
ENDBRANCH   1   3
BRANCH   1   9
HETATM    9  C5  UNL     1      31.081  13.574 -60.353  1.00  0.00     0.194 C 
HETATM   10  N3  UNL     1      32.333  13.731 -60.594  1.00  0.00    -0.283 N 
ATOM     11  H3  UNL     1      32.997  13.502 -59.854  1.00  0.00     0.189 HD
BRANCH  10  12
HETATM   12  N4  UNL     1      32.834  14.194 -61.803  1.00  0.00    -0.248 N 
HETATM   13  N5  UNL     1      32.069  14.301 -62.798  1.00  0.00    -0.331 N 
ATOM     14  H52 UNL     1      31.087  14.045 -62.699  1.00  0.00     0.178 HD
ATOM     15  H51 UNL     1      32.437  14.641 -63.686  1.00  0.00     0.178 HD
ATOM     16  H4  UNL     1      33.820  14.447 -61.886  1.00  0.00     0.207 HD
ENDBRANCH  10  12
ENDBRANCH   1   9
TORSDOF 5
ENDMDL
MODEL 2
REMARK VINA RESULT: -4.865984022      4.066      8.137
REMARK  5 active torsions:
REMARK  status: ('A' for Active; 'I' for Inactive)
REMARK    1  A    between atoms: C2_3  and  C3_4 
REMARK    2  A    between atoms: C3_4  and  C4_5 
REMARK    3  A    between atoms: C4_5  and  N2_6 
REMARK    4  A    between atoms: N2_6  and  C5_8 
REMARK    5  A    between atoms: N3_9  and  N4_11 
ROOT
HETATM    1  N2  UNL     1      26.529  15.111 -53.751  1.00  0.00    -0.385 N 
ATOM      2  H2  UNL     1      26.663  16.069 -54.073  1.00  0.00     0.160 HD
ENDROOT
BRANCH   1   3
HETATM    3  C4  UNL     1      27.422  14.059 -54.188  1.00  0.00     0.126 C 
BRANCH   3   4
HETATM    4  C3  UNL     1      27.109  13.605 -55.588  1.00  0.00     0.073 C 
BRANCH   4   5
HETATM    5  C2  UNL     1      27.654  14.551 -56.589  1.00  0.00     0.004 A 
HETATM    6  N1  UNL     1      28.051  15.779 -56.910  1.00  0.00    -0.385 N 
HETATM    7  C1  UNL     1      28.223  17.132 -56.432  1.00  0.00     0.149 C 
HETATM    8  C6  UNL     1      28.156  14.808 -57.967  1.00  0.00     0.174 A 
ENDBRANCH   4   5
ENDBRANCH   3   4
ENDBRANCH   1   3
BRANCH   1   9
HETATM    9  C5  UNL     1      25.468  14.793 -52.873  1.00  0.00     0.194 C 
HETATM   10  N3  UNL     1      24.793  15.729 -52.308  1.00  0.00    -0.283 N 
ATOM     11  H3  UNL     1      25.046  16.695 -52.514  1.00  0.00     0.189 HD
BRANCH  10  12
HETATM   12  N4  UNL     1      23.738  15.500 -51.434  1.00  0.00    -0.248 N 
HETATM   13  N5  UNL     1      22.651  15.038 -51.872  1.00  0.00    -0.331 N 
ATOM     14  H52 UNL     1      22.562  14.837 -52.868  1.00  0.00     0.178 HD
ATOM     15  H51 UNL     1      21.876  14.870 -51.230  1.00  0.00     0.178 HD
ATOM     16  H4  UNL     1      23.843  15.706 -50.440  1.00  0.00     0.207 HD
ENDBRANCH  10  12
ENDBRANCH   1   9
TORSDOF 5
ENDMDL
MODEL 3
REMARK VINA RESULT: -4.859968429      1.259      1.947
REMARK  5 active torsions:
REMARK  status: ('A' for Active; 'I' for Inactive)
REMARK    1  A    between atoms: C2_3  and  C3_4 
REMARK    2  A    between atoms: C3_4  and  C4_5 
REMARK    3  A    between atoms: C4_5  and  N2_6 
REMARK    4  A    between atoms: N2_6  and  C5_8 
REMARK    5  A    between atoms: N3_9  and  N4_11 
ROOT
HETATM    1  N2  UNL     1      29.839  15.306 -60.543  1.00  0.00    -0.385 N 
ATOM      2  H2  UNL     1      29.558  15.778 -61.403  1.00  0.00     0.160 HD
ENDROOT
BRANCH   1   3
HETATM    3  C4  UNL     1      29.187  15.616 -59.289  1.00  0.00     0.126 C 
BRANCH   3   4
HETATM    4  C3  UNL     1      28.471  14.421 -58.721  1.00  0.00     0.073 C 
BRANCH   4   5
HETATM    5  C2  UNL     1      27.989  14.693 -57.347  1.00  0.00     0.004 A 
HETATM    6  N1  UNL     1      27.876  15.524 -56.314  1.00  0.00    -0.385 N 
HETATM    7  C1  UNL     1      28.188  16.843 -55.814  1.00  0.00     0.149 C 
HETATM    8  C6  UNL     1      27.277  14.229 -56.125  1.00  0.00     0.174 A 
ENDBRANCH   4   5
ENDBRANCH   3   4
ENDBRANCH   1   3
BRANCH   1   9
HETATM    9  C5  UNL     1      30.872  14.341 -60.561  1.00  0.00     0.194 C 
HETATM   10  N3  UNL     1      31.922  14.530 -61.278  1.00  0.00    -0.283 N 
ATOM     11  H3  UNL     1      31.982  15.389 -61.824  1.00  0.00     0.189 HD
BRANCH  10  12
HETATM   12  N4  UNL     1      32.979  13.632 -61.350  1.00  0.00    -0.248 N 
HETATM   13  N5  UNL     1      33.023  12.652 -60.560  1.00  0.00    -0.331 N 
ATOM     14  H52 UNL     1      32.277  12.532 -59.874  1.00  0.00     0.178 HD
ATOM     15  H51 UNL     1      33.799  11.992 -60.613  1.00  0.00     0.178 HD
ATOM     16  H4  UNL     1      33.717  13.765 -62.042  1.00  0.00     0.207 HD
ENDBRANCH  10  12
ENDBRANCH   1   9
TORSDOF 5
ENDMDL
MODEL 4
REMARK VINA RESULT: -4.749447971      1.596      2.577
REMARK  5 active torsions:
REMARK  status: ('A' for Active; 'I' for Inactive)
REMARK    1  A    between atoms: C2_3  and  C3_4 
REMARK    2  A    between atoms: C3_4  and  C4_5 
REMARK    3  A    between atoms: C4_5  and  N2_6 
REMARK    4  A    between atoms: N2_6  and  C5_8 
REMARK    5  A    between atoms: N3_9  and  N4_11 
ROOT
HETATM    1  N2  UNL     1      28.973  13.734 -58.711  1.00  0.00    -0.385 N 
ATOM      2  H2  UNL     1      28.877  12.785 -58.349  1.00  0.00     0.160 HD
ENDROOT
BRANCH   1   3
HETATM    3  C4  UNL     1      27.990  14.745 -58.387  1.00  0.00     0.126 C 
BRANCH   3   4
HETATM    4  C3  UNL     1      27.780  14.867 -56.903  1.00  0.00     0.073 C 
BRANCH   4   5
HETATM    5  C2  UNL     1      28.134  16.223 -56.424  1.00  0.00     0.004 A 
HETATM    6  N1  UNL     1      28.580  17.450 -56.680  1.00  0.00    -0.385 N 
HETATM    7  C1  UNL     1      29.059  18.347 -57.707  1.00  0.00     0.149 C 
HETATM    8  C6  UNL     1      28.246  17.197 -55.304  1.00  0.00     0.174 A 
ENDBRANCH   4   5
ENDBRANCH   3   4
ENDBRANCH   1   3
BRANCH   1   9
HETATM    9  C5  UNL     1      30.070  14.078 -59.534  1.00  0.00     0.194 C 
HETATM   10  N3  UNL     1      31.159  13.398 -59.480  1.00  0.00    -0.283 N 
ATOM     11  H3  UNL     1      31.202  12.612 -58.832  1.00  0.00     0.189 HD
BRANCH  10  12
HETATM   12  N4  UNL     1      32.279  13.671 -60.253  1.00  0.00    -0.248 N 
HETATM   13  N5  UNL     1      33.046  12.732 -60.598  1.00  0.00    -0.331 N 
ATOM     14  H52 UNL     1      32.830  11.780 -60.302  1.00  0.00     0.178 HD
ATOM     15  H51 UNL     1      33.869  12.933 -61.166  1.00  0.00     0.178 HD
ATOM     16  H4  UNL     1      32.481  14.629 -60.542  1.00  0.00     0.207 HD
ENDBRANCH  10  12
ENDBRANCH   1   9
TORSDOF 5
ENDMDL
MODEL 5
REMARK VINA RESULT: -4.525764213     11.177     12.230
REMARK  5 active torsions:
REMARK  status: ('A' for Active; 'I' for Inactive)
REMARK    1  A    between atoms: C2_3  and  C3_4 
REMARK    2  A    between atoms: C3_4  and  C4_5 
REMARK    3  A    between atoms: C4_5  and  N2_6 
REMARK    4  A    between atoms: N2_6  and  C5_8 
REMARK    5  A    between atoms: N3_9  and  N4_11 
ROOT
HETATM    1  N2  UNL     1      23.694  17.083 -48.140  1.00  0.00    -0.385 N 
ATOM      2  H2  UNL     1      23.507  16.571 -47.278  1.00  0.00     0.160 HD
ENDROOT
BRANCH   1   3
HETATM    3  C4  UNL     1      24.300  18.397 -48.095  1.00  0.00     0.126 C 
BRANCH   3   4
HETATM    4  C3  UNL     1      24.747  18.853 -49.457  1.00  0.00     0.073 C 
BRANCH   4   5
HETATM    5  C2  UNL     1      26.141  19.352 -49.421  1.00  0.00     0.004 A 
HETATM    6  N1  UNL     1      27.365  19.300 -48.902  1.00  0.00    -0.385 N 
HETATM    7  C1  UNL     1      28.215  18.649 -47.932  1.00  0.00     0.149 C 
HETATM    8  C6  UNL     1      27.184  20.277 -49.943  1.00  0.00     0.174 A 
ENDBRANCH   4   5
ENDBRANCH   3   4
ENDBRANCH   1   3
BRANCH   1   9
HETATM    9  C5  UNL     1      23.365  16.519 -49.393  1.00  0.00     0.194 C 
HETATM   10  N3  UNL     1      22.569  15.512 -49.461  1.00  0.00    -0.283 N 
ATOM     11  H3  UNL     1      22.189  15.141 -48.591  1.00  0.00     0.189 HD
BRANCH  10  12
HETATM   12  N4  UNL     1      22.196  14.902 -50.651  1.00  0.00    -0.248 N 
HETATM   13  N5  UNL     1      22.868  15.107 -51.697  1.00  0.00    -0.331 N 
ATOM     14  H52 UNL     1      23.681  15.722 -51.653  1.00  0.00     0.178 HD
ATOM     15  H51 UNL     1      22.595  14.658 -52.571  1.00  0.00     0.178 HD
ATOM     16  H4  UNL     1      21.381  14.288 -50.679  1.00  0.00     0.207 HD
ENDBRANCH  10  12
ENDBRANCH   1   9
TORSDOF 5
ENDMDL
