MODEL 1
REMARK VINA RESULT: -5.114061249      0.000      0.000
REMARK  6 active torsions:
REMARK  status: ('A' for Active; 'I' for Inactive)
REMARK    1  A    between atoms: C4_4  and  C5_5 
REMARK    2  A    between atoms: C5_5  and  N1_6 
REMARK    3  A    between atoms: N1_6  and  C6_8 
REMARK    4  A    between atoms: C6_8  and  C7_9 
REMARK    5  A    between atoms: C7_9  and  O1_10 
REMARK    6  A    between atoms: O1_10  and  C8_11 
ROOT
HETATM    1  C1  UNL     1      22.454 -15.987   4.503  1.00  0.00     0.102 C 
HETATM    2  C2  UNL     1      21.541 -15.893   5.321  1.00  0.00    -0.160 C 
HETATM    3  C3  UNL     1      20.455 -15.782   6.230  1.00  0.00     0.051 C 
HETATM    4  C4  UNL     1      20.518 -15.501   7.468  1.00  0.00     0.024 C 
ENDROOT
BRANCH   4   5
HETATM    5  C5  UNL     1      21.622 -15.205   8.389  1.00  0.00     0.083 C 
BRANCH   5   6
HETATM    6  N1  UNL     1      22.197 -16.265   9.102  1.00  0.00    -0.397 N 
ATOM      7  H1  UNL     1      21.707 -16.733   9.865  1.00  0.00     0.158 HD
BRANCH   6   8
HETATM    8  C6  UNL     1      23.512 -16.653   8.695  1.00  0.00     0.145 C 
BRANCH   8   9
HETATM    9  C7  UNL     1      24.191 -15.799   7.703  1.00  0.00     0.187 C 
BRANCH   9  10
HETATM   10  O1  UNL     1      25.410 -15.293   7.905  1.00  0.00    -0.381 OA
BRANCH  10  11
HETATM   11  C8  UNL     1      25.842 -14.235   7.147  1.00  0.00     0.172 C 
HETATM   12  C9  UNL     1      24.789 -13.154   6.907  1.00  0.00     0.265 C 
HETATM   13  N2  UNL     1      25.946 -12.251   6.769  1.00  0.00    -0.070 N 
HETATM   14  C10 UNL     1      26.586 -13.114   7.760  1.00  0.00     0.265 C 
ATOM     15  H22 UNL     1      26.375 -12.055   5.864  1.00  0.00     0.277 HD
ATOM     16  H21 UNL     1      25.865 -11.242   6.900  1.00  0.00     0.277 HD
ENDBRANCH  10  11
ENDBRANCH   9  10
ENDBRANCH   8   9
ENDBRANCH   6   8
ENDBRANCH   5   6
ENDBRANCH   4   5
TORSDOF 6
ENDMDL
MODEL 2
REMARK VINA RESULT: -5.092280135      2.739      5.722
REMARK  6 active torsions:
REMARK  status: ('A' for Active; 'I' for Inactive)
REMARK    1  A    between atoms: C4_4  and  C5_5 
REMARK    2  A    between atoms: C5_5  and  N1_6 
REMARK    3  A    between atoms: N1_6  and  C6_8 
REMARK    4  A    between atoms: C6_8  and  C7_9 
REMARK    5  A    between atoms: C7_9  and  O1_10 
REMARK    6  A    between atoms: O1_10  and  C8_11 
ROOT
HETATM    1  C1  UNL     1      26.061 -13.257   7.122  1.00  0.00     0.102 C 
HETATM    2  C2  UNL     1      25.352 -14.203   7.461  1.00  0.00    -0.160 C 
HETATM    3  C3  UNL     1      24.564 -15.304   7.887  1.00  0.00     0.051 C 
HETATM    4  C4  UNL     1      23.648 -15.891   7.230  1.00  0.00     0.024 C 
ENDROOT
BRANCH   4   5
HETATM    5  C5  UNL     1      23.074 -15.699   5.892  1.00  0.00     0.083 C 
BRANCH   5   6
HETATM    6  N1  UNL     1      21.818 -16.258   5.620  1.00  0.00    -0.397 N 
ATOM      7  H1  UNL     1      21.707 -17.070   5.013  1.00  0.00     0.158 HD
BRANCH   6   8
HETATM    8  C6  UNL     1      20.701 -15.619   6.245  1.00  0.00     0.145 C 
BRANCH   8   9
HETATM    9  C7  UNL     1      19.949 -16.401   7.243  1.00  0.00     0.187 C 
BRANCH   9  10
HETATM   10  O1  UNL     1      20.502 -16.847   8.374  1.00  0.00    -0.381 OA
BRANCH  10  11
HETATM   11  C8  UNL     1      20.609 -18.196   8.593  1.00  0.00     0.172 C 
HETATM   12  C9  UNL     1      19.442 -19.021   8.054  1.00  0.00     0.265 C 
HETATM   13  N2  UNL     1      20.430 -20.112   7.972  1.00  0.00    -0.070 N 
HETATM   14  C10 UNL     1      21.395 -19.054   7.681  1.00  0.00     0.265 C 
ATOM     15  H22 UNL     1      20.568 -20.777   8.734  1.00  0.00     0.277 HD
ATOM     16  H21 UNL     1      20.302 -20.914   7.353  1.00  0.00     0.277 HD
ENDBRANCH  10  11
ENDBRANCH   9  10
ENDBRANCH   8   9
ENDBRANCH   6   8
ENDBRANCH   5   6
ENDBRANCH   4   5
TORSDOF 6
ENDMDL
MODEL 3
REMARK VINA RESULT: -5.066152692      2.506      3.623
REMARK  6 active torsions:
REMARK  status: ('A' for Active; 'I' for Inactive)
REMARK    1  A    between atoms: C4_4  and  C5_5 
REMARK    2  A    between atoms: C5_5  and  N1_6 
REMARK    3  A    between atoms: N1_6  and  C6_8 
REMARK    4  A    between atoms: C6_8  and  C7_9 
REMARK    5  A    between atoms: C7_9  and  O1_10 
REMARK    6  A    between atoms: O1_10  and  C8_11 
ROOT
HETATM    1  C1  UNL     1      21.561 -16.289  10.063  1.00  0.00     0.102 C 
HETATM    2  C2  UNL     1      21.113 -17.242   9.428  1.00  0.00    -0.160 C 
HETATM    3  C3  UNL     1      20.565 -18.350   8.730  1.00  0.00     0.051 C 
HETATM    4  C4  UNL     1      21.074 -18.957   7.735  1.00  0.00     0.024 C 
ENDROOT
BRANCH   4   5
HETATM    5  C5  UNL     1      22.312 -18.787   6.965  1.00  0.00     0.083 C 
BRANCH   5   6
HETATM    6  N1  UNL     1      22.217 -18.641   5.575  1.00  0.00    -0.397 N 
ATOM      7  H1  UNL     1      21.908 -19.402   4.970  1.00  0.00     0.158 HD
BRANCH   6   8
HETATM    8  C6  UNL     1      22.579 -17.359   5.055  1.00  0.00     0.145 C 
BRANCH   8   9
HETATM    9  C7  UNL     1      21.874 -16.185   5.601  1.00  0.00     0.187 C 
BRANCH   9  10
HETATM   10  O1  UNL     1      22.400 -15.408   6.551  1.00  0.00    -0.381 OA
BRANCH  10  11
HETATM   11  C8  UNL     1      23.761 -15.338   6.698  1.00  0.00     0.172 C 
HETATM   12  C9  UNL     1      24.284 -13.968   7.127  1.00  0.00     0.265 C 
HETATM   13  N2  UNL     1      25.407 -14.730   7.704  1.00  0.00    -0.070 N 
HETATM   14  C10 UNL     1      24.413 -15.774   7.951  1.00  0.00     0.265 C 
ATOM     15  H22 UNL     1      26.264 -14.911   7.182  1.00  0.00     0.277 HD
ATOM     16  H21 UNL     1      25.991 -14.352   8.450  1.00  0.00     0.277 HD
ENDBRANCH  10  11
ENDBRANCH   9  10
ENDBRANCH   8   9
ENDBRANCH   6   8
ENDBRANCH   5   6
ENDBRANCH   4   5
TORSDOF 6
ENDMDL
MODEL 4
REMARK VINA RESULT: -5.058137398      2.143      4.712
REMARK  6 active torsions:
REMARK  status: ('A' for Active; 'I' for Inactive)
REMARK    1  A    between atoms: C4_4  and  C5_5 
REMARK    2  A    between atoms: C5_5  and  N1_6 
REMARK    3  A    between atoms: N1_6  and  C6_8 
REMARK    4  A    between atoms: C6_8  and  C7_9 
REMARK    5  A    between atoms: C7_9  and  O1_10 
REMARK    6  A    between atoms: O1_10  and  C8_11 
ROOT
HETATM    1  C1  UNL     1      27.128 -12.965   7.853  1.00  0.00     0.102 C 
HETATM    2  C2  UNL     1      26.028 -13.313   7.427  1.00  0.00    -0.160 C 
HETATM    3  C3  UNL     1      24.752 -13.671   6.919  1.00  0.00     0.051 C 
HETATM    4  C4  UNL     1      24.066 -14.697   7.224  1.00  0.00     0.024 C 
ENDROOT
BRANCH   4   5
HETATM    5  C5  UNL     1      24.279 -15.829   8.134  1.00  0.00     0.083 C 
BRANCH   5   6
HETATM    6  N1  UNL     1      23.181 -16.323   8.851  1.00  0.00    -0.397 N 
ATOM      7  H1  UNL     1      23.261 -17.122   9.481  1.00  0.00     0.158 HD
BRANCH   6   8
HETATM    8  C6  UNL     1      21.942 -15.639   8.647  1.00  0.00     0.145 C 
BRANCH   8   9
HETATM    9  C7  UNL     1      20.997 -16.228   7.681  1.00  0.00     0.187 C 
BRANCH   9  10
HETATM   10  O1  UNL     1      20.850 -15.758   6.440  1.00  0.00    -0.381 OA
BRANCH  10  11
HETATM   11  C8  UNL     1      21.268 -16.511   5.373  1.00  0.00     0.172 C 
HETATM   12  C9  UNL     1      22.335 -15.846   4.505  1.00  0.00     0.265 C 
HETATM   13  N2  UNL     1      22.730 -17.226   4.172  1.00  0.00    -0.070 N 
HETATM   14  C10 UNL     1      22.310 -17.547   5.536  1.00  0.00     0.265 C 
ATOM     15  H22 UNL     1      22.354 -17.717   3.360  1.00  0.00     0.277 HD
ATOM     16  H21 UNL     1      23.662 -17.454   3.825  1.00  0.00     0.277 HD
ENDBRANCH  10  11
ENDBRANCH   9  10
ENDBRANCH   8   9
ENDBRANCH   6   8
ENDBRANCH   5   6
ENDBRANCH   4   5
TORSDOF 6
ENDMDL
MODEL 5
REMARK VINA RESULT: -5.052092036      2.408      4.321
REMARK  6 active torsions:
REMARK  status: ('A' for Active; 'I' for Inactive)
REMARK    1  A    between atoms: C4_4  and  C5_5 
REMARK    2  A    between atoms: C5_5  and  N1_6 
REMARK    3  A    between atoms: N1_6  and  C6_8 
REMARK    4  A    between atoms: C6_8  and  C7_9 
REMARK    5  A    between atoms: C7_9  and  O1_10 
REMARK    6  A    between atoms: O1_10  and  C8_11 
ROOT
HETATM    1  C1  UNL     1      24.884 -13.838   7.188  1.00  0.00     0.102 C 
HETATM    2  C2  UNL     1      24.560 -14.957   7.579  1.00  0.00    -0.160 C 
HETATM    3  C3  UNL     1      24.211 -16.269   7.996  1.00  0.00     0.051 C 
HETATM    4  C4  UNL     1      23.298 -16.595   8.818  1.00  0.00     0.024 C 
ENDROOT
BRANCH   4   5
HETATM    5  C5  UNL     1      22.320 -15.833   9.605  1.00  0.00     0.083 C 
BRANCH   5   6
HETATM    6  N1  UNL     1      20.963 -16.157   9.474  1.00  0.00    -0.397 N 
ATOM      7  H1  UNL     1      20.251 -15.771  10.095  1.00  0.00     0.158 HD
BRANCH   6   8
HETATM    8  C6  UNL     1      20.635 -17.062   8.416  1.00  0.00     0.145 C 
BRANCH   8   9
HETATM    9  C7  UNL     1      20.156 -16.476   7.151  1.00  0.00     0.187 C 
BRANCH   9  10
HETATM   10  O1  UNL     1      20.954 -15.792   6.327  1.00  0.00    -0.381 OA
BRANCH  10  11
HETATM   11  C8  UNL     1      21.363 -16.359   5.148  1.00  0.00     0.172 C 
HETATM   12  C9  UNL     1      22.471 -15.593   4.426  1.00  0.00     0.265 C 
HETATM   13  N2  UNL     1      22.820 -16.908   3.857  1.00  0.00    -0.070 N 
HETATM   14  C10 UNL     1      22.363 -17.448   5.136  1.00  0.00     0.265 C 
ATOM     15  H22 UNL     1      22.442 -17.231   2.966  1.00  0.00     0.277 HD
ATOM     16  H21 UNL     1      23.749 -17.108   3.486  1.00  0.00     0.277 HD
ENDBRANCH  10  11
ENDBRANCH   9  10
ENDBRANCH   8   9
ENDBRANCH   6   8
ENDBRANCH   5   6
ENDBRANCH   4   5
TORSDOF 6
ENDMDL
