MODEL 1
REMARK VINA RESULT: -5.287646835      0.000      0.000
REMARK  5 active torsions:
REMARK  status: ('A' for Active; 'I' for Inactive)
REMARK    1  A    between atoms: N1_4  and  C4_5 
REMARK    2  A    between atoms: C4_5  and  C5_6 
REMARK    3  A    between atoms: C5_6  and  N2_7 
REMARK    4  A    between atoms: N2_7  and  C6_10 
REMARK    5  A    between atoms: C6_10  and  C7_11 
ROOT
HETATM    1  N2  UNL     1      24.919 -15.521   7.928  1.00  0.00    -0.071 N 
ATOM      2  H21 UNL     1      25.345 -16.168   7.264  1.00  0.00     0.277 HD
ATOM      3  H22 UNL     1      25.670 -15.497   8.618  1.00  0.00     0.277 HD
ENDROOT
BRANCH   1   4
HETATM    4  C5  UNL     1      23.695 -16.048   8.483  1.00  0.00     0.262 C 
BRANCH   4   5
HETATM    5  C4  UNL     1      23.278 -17.339   7.869  1.00  0.00     0.299 C 
BRANCH   5   6
HETATM    6  N1  UNL     1      22.211 -17.218   6.931  1.00  0.00     0.090 N 
HETATM    7  C3  UNL     1      21.178 -16.342   7.384  1.00  0.00     0.272 C 
HETATM    8  C2  UNL     1      20.583 -15.688   6.174  1.00  0.00     0.032 C 
HETATM    9  C1  UNL     1      21.489 -16.007   5.004  1.00  0.00     0.032 C 
HETATM   10  C9  UNL     1      22.565 -16.904   5.590  1.00  0.00     0.272 C 
ENDBRANCH   5   6
ENDBRANCH   4   5
ENDBRANCH   1   4
BRANCH   1  11
HETATM   11  C6  UNL     1      24.688 -14.244   7.351  1.00  0.00     0.267 C 
BRANCH  11  12
HETATM   12  C7  UNL     1      25.943 -13.625   6.766  1.00  0.00     0.236 A 
HETATM   13  C8  UNL     1      26.802 -12.922   7.801  1.00  0.00     0.267 A 
HETATM   14  N3  UNL     1      26.110 -12.196   6.749  1.00  0.00    -0.066 N 
ATOM     15  H32 UNL     1      26.422 -11.539   6.034  1.00  0.00     0.277 HD
ATOM     16  H31 UNL     1      25.452 -11.417   6.756  1.00  0.00     0.277 HD
ENDBRANCH  11  12
ENDBRANCH   1  11
TORSDOF 5
ENDMDL
MODEL 2
REMARK VINA RESULT: -5.197589535      1.629      2.559
REMARK  5 active torsions:
REMARK  status: ('A' for Active; 'I' for Inactive)
REMARK    1  A    between atoms: N1_4  and  C4_5 
REMARK    2  A    between atoms: C4_5  and  C5_6 
REMARK    3  A    between atoms: C5_6  and  N2_7 
REMARK    4  A    between atoms: N2_7  and  C6_10 
REMARK    5  A    between atoms: C6_10  and  C7_11 
ROOT
HETATM    1  N2  UNL     1      23.764 -14.734   6.376  1.00  0.00    -0.071 N 
ATOM      2  H21 UNL     1      23.079 -13.979   6.356  1.00  0.00     0.277 HD
ATOM      3  H22 UNL     1      24.095 -14.664   5.414  1.00  0.00     0.277 HD
ENDROOT
BRANCH   1   4
HETATM    4  C5  UNL     1      23.147 -16.012   6.640  1.00  0.00     0.262 C 
BRANCH   4   5
HETATM    5  C4  UNL     1      21.659 -15.964   6.615  1.00  0.00     0.299 C 
BRANCH   5   6
HETATM    6  N1  UNL     1      21.046 -16.287   7.861  1.00  0.00     0.090 N 
HETATM    7  C3  UNL     1      21.080 -17.687   8.143  1.00  0.00     0.272 C 
HETATM    8  C2  UNL     1      21.170 -17.842   9.631  1.00  0.00     0.032 C 
HETATM    9  C1  UNL     1      21.464 -16.473  10.204  1.00  0.00     0.032 C 
HETATM   10  C9  UNL     1      21.473 -15.550   9.000  1.00  0.00     0.272 C 
ENDBRANCH   5   6
ENDBRANCH   4   5
ENDBRANCH   1   4
BRANCH   1  11
HETATM   11  C6  UNL     1      24.801 -14.485   7.314  1.00  0.00     0.267 C 
BRANCH  11  12
HETATM   12  C7  UNL     1      25.941 -13.671   6.731  1.00  0.00     0.236 A 
HETATM   13  C8  UNL     1      26.740 -12.922   7.781  1.00  0.00     0.267 A 
HETATM   14  N3  UNL     1      25.918 -12.234   6.799  1.00  0.00    -0.066 N 
ATOM     15  H32 UNL     1      26.113 -11.501   6.117  1.00  0.00     0.277 HD
ATOM     16  H31 UNL     1      25.164 -11.552   6.876  1.00  0.00     0.277 HD
ENDBRANCH  11  12
ENDBRANCH   1  11
TORSDOF 5
ENDMDL
MODEL 3
REMARK VINA RESULT: -5.179010626      1.183      1.931
REMARK  5 active torsions:
REMARK  status: ('A' for Active; 'I' for Inactive)
REMARK    1  A    between atoms: N1_4  and  C4_5 
REMARK    2  A    between atoms: C4_5  and  C5_6 
REMARK    3  A    between atoms: C5_6  and  N2_7 
REMARK    4  A    between atoms: N2_7  and  C6_10 
REMARK    5  A    between atoms: C6_10  and  C7_11 
ROOT
HETATM    1  N2  UNL     1      23.618 -14.385   7.089  1.00  0.00    -0.071 N 
ATOM      2  H21 UNL     1      23.382 -13.394   7.130  1.00  0.00     0.277 HD
ATOM      3  H22 UNL     1      23.494 -14.529   6.087  1.00  0.00     0.277 HD
ENDROOT
BRANCH   1   4
HETATM    4  C5  UNL     1      22.705 -15.189   7.865  1.00  0.00     0.262 C 
BRANCH   4   5
HETATM    5  C4  UNL     1      21.414 -15.451   7.170  1.00  0.00     0.299 C 
BRANCH   5   6
HETATM    6  N1  UNL     1      21.380 -16.682   6.451  1.00  0.00     0.090 N 
HETATM    7  C3  UNL     1      21.977 -16.579   5.158  1.00  0.00     0.272 C 
HETATM    8  C2  UNL     1      22.585 -17.912   4.839  1.00  0.00     0.032 C 
HETATM    9  C1  UNL     1      22.561 -18.729   6.113  1.00  0.00     0.032 C 
HETATM   10  C9  UNL     1      21.870 -17.835   7.126  1.00  0.00     0.272 C 
ENDBRANCH   5   6
ENDBRANCH   4   5
ENDBRANCH   1   4
BRANCH   1  11
HETATM   11  C6  UNL     1      24.957 -14.628   7.498  1.00  0.00     0.267 C 
BRANCH  11  12
HETATM   12  C7  UNL     1      25.962 -13.746   6.780  1.00  0.00     0.236 A 
HETATM   13  C8  UNL     1      26.792 -12.894   7.722  1.00  0.00     0.267 A 
HETATM   14  N3  UNL     1      25.824 -12.315   6.806  1.00  0.00    -0.066 N 
ATOM     15  H32 UNL     1      25.889 -11.595   6.086  1.00  0.00     0.277 HD
ATOM     16  H31 UNL     1      25.025 -11.694   6.936  1.00  0.00     0.277 HD
ENDBRANCH  11  12
ENDBRANCH   1  11
TORSDOF 5
ENDMDL
MODEL 4
REMARK VINA RESULT: -5.175155595      0.980      1.277
REMARK  5 active torsions:
REMARK  status: ('A' for Active; 'I' for Inactive)
REMARK    1  A    between atoms: N1_4  and  C4_5 
REMARK    2  A    between atoms: C4_5  and  C5_6 
REMARK    3  A    between atoms: C5_6  and  N2_7 
REMARK    4  A    between atoms: N2_7  and  C6_10 
REMARK    5  A    between atoms: C6_10  and  C7_11 
ROOT
HETATM    1  N2  UNL     1      24.254 -16.851   8.275  1.00  0.00    -0.071 N 
ATOM      2  H21 UNL     1      24.605 -17.192   7.380  1.00  0.00     0.277 HD
ATOM      3  H22 UNL     1      25.029 -17.154   8.866  1.00  0.00     0.277 HD
ENDROOT
BRANCH   1   4
HETATM    4  C5  UNL     1      23.014 -17.488   8.646  1.00  0.00     0.262 C 
BRANCH   4   5
HETATM    5  C4  UNL     1      22.496 -18.419   7.605  1.00  0.00     0.299 C 
BRANCH   5   6
HETATM    6  N1  UNL     1      21.705 -17.786   6.602  1.00  0.00     0.090 N 
HETATM    7  C3  UNL     1      20.878 -16.747   7.129  1.00  0.00     0.272 C 
HETATM    8  C2  UNL     1      20.729 -15.708   6.060  1.00  0.00     0.032 C 
HETATM    9  C1  UNL     1      21.725 -16.043   4.971  1.00  0.00     0.032 C 
HETATM   10  C9  UNL     1      22.384 -17.327   5.440  1.00  0.00     0.272 C 
ENDBRANCH   5   6
ENDBRANCH   4   5
ENDBRANCH   1   4
BRANCH   1  11
HETATM   11  C6  UNL     1      24.103 -15.438   8.282  1.00  0.00     0.267 C 
BRANCH  11  12
HETATM   12  C7  UNL     1      24.672 -14.778   7.040  1.00  0.00     0.236 A 
HETATM   13  C8  UNL     1      25.826 -13.838   7.337  1.00  0.00     0.267 A 
HETATM   14  N3  UNL     1      24.544 -13.359   6.847  1.00  0.00    -0.066 N 
ATOM     15  H32 UNL     1      24.272 -12.785   6.048  1.00  0.00     0.277 HD
ATOM     16  H31 UNL     1      23.880 -12.665   7.192  1.00  0.00     0.277 HD
ENDBRANCH  11  12
ENDBRANCH   1  11
TORSDOF 5
ENDMDL
MODEL 5
REMARK VINA RESULT: -5.143967846      1.680      2.441
REMARK  5 active torsions:
REMARK  status: ('A' for Active; 'I' for Inactive)
REMARK    1  A    between atoms: N1_4  and  C4_5 
REMARK    2  A    between atoms: C4_5  and  C5_6 
REMARK    3  A    between atoms: C5_6  and  N2_7 
REMARK    4  A    between atoms: N2_7  and  C6_10 
REMARK    5  A    between atoms: C6_10  and  C7_11 
ROOT
HETATM    1  N2  UNL     1      23.831 -14.901   6.376  1.00  0.00    -0.071 N 
ATOM      2  H21 UNL     1      23.349 -14.101   5.966  1.00  0.00     0.277 HD
ATOM      3  H22 UNL     1      24.259 -15.271   5.528  1.00  0.00     0.277 HD
ENDROOT
BRANCH   1   4
HETATM    4  C5  UNL     1      22.907 -15.841   6.966  1.00  0.00     0.262 C 
BRANCH   4   5
HETATM    5  C4  UNL     1      21.958 -15.211   7.925  1.00  0.00     0.299 C 
BRANCH   5   6
HETATM    6  N1  UNL     1      21.012 -16.117   8.486  1.00  0.00     0.090 N 
HETATM    7  C3  UNL     1      20.322 -16.876   7.491  1.00  0.00     0.272 C 
HETATM    8  C2  UNL     1      20.003 -18.213   8.089  1.00  0.00     0.032 C 
HETATM    9  C1  UNL     1      20.774 -18.315   9.388  1.00  0.00     0.032 C 
HETATM   10  C9  UNL     1      21.476 -16.976   9.520  1.00  0.00     0.272 C 
ENDBRANCH   5   6
ENDBRANCH   4   5
ENDBRANCH   1   4
BRANCH   1  11
HETATM   11  C6  UNL     1      24.803 -14.502   7.331  1.00  0.00     0.267 C 
BRANCH  11  12
HETATM   12  C7  UNL     1      25.921 -13.674   6.725  1.00  0.00     0.236 A 
HETATM   13  C8  UNL     1      26.738 -12.922   7.758  1.00  0.00     0.267 A 
HETATM   14  N3  UNL     1      25.886 -12.238   6.800  1.00  0.00    -0.066 N 
ATOM     15  H32 UNL     1      26.057 -11.500   6.117  1.00  0.00     0.277 HD
ATOM     16  H31 UNL     1      25.127 -11.563   6.898  1.00  0.00     0.277 HD
ENDBRANCH  11  12
ENDBRANCH   1  11
TORSDOF 5
ENDMDL
