MODEL 1
REMARK VINA RESULT: -5.996551312      0.000      0.000
REMARK  7 active torsions:
REMARK  status: ('A' for Active; 'I' for Inactive)
REMARK       I    between atoms: C2_4  and  N2_5 
REMARK       I    between atoms: C2_4  and  N4_9 
REMARK    1  A    between atoms: N4_9  and  C4_11 
REMARK    2  A    between atoms: C4_11  and  C5_12 
REMARK    3  A    between atoms: C5_12  and  S1_13 
REMARK    4  A    between atoms: S1_13  and  C6_14 
REMARK    5  A    between atoms: C6_14  and  C7_15 
REMARK    6  A    between atoms: C7_15  and  N5_16 
REMARK    7  A    between atoms: N5_16  and  C8_18 
ROOT
HETATM    1  C1  UNL     1      -4.339   0.862  12.479  1.00  0.00     0.165 C 
HETATM    2  N1  UNL     1      -4.896   2.143  12.796  1.00  0.00    -0.230 N 
ATOM      3  H1  UNL     1      -5.395   2.623  12.047  1.00  0.00     0.177 HD
HETATM    4  C2  UNL     1      -4.831   2.740  13.913  1.00  0.00     0.682 C 
HETATM    5  N2  UNL     1      -4.151   2.134  15.004  1.00  0.00    -0.126 N 
ATOM      6  H2  UNL     1      -3.211   2.436  15.257  1.00  0.00     0.197 HD
HETATM    7  C3  UNL     1      -4.787   1.115  15.727  1.00  0.00     0.196 C 
HETATM    8  N3  UNL     1      -5.310   0.255  16.313  1.00  0.00    -0.171 NA
HETATM    9  N4  UNL     1      -5.430   4.003  14.075  1.00  0.00    -0.225 N 
ATOM     10  H4  UNL     1      -6.438   4.126  13.981  1.00  0.00     0.177 HD
ENDROOT
BRANCH   9  11
HETATM   11  C4  UNL     1      -4.550   5.133  14.384  1.00  0.00     0.148 C 
BRANCH  11  12
HETATM   12  C5  UNL     1      -4.389   6.046  13.222  1.00  0.00     0.094 C 
BRANCH  12  13
HETATM   13  S1  UNL     1      -2.971   5.684  12.245  1.00  0.00    -0.166 SA
BRANCH  13  14
HETATM   14  C6  UNL     1      -3.108   4.738  10.776  1.00  0.00     0.093 C 
BRANCH  14  15
HETATM   15  C7  UNL     1      -3.794   5.470   9.651  1.00  0.00     0.130 C 
BRANCH  15  16
HETATM   16  N5  UNL     1      -5.242   5.359   9.750  1.00  0.00    -0.389 N 
ATOM     17  H5  UNL     1      -5.630   4.464  10.046  1.00  0.00     0.159 HD
BRANCH  16  18
HETATM   18  C8  UNL     1      -6.147   6.407   9.465  1.00  0.00     0.027 A 
HETATM   19  C9  UNL     1      -6.894   6.448   8.305  1.00  0.00     0.029 A 
HETATM   20  C10 UNL     1      -7.769   7.483   8.017  1.00  0.00     0.002 A 
HETATM   21  C11 UNL     1      -7.911   8.523   8.916  1.00  0.00     0.000 A 
HETATM   22  C12 UNL     1      -7.179   8.512  10.083  1.00  0.00     0.002 A 
HETATM   23  C13 UNL     1      -6.304   7.452  10.346  1.00  0.00     0.029 A 
ENDBRANCH  16  18
ENDBRANCH  15  16
ENDBRANCH  14  15
ENDBRANCH  13  14
ENDBRANCH  12  13
ENDBRANCH  11  12
ENDBRANCH   9  11
TORSDOF 7
ENDMDL
MODEL 2
REMARK VINA RESULT: -5.991755902      0.028      1.086
REMARK  7 active torsions:
REMARK  status: ('A' for Active; 'I' for Inactive)
REMARK       I    between atoms: C2_4  and  N2_5 
REMARK       I    between atoms: C2_4  and  N4_9 
REMARK    1  A    between atoms: N4_9  and  C4_11 
REMARK    2  A    between atoms: C4_11  and  C5_12 
REMARK    3  A    between atoms: C5_12  and  S1_13 
REMARK    4  A    between atoms: S1_13  and  C6_14 
REMARK    5  A    between atoms: C6_14  and  C7_15 
REMARK    6  A    between atoms: C7_15  and  N5_16 
REMARK    7  A    between atoms: N5_16  and  C8_18 
ROOT
HETATM    1  C1  UNL     1      -4.344   0.859  12.464  1.00  0.00     0.165 C 
HETATM    2  N1  UNL     1      -4.894   2.143  12.778  1.00  0.00    -0.230 N 
ATOM      3  H1  UNL     1      -5.390   2.625  12.028  1.00  0.00     0.177 HD
HETATM    4  C2  UNL     1      -4.825   2.744  13.894  1.00  0.00     0.682 C 
HETATM    5  N2  UNL     1      -4.148   2.136  14.985  1.00  0.00    -0.126 N 
ATOM      6  H2  UNL     1      -3.205   2.434  15.237  1.00  0.00     0.197 HD
HETATM    7  C3  UNL     1      -4.789   1.122  15.711  1.00  0.00     0.196 C 
HETATM    8  N3  UNL     1      -5.317   0.267  16.301  1.00  0.00    -0.171 NA
HETATM    9  N4  UNL     1      -5.416   4.010  14.052  1.00  0.00    -0.225 N 
ATOM     10  H4  UNL     1      -6.424   4.139  13.959  1.00  0.00     0.177 HD
ENDROOT
BRANCH   9  11
HETATM   11  C4  UNL     1      -4.529   5.136  14.358  1.00  0.00     0.148 C 
BRANCH  11  12
HETATM   12  C5  UNL     1      -4.368   6.048  13.195  1.00  0.00     0.094 C 
BRANCH  12  13
HETATM   13  S1  UNL     1      -2.955   5.682  12.213  1.00  0.00    -0.166 SA
BRANCH  13  14
HETATM   14  C6  UNL     1      -3.098   4.716  10.757  1.00  0.00     0.093 C 
BRANCH  14  15
HETATM   15  C7  UNL     1      -3.785   5.434   9.624  1.00  0.00     0.130 C 
BRANCH  15  16
HETATM   16  N5  UNL     1      -5.233   5.351   9.743  1.00  0.00    -0.389 N 
ATOM     17  H5  UNL     1      -5.635   4.462  10.041  1.00  0.00     0.159 HD
BRANCH  16  18
HETATM   18  C8  UNL     1      -6.122   6.417   9.475  1.00  0.00     0.027 A 
HETATM   19  C9  UNL     1      -6.288   7.480  10.340  1.00  0.00     0.029 A 
HETATM   20  C10 UNL     1      -7.170   8.518  10.086  1.00  0.00     0.002 A 
HETATM   21  C11 UNL     1      -7.922   8.503   8.927  1.00  0.00     0.000 A 
HETATM   22  C12 UNL     1      -7.779   7.456   8.043  1.00  0.00     0.002 A 
HETATM   23  C13 UNL     1      -6.879   6.423   8.327  1.00  0.00     0.029 A 
ENDBRANCH  16  18
ENDBRANCH  15  16
ENDBRANCH  14  15
ENDBRANCH  13  14
ENDBRANCH  12  13
ENDBRANCH  11  12
ENDBRANCH   9  11
TORSDOF 7
ENDMDL
MODEL 3
REMARK VINA RESULT: -5.940484716      1.256      1.779
REMARK  7 active torsions:
REMARK  status: ('A' for Active; 'I' for Inactive)
REMARK       I    between atoms: C2_4  and  N2_5 
REMARK       I    between atoms: C2_4  and  N4_9 
REMARK    1  A    between atoms: N4_9  and  C4_11 
REMARK    2  A    between atoms: C4_11  and  C5_12 
REMARK    3  A    between atoms: C5_12  and  S1_13 
REMARK    4  A    between atoms: S1_13  and  C6_14 
REMARK    5  A    between atoms: C6_14  and  C7_15 
REMARK    6  A    between atoms: C7_15  and  N5_16 
REMARK    7  A    between atoms: N5_16  and  C8_18 
ROOT
HETATM    1  C1  UNL     1      -4.357   0.787  12.478  1.00  0.00     0.165 C 
HETATM    2  N1  UNL     1      -4.850   2.096  12.783  1.00  0.00    -0.230 N 
ATOM      3  H1  UNL     1      -5.323   2.594  12.029  1.00  0.00     0.177 HD
HETATM    4  C2  UNL     1      -4.758   2.699  13.896  1.00  0.00     0.682 C 
HETATM    5  N2  UNL     1      -4.112   2.069  14.993  1.00  0.00    -0.126 N 
ATOM      6  H2  UNL     1      -3.158   2.326  15.246  1.00  0.00     0.197 HD
HETATM    7  C3  UNL     1      -4.799   1.089  15.723  1.00  0.00     0.196 C 
HETATM    8  N3  UNL     1      -5.365   0.261  16.315  1.00  0.00    -0.171 NA
HETATM    9  N4  UNL     1      -5.294   3.991  14.045  1.00  0.00    -0.225 N 
ATOM     10  H4  UNL     1      -6.295   4.164  13.947  1.00  0.00     0.177 HD
ENDROOT
BRANCH   9  11
HETATM   11  C4  UNL     1      -4.359   5.079  14.346  1.00  0.00     0.148 C 
BRANCH  11  12
HETATM   12  C5  UNL     1      -4.620   6.283  13.514  1.00  0.00     0.094 C 
BRANCH  12  13
HETATM   13  S1  UNL     1      -4.504   5.972  11.786  1.00  0.00    -0.166 SA
BRANCH  13  14
HETATM   14  C6  UNL     1      -5.598   6.748  10.658  1.00  0.00     0.093 C 
BRANCH  14  15
HETATM   15  C7  UNL     1      -5.551   6.158   9.271  1.00  0.00     0.130 C 
BRANCH  15  16
HETATM   16  N5  UNL     1      -6.857   6.201   8.631  1.00  0.00    -0.389 N 
ATOM     17  H5  UNL     1      -7.430   5.358   8.665  1.00  0.00     0.159 HD
BRANCH  16  18
HETATM   18  C8  UNL     1      -7.386   7.330   7.966  1.00  0.00     0.027 A 
HETATM   19  C9  UNL     1      -6.806   7.864   6.833  1.00  0.00     0.029 A 
HETATM   20  C10 UNL     1      -7.314   8.981   6.190  1.00  0.00     0.002 A 
HETATM   21  C11 UNL     1      -8.446   9.597   6.689  1.00  0.00     0.000 A 
HETATM   22  C12 UNL     1      -9.049   9.088   7.819  1.00  0.00     0.002 A 
HETATM   23  C13 UNL     1      -8.512   7.959   8.446  1.00  0.00     0.029 A 
ENDBRANCH  16  18
ENDBRANCH  15  16
ENDBRANCH  14  15
ENDBRANCH  13  14
ENDBRANCH  12  13
ENDBRANCH  11  12
ENDBRANCH   9  11
TORSDOF 7
ENDMDL
MODEL 4
REMARK VINA RESULT: -5.909026636      1.155      1.824
REMARK  7 active torsions:
REMARK  status: ('A' for Active; 'I' for Inactive)
REMARK       I    between atoms: C2_4  and  N2_5 
REMARK       I    between atoms: C2_4  and  N4_9 
REMARK    1  A    between atoms: N4_9  and  C4_11 
REMARK    2  A    between atoms: C4_11  and  C5_12 
REMARK    3  A    between atoms: C5_12  and  S1_13 
REMARK    4  A    between atoms: S1_13  and  C6_14 
REMARK    5  A    between atoms: C6_14  and  C7_15 
REMARK    6  A    between atoms: C7_15  and  N5_16 
REMARK    7  A    between atoms: N5_16  and  C8_18 
ROOT
HETATM    1  C1  UNL     1      -4.346   0.831  12.473  1.00  0.00     0.165 C 
HETATM    2  N1  UNL     1      -4.895   2.126  12.743  1.00  0.00    -0.230 N 
ATOM      3  H1  UNL     1      -5.386   2.584  11.975  1.00  0.00     0.177 HD
HETATM    4  C2  UNL     1      -4.833   2.761  13.840  1.00  0.00     0.682 C 
HETATM    5  N2  UNL     1      -4.164   2.187  14.954  1.00  0.00    -0.126 N 
ATOM      6  H2  UNL     1      -3.223   2.491  15.203  1.00  0.00     0.197 HD
HETATM    7  C3  UNL     1      -4.812   1.198  15.708  1.00  0.00     0.196 C 
HETATM    8  N3  UNL     1      -5.345   0.362  16.320  1.00  0.00    -0.171 NA
HETATM    9  N4  UNL     1      -5.423   4.033  13.955  1.00  0.00    -0.225 N 
ATOM     10  H4  UNL     1      -6.430   4.160  13.850  1.00  0.00     0.177 HD
ENDROOT
BRANCH   9  11
HETATM   11  C4  UNL     1      -4.536   5.167  14.230  1.00  0.00     0.148 C 
BRANCH  11  12
HETATM   12  C5  UNL     1      -3.707   5.524  13.049  1.00  0.00     0.094 C 
BRANCH  12  13
HETATM   13  S1  UNL     1      -4.313   6.925  12.173  1.00  0.00    -0.166 SA
BRANCH  13  14
HETATM   14  C6  UNL     1      -5.728   6.801  11.147  1.00  0.00     0.093 C 
BRANCH  14  15
HETATM   15  C7  UNL     1      -5.438   6.210   9.791  1.00  0.00     0.130 C 
BRANCH  15  16
HETATM   16  N5  UNL     1      -6.640   6.143   8.972  1.00  0.00    -0.389 N 
ATOM     17  H5  UNL     1      -7.137   5.254   8.930  1.00  0.00     0.159 HD
BRANCH  16  18
HETATM   18  C8  UNL     1      -7.166   7.227   8.232  1.00  0.00     0.027 A 
HETATM   19  C9  UNL     1      -8.318   7.890   8.604  1.00  0.00     0.029 A 
HETATM   20  C10 UNL     1      -8.844   8.941   7.871  1.00  0.00     0.002 A 
HETATM   21  C11 UNL     1      -8.202   9.354   6.719  1.00  0.00     0.000 A 
HETATM   22  C12 UNL     1      -7.050   8.712   6.320  1.00  0.00     0.002 A 
HETATM   23  C13 UNL     1      -6.544   7.654   7.083  1.00  0.00     0.029 A 
ENDBRANCH  16  18
ENDBRANCH  15  16
ENDBRANCH  14  15
ENDBRANCH  13  14
ENDBRANCH  12  13
ENDBRANCH  11  12
ENDBRANCH   9  11
TORSDOF 7
ENDMDL
MODEL 5
REMARK VINA RESULT: -5.791622233      2.165      2.421
REMARK  7 active torsions:
REMARK  status: ('A' for Active; 'I' for Inactive)
REMARK       I    between atoms: C2_4  and  N2_5 
REMARK       I    between atoms: C2_4  and  N4_9 
REMARK    1  A    between atoms: N4_9  and  C4_11 
REMARK    2  A    between atoms: C4_11  and  C5_12 
REMARK    3  A    between atoms: C5_12  and  S1_13 
REMARK    4  A    between atoms: S1_13  and  C6_14 
REMARK    5  A    between atoms: C6_14  and  C7_15 
REMARK    6  A    between atoms: C7_15  and  N5_16 
REMARK    7  A    between atoms: N5_16  and  C8_18 
ROOT
HETATM    1  C1  UNL     1      -4.344   0.317  12.723  1.00  0.00     0.165 C 
HETATM    2  N1  UNL     1      -4.759   1.672  12.929  1.00  0.00    -0.230 N 
ATOM      3  H1  UNL     1      -5.149   2.158  12.122  1.00  0.00     0.177 HD
HETATM    4  C2  UNL     1      -4.691   2.328  14.013  1.00  0.00     0.682 C 
HETATM    5  N2  UNL     1      -4.158   1.716  15.180  1.00  0.00    -0.126 N 
ATOM      6  H2  UNL     1      -3.205   1.922  15.480  1.00  0.00     0.197 HD
HETATM    7  C3  UNL     1      -4.957   0.827  15.913  1.00  0.00     0.196 C 
HETATM    8  N3  UNL     1      -5.615   0.074  16.510  1.00  0.00    -0.171 NA
HETATM    9  N4  UNL     1      -5.141   3.660  14.062  1.00  0.00    -0.225 N 
ATOM     10  H4  UNL     1      -6.119   3.895  13.892  1.00  0.00     0.177 HD
ENDROOT
BRANCH   9  11
HETATM   11  C4  UNL     1      -4.151   4.696  14.366  1.00  0.00     0.148 C 
BRANCH  11  12
HETATM   12  C5  UNL     1      -2.952   4.594  13.493  1.00  0.00     0.094 C 
BRANCH  12  13
HETATM   13  S1  UNL     1      -1.764   5.857  13.791  1.00  0.00    -0.166 SA
BRANCH  13  14
HETATM   14  C6  UNL     1      -1.206   6.891  12.490  1.00  0.00     0.093 C 
BRANCH  14  15
HETATM   15  C7  UNL     1      -2.051   8.125  12.297  1.00  0.00     0.130 C 
BRANCH  15  16
HETATM   16  N5  UNL     1      -2.997   7.954  11.204  1.00  0.00    -0.389 N 
ATOM     17  H5  UNL     1      -2.623   7.702  10.289  1.00  0.00     0.159 HD
BRANCH  16  18
HETATM   18  C8  UNL     1      -4.396   8.114  11.322  1.00  0.00     0.027 A 
HETATM   19  C9  UNL     1      -5.054   9.244  10.881  1.00  0.00     0.029 A 
HETATM   20  C10 UNL     1      -6.423   9.409  11.011  1.00  0.00     0.002 A 
HETATM   21  C11 UNL     1      -7.175   8.413  11.605  1.00  0.00     0.000 A 
HETATM   22  C12 UNL     1      -6.547   7.272  12.056  1.00  0.00     0.002 A 
HETATM   23  C13 UNL     1      -5.163   7.135  11.910  1.00  0.00     0.029 A 
ENDBRANCH  16  18
ENDBRANCH  15  16
ENDBRANCH  14  15
ENDBRANCH  13  14
ENDBRANCH  12  13
ENDBRANCH  11  12
ENDBRANCH   9  11
TORSDOF 7
ENDMDL
