MODEL 1
REMARK VINA RESULT: -10.290831296      0.000      0.000
REMARK  6 active torsions:
REMARK  status: ('A' for Active; 'I' for Inactive)
REMARK    1  A    between atoms: N2_5  and  C4_6 
REMARK    2  A    between atoms: C7_9  and  N3_10 
REMARK    3  A    between atoms: N3_10  and  C8_12 
REMARK    4  A    between atoms: N5_16  and  C10_18 
REMARK    5  A    between atoms: C15_23  and  N6_24 
REMARK    6  A    between atoms: C17_29  and  C18_30 
ROOT
HETATM    1  C8  UNL     1      21.501  38.554  49.787  1.00  0.00     0.685 A 
HETATM    2  N4  UNL     1      20.334  37.896  49.652  1.00  0.00    -0.176 N 
ATOM      3  H4  UNL     1      20.153  37.377  48.792  1.00  0.00     0.186 HD
HETATM    4  C9  UNL     1      19.396  37.904  50.627  1.00  0.00     0.133 A 
HETATM    5  N5  UNL     1      18.313  37.267  50.504  1.00  0.00    -0.368 N 
ATOM      6  H5  UNL     1      17.649  37.316  51.277  1.00  0.00     0.161 HD
HETATM    7  C16 UNL     1      19.620  38.599  51.793  1.00  0.00     0.076 A 
HETATM    8  C17 UNL     1      18.695  38.622  52.806  1.00  0.00     0.032 A 
HETATM    9  N8  UNL     1      19.089  39.348  53.899  1.00  0.00    -0.354 N 
ATOM     10  H8  UNL     1      18.435  39.392  54.680  1.00  0.00     0.166 HD
HETATM   11  C23 UNL     1      20.234  39.998  54.043  1.00  0.00     0.182 A 
HETATM   12  N9  UNL     1      21.119  39.969  53.053  1.00  0.00    -0.337 N 
ATOM     13  H9  UNL     1      22.006  40.464  53.145  1.00  0.00     0.168 HD
HETATM   14  C24 UNL     1      20.844  39.292  51.939  1.00  0.00     0.138 A 
HETATM   15  N10 UNL     1      21.724  39.231  50.919  1.00  0.00    -0.175 N 
ATOM     16  H10 UNL     1      22.609  39.728  51.017  1.00  0.00     0.186 HD
ENDROOT
BRANCH   1  17
HETATM   17  N3  UNL     1      22.333  38.491  48.807  1.00  0.00    -0.190 N 
ATOM     18  H3  UNL     1      23.062  39.204  48.799  1.00  0.00     0.184 HD
BRANCH  17  19
HETATM   19  C7  UNL     1      22.369  37.581  47.758  1.00  0.00     0.064 A 
HETATM   20  C6  UNL     1      23.177  37.822  46.669  1.00  0.00     0.035 A 
HETATM   21  C5  UNL     1      23.238  36.919  45.599  1.00  0.00     0.052 A 
HETATM   22  C4  UNL     1      22.486  35.770  45.621  1.00  0.00     0.122 A 
HETATM   23  N11 UNL     1      21.709  35.567  46.700  1.00  0.00    -0.349 N 
HETATM   24  C25 UNL     1      21.627  36.411  47.740  1.00  0.00     0.119 A 
ATOM     25  H11 UNL     1      21.146  34.718  46.729  1.00  0.00     0.167 HD
BRANCH  22  26
HETATM   26  N2  UNL     1      22.502  34.813  44.564  1.00  0.00    -0.273 N 
HETATM   27  C3  UNL     1      21.293  34.076  44.253  1.00  0.00     0.170 C 
HETATM   28  C2  UNL     1      21.032  33.957  42.785  1.00  0.00     0.147 C 
HETATM   29  N1  UNL     1      22.153  34.376  41.966  1.00  0.00    -0.357 N 
HETATM   30  C1  UNL     1      21.947  34.864  40.593  1.00  0.00     0.152 C 
HETATM   31  C26 UNL     1      23.466  34.307  42.515  1.00  0.00     0.205 C 
HETATM   32  N12 UNL     1      23.619  34.524  43.789  1.00  0.00    -0.270 N 
HETATM   33  N13 UNL     1      24.554  34.008  41.655  1.00  0.00    -0.062 NA
ATOM     34  H12 UNL     1      24.546  34.483  44.212  1.00  0.00     0.190 HD
ENDBRANCH  22  26
ENDBRANCH  17  19
ENDBRANCH   1  17
BRANCH   5  35
HETATM   35  C10 UNL     1      17.948  36.488  49.375  1.00  0.00     0.113 C 
HETATM   36  C11 UNL     1      16.968  37.149  48.438  1.00  0.00     0.027 C 
HETATM   37  C12 UNL     1      15.533  36.792  48.715  1.00  0.00     0.002 C 
HETATM   38  C13 UNL     1      15.243  35.325  48.618  1.00  0.00     0.002 C 
HETATM   39  C14 UNL     1      16.541  34.511  48.705  1.00  0.00     0.035 C 
HETATM   40  C15 UNL     1      17.366  35.144  49.775  1.00  0.00     0.206 C 
BRANCH  40  41
HETATM   41  N6  UNL     1      18.383  34.216  50.206  1.00  0.00    -0.073 N 
ATOM     42  H63 UNL     1      19.101  34.097  49.491  1.00  0.00     0.274 HD
ATOM     43  H62 UNL     1      18.957  34.615  50.948  1.00  0.00     0.274 HD
ATOM     44  H61 UNL     1      17.991  33.317  50.487  1.00  0.00     0.274 HD
ENDBRANCH  40  41
ENDBRANCH   5  35
BRANCH   8  45
HETATM   45  C18 UNL     1      17.389  37.986  52.720  1.00  0.00     0.040 C 
HETATM   46  C19 UNL     1      17.634  36.675  53.563  1.00  0.00     0.038 C 
HETATM   47  C20 UNL     1      17.463  36.888  55.008  1.00  0.00     0.233 C 
HETATM   48  N7  UNL     1      16.013  36.809  55.277  1.00  0.00    -0.075 N 
HETATM   49  C21 UNL     1      15.420  37.470  54.143  1.00  0.00     0.233 C 
ATOM     50  H72 UNL     1      15.666  35.865  55.444  1.00  0.00     0.277 HD
ATOM     51  H71 UNL     1      15.731  37.189  56.181  1.00  0.00     0.277 HD
HETATM   52  C22 UNL     1      16.318  38.585  53.608  1.00  0.00     0.038 C 
ENDBRANCH   8  45
TORSDOF 6
ENDMDL
MODEL 2
REMARK VINA RESULT: -10.183552024      1.832      2.655
REMARK  6 active torsions:
REMARK  status: ('A' for Active; 'I' for Inactive)
REMARK    1  A    between atoms: N2_5  and  C4_6 
REMARK    2  A    between atoms: C7_9  and  N3_10 
REMARK    3  A    between atoms: N3_10  and  C8_12 
REMARK    4  A    between atoms: N5_16  and  C10_18 
REMARK    5  A    between atoms: C15_23  and  N6_24 
REMARK    6  A    between atoms: C17_29  and  C18_30 
ROOT
HETATM    1  C8  UNL     1      22.236  37.694  47.881  1.00  0.00     0.685 A 
HETATM    2  N4  UNL     1      20.992  37.246  48.138  1.00  0.00    -0.176 N 
ATOM      3  H4  UNL     1      20.541  36.622  47.469  1.00  0.00     0.186 HD
HETATM    4  C9  UNL     1      20.326  37.601  49.261  1.00  0.00     0.133 A 
HETATM    5  N5  UNL     1      19.169  37.160  49.508  1.00  0.00    -0.368 N 
ATOM      6  H5  UNL     1      18.723  37.468  50.372  1.00  0.00     0.161 HD
HETATM    7  C16 UNL     1      20.916  38.443  50.175  1.00  0.00     0.076 A 
HETATM    8  C17 UNL     1      20.274  38.816  51.329  1.00  0.00     0.032 A 
HETATM    9  N8  UNL     1      21.014  39.645  52.131  1.00  0.00    -0.354 N 
ATOM     10  H8  UNL     1      20.579  39.948  53.002  1.00  0.00     0.166 HD
HETATM   11  C23 UNL     1      22.237  40.091  51.890  1.00  0.00     0.182 A 
HETATM   12  N9  UNL     1      22.845  39.722  50.768  1.00  0.00    -0.337 N 
ATOM     13  H9  UNL     1      23.788  40.056  50.563  1.00  0.00     0.168 HD
HETATM   14  C24 UNL     1      22.222  38.916  49.910  1.00  0.00     0.138 A 
HETATM   15  N10 UNL     1      22.814  38.512  48.768  1.00  0.00    -0.175 N 
ATOM     16  H10 UNL     1      23.756  38.850  48.569  1.00  0.00     0.186 HD
ENDROOT
BRANCH   1  17
HETATM   17  N3  UNL     1      22.791  37.304  46.788  1.00  0.00    -0.190 N 
ATOM     18  H3  UNL     1      23.807  37.390  46.753  1.00  0.00     0.184 HD
BRANCH  17  19
HETATM   19  C7  UNL     1      22.191  36.782  45.649  1.00  0.00     0.064 A 
HETATM   20  C6  UNL     1      21.917  37.606  44.580  1.00  0.00     0.035 A 
HETATM   21  C5  UNL     1      21.317  37.106  43.416  1.00  0.00     0.052 A 
HETATM   22  C4  UNL     1      20.992  35.775  43.323  1.00  0.00     0.122 A 
HETATM   23  N11 UNL     1      21.275  35.000  44.386  1.00  0.00    -0.349 N 
HETATM   24  C25 UNL     1      21.847  35.446  45.515  1.00  0.00     0.119 A 
ATOM     25  H11 UNL     1      21.039  34.010  44.330  1.00  0.00     0.167 HD
BRANCH  22  26
HETATM   26  N2  UNL     1      20.380  35.205  42.169  1.00  0.00    -0.273 N 
HETATM   27  C3  UNL     1      19.195  34.384  42.323  1.00  0.00     0.170 C 
HETATM   28  C2  UNL     1      18.139  34.671  41.304  1.00  0.00     0.147 C 
HETATM   29  N1  UNL     1      18.598  35.521  40.222  1.00  0.00    -0.357 N 
HETATM   30  C1  UNL     1      17.654  36.355  39.462  1.00  0.00     0.152 C 
HETATM   31  C26 UNL     1      19.988  35.536  39.906  1.00  0.00     0.205 C 
HETATM   32  N12 UNL     1      20.846  35.380  40.871  1.00  0.00    -0.270 N 
HETATM   33  N13 UNL     1      20.381  35.721  38.556  1.00  0.00    -0.062 NA
ATOM     34  H12 UNL     1      21.847  35.386  40.677  1.00  0.00     0.190 HD
ENDBRANCH  22  26
ENDBRANCH  17  19
ENDBRANCH   1  17
BRANCH   5  35
HETATM   35  C10 UNL     1      18.441  36.269  48.676  1.00  0.00     0.113 C 
HETATM   36  C11 UNL     1      17.327  36.907  47.885  1.00  0.00     0.027 C 
HETATM   37  C12 UNL     1      15.984  36.826  48.559  1.00  0.00     0.002 C 
HETATM   38  C13 UNL     1      15.524  35.426  48.829  1.00  0.00     0.002 C 
HETATM   39  C14 UNL     1      16.705  34.448  48.767  1.00  0.00     0.035 C 
HETATM   40  C15 UNL     1      17.844  35.116  49.462  1.00  0.00     0.206 C 
BRANCH  40  41
HETATM   41  N6  UNL     1      18.833  34.128  49.818  1.00  0.00    -0.073 N 
ATOM     42  H63 UNL     1      19.623  34.148  49.173  1.00  0.00     0.274 HD
ATOM     43  H62 UNL     1      19.319  34.384  50.677  1.00  0.00     0.274 HD
ATOM     44  H61 UNL     1      18.435  33.190  49.884  1.00  0.00     0.274 HD
ENDBRANCH  40  41
ENDBRANCH   5  35
BRANCH   8  45
HETATM   45  C18 UNL     1      18.912  38.424  51.656  1.00  0.00     0.040 C 
HETATM   46  C19 UNL     1      19.126  37.725  53.055  1.00  0.00     0.038 C 
HETATM   47  C20 UNL     1      19.145  38.682  54.172  1.00  0.00     0.233 C 
HETATM   48  N7  UNL     1      17.735  38.964  54.510  1.00  0.00    -0.075 N 
HETATM   49  C21 UNL     1      17.081  39.014  53.228  1.00  0.00     0.233 C 
ATOM     50  H72 UNL     1      17.320  38.306  55.170  1.00  0.00     0.277 HD
ATOM     51  H71 UNL     1      17.598  39.794  55.086  1.00  0.00     0.277 HD
HETATM   52  C22 UNL     1      18.013  39.544  52.140  1.00  0.00     0.038 C 
ENDBRANCH   8  45
TORSDOF 6
ENDMDL
MODEL 3
REMARK VINA RESULT: -10.083858809      2.038      3.062
REMARK  6 active torsions:
REMARK  status: ('A' for Active; 'I' for Inactive)
REMARK    1  A    between atoms: N2_5  and  C4_6 
REMARK    2  A    between atoms: C7_9  and  N3_10 
REMARK    3  A    between atoms: N3_10  and  C8_12 
REMARK    4  A    between atoms: N5_16  and  C10_18 
REMARK    5  A    between atoms: C15_23  and  N6_24 
REMARK    6  A    between atoms: C17_29  and  C18_30 
ROOT
HETATM    1  C8  UNL     1      22.145  37.461  47.525  1.00  0.00     0.685 A 
HETATM    2  N4  UNL     1      20.900  36.984  47.712  1.00  0.00    -0.176 N 
ATOM      3  H4  UNL     1      20.498  36.358  47.014  1.00  0.00     0.186 HD
HETATM    4  C9  UNL     1      20.167  37.314  48.800  1.00  0.00     0.133 A 
HETATM    5  N5  UNL     1      19.009  36.847  48.981  1.00  0.00    -0.368 N 
ATOM      6  H5  UNL     1      18.511  37.137  49.823  1.00  0.00     0.161 HD
HETATM    7  C16 UNL     1      20.690  38.160  49.752  1.00  0.00     0.076 A 
HETATM    8  C17 UNL     1      19.979  38.508  50.872  1.00  0.00     0.032 A 
HETATM    9  N8  UNL     1      20.657  39.344  51.721  1.00  0.00    -0.354 N 
ATOM     10  H8  UNL     1      20.170  39.629  52.569  1.00  0.00     0.166 HD
HETATM   11  C23 UNL     1      21.881  39.818  51.549  1.00  0.00     0.182 A 
HETATM   12  N9  UNL     1      22.557  39.473  50.458  1.00  0.00    -0.337 N 
ATOM     13  H9  UNL     1      23.501  39.828  50.307  1.00  0.00     0.168 HD
HETATM   14  C24 UNL     1      21.997  38.662  49.561  1.00  0.00     0.138 A 
HETATM   15  N10 UNL     1      22.658  38.282  48.449  1.00  0.00    -0.175 N 
ATOM     16  H10 UNL     1      23.602  38.642  48.304  1.00  0.00     0.186 HD
ENDROOT
BRANCH   1  17
HETATM   17  N3  UNL     1      22.766  37.094  46.460  1.00  0.00    -0.190 N 
ATOM     18  H3  UNL     1      23.754  36.868  46.579  1.00  0.00     0.184 HD
BRANCH  17  19
HETATM   19  C7  UNL     1      22.271  36.964  45.169  1.00  0.00     0.064 A 
HETATM   20  C6  UNL     1      23.125  36.652  44.135  1.00  0.00     0.035 A 
HETATM   21  C5  UNL     1      22.653  36.509  42.824  1.00  0.00     0.052 A 
HETATM   22  C4  UNL     1      21.318  36.680  42.547  1.00  0.00     0.122 A 
HETATM   23  N11 UNL     1      20.513  36.984  43.581  1.00  0.00    -0.349 N 
HETATM   24  C25 UNL     1      20.933  37.128  44.848  1.00  0.00     0.119 A 
ATOM     25  H11 UNL     1      19.520  37.113  43.390  1.00  0.00     0.167 HD
BRANCH  22  26
HETATM   26  N2  UNL     1      20.775  36.550  41.236  1.00  0.00    -0.273 N 
HETATM   27  C3  UNL     1      21.659  36.259  40.124  1.00  0.00     0.170 C 
HETATM   28  C2  UNL     1      21.112  35.230  39.186  1.00  0.00     0.147 C 
HETATM   29  N1  UNL     1      19.718  34.914  39.427  1.00  0.00    -0.357 N 
HETATM   30  C1  UNL     1      19.160  33.608  39.041  1.00  0.00     0.152 C 
HETATM   31  C26 UNL     1      18.891  35.893  40.050  1.00  0.00     0.205 C 
HETATM   32  N12 UNL     1      19.424  36.686  40.933  1.00  0.00    -0.270 N 
HETATM   33  N13 UNL     1      17.522  35.966  39.686  1.00  0.00    -0.062 NA
ATOM     34  H12 UNL     1      18.860  37.397  41.397  1.00  0.00     0.190 HD
ENDBRANCH  22  26
ENDBRANCH  17  19
ENDBRANCH   1  17
BRANCH   5  35
HETATM   35  C10 UNL     1      18.345  35.950  48.104  1.00  0.00     0.113 C 
HETATM   36  C11 UNL     1      17.223  36.559  47.301  1.00  0.00     0.027 C 
HETATM   37  C12 UNL     1      15.868  36.396  47.936  1.00  0.00     0.002 C 
HETATM   38  C13 UNL     1      15.468  34.967  48.152  1.00  0.00     0.002 C 
HETATM   39  C14 UNL     1      16.695  34.048  48.094  1.00  0.00     0.035 C 
HETATM   40  C15 UNL     1      17.782  34.747  48.839  1.00  0.00     0.206 C 
BRANCH  40  41
HETATM   41  N6  UNL     1      18.808  33.794  49.192  1.00  0.00    -0.073 N 
ATOM     42  H63 UNL     1      19.235  34.027  50.088  1.00  0.00     0.274 HD
ATOM     43  H62 UNL     1      18.404  32.890  49.435  1.00  0.00     0.274 HD
ATOM     44  H61 UNL     1      19.513  33.699  48.461  1.00  0.00     0.274 HD
ENDBRANCH  40  41
ENDBRANCH   5  35
BRANCH   8  45
HETATM   45  C18 UNL     1      18.610  38.085  51.123  1.00  0.00     0.040 C 
HETATM   46  C19 UNL     1      18.810  37.132  52.365  1.00  0.00     0.038 C 
HETATM   47  C20 UNL     1      18.844  37.861  53.642  1.00  0.00     0.233 C 
HETATM   48  N7  UNL     1      17.439  38.098  54.030  1.00  0.00    -0.075 N 
HETATM   49  C21 UNL     1      16.787  38.399  52.781  1.00  0.00     0.233 C 
ATOM     50  H72 UNL     1      17.012  37.335  54.555  1.00  0.00     0.277 HD
ATOM     51  H71 UNL     1      17.316  38.808  54.752  1.00  0.00     0.277 HD
HETATM   52  C22 UNL     1      17.730  39.109  51.811  1.00  0.00     0.038 C 
ENDBRANCH   8  45
TORSDOF 6
ENDMDL
MODEL 4
REMARK VINA RESULT: -10.066992888      1.475      2.273
REMARK  6 active torsions:
REMARK  status: ('A' for Active; 'I' for Inactive)
REMARK    1  A    between atoms: N2_5  and  C4_6 
REMARK    2  A    between atoms: C7_9  and  N3_10 
REMARK    3  A    between atoms: N3_10  and  C8_12 
REMARK    4  A    between atoms: N5_16  and  C10_18 
REMARK    5  A    between atoms: C15_23  and  N6_24 
REMARK    6  A    between atoms: C17_29  and  C18_30 
ROOT
HETATM    1  C8  UNL     1      22.304  37.807  47.857  1.00  0.00     0.685 A 
HETATM    2  N4  UNL     1      21.049  37.351  48.034  1.00  0.00    -0.176 N 
ATOM      3  H4  UNL     1      20.629  36.760  47.316  1.00  0.00     0.186 HD
HETATM    4  C9  UNL     1      20.330  37.657  49.139  1.00  0.00     0.133 A 
HETATM    5  N5  UNL     1      19.163  37.210  49.310  1.00  0.00    -0.368 N 
ATOM      6  H5  UNL     1      18.677  37.479  50.166  1.00  0.00     0.161 HD
HETATM    7  C16 UNL     1      20.878  38.455  50.118  1.00  0.00     0.076 A 
HETATM    8  C17 UNL     1      20.181  38.777  51.255  1.00  0.00     0.032 A 
HETATM    9  N8  UNL     1      20.883  39.566  52.129  1.00  0.00    -0.354 N 
ATOM     10  H8  UNL     1      20.408  39.830  52.991  1.00  0.00     0.166 HD
HETATM   11  C23 UNL     1      22.117  40.018  51.966  1.00  0.00     0.182 A 
HETATM   12  N9  UNL     1      22.778  39.699  50.859  1.00  0.00    -0.337 N 
ATOM     13  H9  UNL     1      23.729  40.039  50.715  1.00  0.00     0.168 HD
HETATM   14  C24 UNL     1      22.195  38.935  49.936  1.00  0.00     0.138 A 
HETATM   15  N10 UNL     1      22.840  38.582  48.807  1.00  0.00    -0.175 N 
ATOM     16  H10 UNL     1      23.791  38.925  48.668  1.00  0.00     0.186 HD
ENDROOT
BRANCH   1  17
HETATM   17  N3  UNL     1      22.910  37.465  46.775  1.00  0.00    -0.190 N 
ATOM     18  H3  UNL     1      23.893  37.729  46.716  1.00  0.00     0.184 HD
BRANCH  17  19
HETATM   19  C7  UNL     1      22.403  36.785  45.674  1.00  0.00     0.064 A 
HETATM   20  C6  UNL     1      22.139  37.468  44.509  1.00  0.00     0.035 A 
HETATM   21  C5  UNL     1      21.632  36.808  43.382  1.00  0.00     0.052 A 
HETATM   22  C4  UNL     1      21.391  35.456  43.423  1.00  0.00     0.122 A 
HETATM   23  N11 UNL     1      21.661  34.821  44.578  1.00  0.00    -0.349 N 
HETATM   24  C25 UNL     1      22.145  35.424  45.675  1.00  0.00     0.119 A 
ATOM     25  H11 UNL     1      21.486  33.818  44.622  1.00  0.00     0.167 HD
BRANCH  22  26
HETATM   26  N2  UNL     1      20.875  34.725  42.313  1.00  0.00    -0.273 N 
HETATM   27  C3  UNL     1      19.564  35.055  41.790  1.00  0.00     0.170 C 
HETATM   28  C2  UNL     1      19.513  35.090  40.296  1.00  0.00     0.147 C 
HETATM   29  N1  UNL     1      20.701  34.548  39.666  1.00  0.00    -0.357 N 
HETATM   30  C1  UNL     1      21.104  34.974  38.317  1.00  0.00     0.152 C 
HETATM   31  C26 UNL     1      21.478  33.590  40.381  1.00  0.00     0.205 C 
HETATM   32  N12 UNL     1      21.553  33.692  41.675  1.00  0.00    -0.270 N 
HETATM   33  N13 UNL     1      22.140  32.567  39.655  1.00  0.00    -0.062 NA
ATOM     34  H12 UNL     1      22.101  33.023  42.215  1.00  0.00     0.190 HD
ENDBRANCH  22  26
ENDBRANCH  17  19
ENDBRANCH   1  17
BRANCH   5  35
HETATM   35  C10 UNL     1      18.474  36.360  48.405  1.00  0.00     0.113 C 
HETATM   36  C11 UNL     1      17.421  37.043  47.569  1.00  0.00     0.027 C 
HETATM   37  C12 UNL     1      16.038  36.964  48.156  1.00  0.00     0.002 C 
HETATM   38  C13 UNL     1      15.540  35.564  48.348  1.00  0.00     0.002 C 
HETATM   39  C14 UNL     1      16.707  34.568  48.326  1.00  0.00     0.035 C 
HETATM   40  C15 UNL     1      17.811  35.192  49.113  1.00  0.00     0.206 C 
BRANCH  40  41
HETATM   41  N6  UNL     1      18.760  34.175  49.495  1.00  0.00    -0.073 N 
ATOM     42  H63 UNL     1      18.435  33.247  49.224  1.00  0.00     0.274 HD
ATOM     43  H62 UNL     1      19.603  34.224  48.923  1.00  0.00     0.274 HD
ATOM     44  H61 UNL     1      18.986  34.211  50.489  1.00  0.00     0.274 HD
ENDBRANCH  40  41
ENDBRANCH   5  35
BRANCH   8  45
HETATM   45  C18 UNL     1      18.805  38.375  51.499  1.00  0.00     0.040 C 
HETATM   46  C19 UNL     1      18.978  37.459  52.772  1.00  0.00     0.038 C 
HETATM   47  C20 UNL     1      19.002  38.226  54.027  1.00  0.00     0.233 C 
HETATM   48  N7  UNL     1      17.595  38.489  54.388  1.00  0.00    -0.075 N 
HETATM   49  C21 UNL     1      16.963  38.759  53.121  1.00  0.00     0.233 C 
ATOM     50  H72 UNL     1      17.152  37.747  54.930  1.00  0.00     0.277 HD
ATOM     51  H71 UNL     1      17.469  39.222  55.085  1.00  0.00     0.277 HD
HETATM   52  C22 UNL     1      17.926  39.429  52.143  1.00  0.00     0.038 C 
ENDBRANCH   8  45
TORSDOF 6
ENDMDL
MODEL 5
REMARK VINA RESULT: -10.054824306      2.207      9.204
REMARK  6 active torsions:
REMARK  status: ('A' for Active; 'I' for Inactive)
REMARK    1  A    between atoms: N2_5  and  C4_6 
REMARK    2  A    between atoms: C7_9  and  N3_10 
REMARK    3  A    between atoms: N3_10  and  C8_12 
REMARK    4  A    between atoms: N5_16  and  C10_18 
REMARK    5  A    between atoms: C15_23  and  N6_24 
REMARK    6  A    between atoms: C17_29  and  C18_30 
ROOT
HETATM    1  C8  UNL     1      21.765  38.156  48.999  1.00  0.00     0.685 A 
HETATM    2  N4  UNL     1      21.151  37.233  48.234  1.00  0.00    -0.176 N 
ATOM      3  H4  UNL     1      20.242  36.872  48.524  1.00  0.00     0.186 HD
HETATM    4  C9  UNL     1      21.708  36.774  47.090  1.00  0.00     0.133 A 
HETATM    5  N5  UNL     1      21.118  35.925  46.365  1.00  0.00    -0.368 N 
ATOM      6  H5  UNL     1      21.594  35.621  45.515  1.00  0.00     0.161 HD
HETATM    7  C16 UNL     1      22.933  37.248  46.681  1.00  0.00     0.076 A 
HETATM    8  C17 UNL     1      23.523  36.811  45.522  1.00  0.00     0.032 A 
HETATM    9  N8  UNL     1      24.733  37.399  45.261  1.00  0.00    -0.354 N 
ATOM     10  H8  UNL     1      25.210  37.108  44.408  1.00  0.00     0.166 HD
HETATM   11  C23 UNL     1      25.345  38.307  46.005  1.00  0.00     0.182 A 
HETATM   12  N9  UNL     1      24.763  38.719  47.126  1.00  0.00    -0.337 N 
ATOM     13  H9  UNL     1      25.219  39.418  47.713  1.00  0.00     0.168 HD
HETATM   14  C24 UNL     1      23.581  38.216  47.482  1.00  0.00     0.138 A 
HETATM   15  N10 UNL     1      22.956  38.620  48.606  1.00  0.00    -0.175 N 
ATOM     16  H10 UNL     1      23.418  39.318  49.189  1.00  0.00     0.186 HD
ENDROOT
BRANCH   1  17
HETATM   17  N3  UNL     1      21.160  38.533  50.071  1.00  0.00    -0.190 N 
ATOM     18  H3  UNL     1      21.549  39.354  50.533  1.00  0.00     0.184 HD
BRANCH  17  19
HETATM   19  C7  UNL     1      20.048  37.969  50.683  1.00  0.00     0.064 A 
HETATM   20  C6  UNL     1      20.214  37.022  51.668  1.00  0.00     0.035 A 
HETATM   21  C5  UNL     1      19.110  36.440  52.306  1.00  0.00     0.052 A 
HETATM   22  C4  UNL     1      17.835  36.810  51.956  1.00  0.00     0.122 A 
HETATM   23  N11 UNL     1      17.710  37.738  50.991  1.00  0.00    -0.349 N 
HETATM   24  C25 UNL     1      18.745  38.314  50.359  1.00  0.00     0.119 A 
ATOM     25  H11 UNL     1      16.769  38.023  50.721  1.00  0.00     0.167 HD
BRANCH  22  26
HETATM   26  N2  UNL     1      16.671  36.256  52.565  1.00  0.00    -0.273 N 
HETATM   27  C3  UNL     1      15.811  35.382  51.793  1.00  0.00     0.170 C 
HETATM   28  C2  UNL     1      15.356  34.176  52.552  1.00  0.00     0.147 C 
HETATM   29  N1  UNL     1      15.651  34.243  53.970  1.00  0.00    -0.357 N 
HETATM   30  C1  UNL     1      15.811  33.018  54.769  1.00  0.00     0.152 C 
HETATM   31  C26 UNL     1      15.787  35.523  54.582  1.00  0.00     0.205 C 
HETATM   32  N12 UNL     1      16.288  36.497  53.880  1.00  0.00    -0.270 N 
HETATM   33  N13 UNL     1      15.373  35.686  55.929  1.00  0.00    -0.062 NA
ATOM     34  H12 UNL     1      16.398  37.425  54.289  1.00  0.00     0.190 HD
ENDBRANCH  22  26
ENDBRANCH  17  19
ENDBRANCH   1  17
BRANCH   5  35
HETATM   35  C10 UNL     1      19.844  35.362  46.640  1.00  0.00     0.113 C 
HETATM   36  C11 UNL     1      19.841  33.867  46.838  1.00  0.00     0.027 C 
HETATM   37  C12 UNL     1      19.529  33.093  45.586  1.00  0.00     0.002 C 
HETATM   38  C13 UNL     1      18.192  33.414  44.990  1.00  0.00     0.002 C 
HETATM   39  C14 UNL     1      17.668  34.751  45.530  1.00  0.00     0.035 C 
HETATM   40  C15 UNL     1      18.833  35.684  45.554  1.00  0.00     0.206 C 
BRANCH  40  41
HETATM   41  N6  UNL     1      18.356  37.043  45.637  1.00  0.00    -0.073 N 
ATOM     42  H63 UNL     1      19.091  37.707  45.395  1.00  0.00     0.274 HD
ATOM     43  H62 UNL     1      17.697  37.249  44.887  1.00  0.00     0.274 HD
ATOM     44  H61 UNL     1      17.954  37.255  46.551  1.00  0.00     0.274 HD
ENDBRANCH  40  41
ENDBRANCH   5  35
BRANCH   8  45
HETATM   45  C18 UNL     1      22.957  35.778  44.668  1.00  0.00     0.040 C 
HETATM   46  C19 UNL     1      22.894  36.531  43.283  1.00  0.00     0.038 C 
HETATM   47  C20 UNL     1      24.166  36.476  42.547  1.00  0.00     0.233 C 
HETATM   48  N7  UNL     1      24.197  35.172  41.855  1.00  0.00    -0.075 N 
HETATM   49  C21 UNL     1      23.612  34.266  42.810  1.00  0.00     0.233 C 
ATOM     50  H72 UNL     1      23.745  35.169  40.940  1.00  0.00     0.277 HD
ATOM     51  H71 UNL     1      25.119  34.894  41.521  1.00  0.00     0.277 HD
HETATM   52  C22 UNL     1      23.919  34.686  44.246  1.00  0.00     0.038 C 
ENDBRANCH   8  45
TORSDOF 6
ENDMDL
