MODEL 1
REMARK VINA RESULT: -9.528430764      0.000      0.000
REMARK  11 active torsions:
REMARK  status: ('A' for Active; 'I' for Inactive)
REMARK    1  A    between atoms: C2_2  and  C3_3 
REMARK    2  A    between atoms: C2_2  and  N1_17 
REMARK    3  A    between atoms: C4_4  and  C5_5 
REMARK    4  A    between atoms: C5_5  and  C6_6 
REMARK    5  A    between atoms: C10_11  and  C11_12 
REMARK    6  A    between atoms: N1_17  and  C14_19 
REMARK    7  A    between atoms: C14_19  and  C15_20 
REMARK    8  A    between atoms: C15_20  and  O3_21 
REMARK    9  A    between atoms: O3_21  and  C16_22 
REMARK   10  A    between atoms: C18_24  and  C19_25 
REMARK   11  A    between atoms: C21_30  and  C22_31 
ROOT
HETATM    1  N1  UNL     1      61.752  42.811  18.495  1.00  0.00    -0.412 N 
ATOM      2  H1  UNL     1      61.585  41.914  18.038  1.00  0.00     0.153 HD
ENDROOT
BRANCH   1   3
HETATM    3  C2  UNL     1      60.681  43.732  18.822  1.00  0.00     0.095 C 
HETATM    4  C1  UNL     1      61.239  45.151  18.991  1.00  0.00     0.036 C 
BRANCH   3   5
HETATM    5  C3  UNL     1      60.273  43.366  20.219  1.00  0.00    -0.007 C 
HETATM    6  C4  UNL     1      59.807  42.228  20.676  1.00  0.00    -0.026 C 
BRANCH   6   7
HETATM    7  C5  UNL     1      59.497  42.205  22.140  1.00  0.00     0.067 C 
BRANCH   7   8
HETATM    8  C6  UNL     1      58.673  41.093  22.631  1.00  0.00     0.098 C 
HETATM    9  C7  UNL     1      58.771  39.871  21.751  1.00  0.00     0.050 C 
HETATM   10  C8  UNL     1      57.180  41.452  22.598  1.00  0.00     0.081 C 
HETATM   11  C9  UNL     1      56.628  40.883  23.928  1.00  0.00     0.205 C 
HETATM   12  F1  UNL     1      55.271  40.949  23.786  1.00  0.00    -0.246 F 
HETATM   13  C10 UNL     1      57.193  41.817  24.973  1.00  0.00     0.198 C 
HETATM   14  O1  UNL     1      58.560  41.902  24.685  1.00  0.00    -0.232 OA
HETATM   15  O2  UNL     1      58.959  40.868  23.961  1.00  0.00    -0.229 OA
BRANCH  13  16
HETATM   16  C11 UNL     1      57.016  41.380  26.374  1.00  0.00     0.020 A 
HETATM   17  C12 UNL     1      55.730  41.221  27.071  1.00  0.00     0.008 A 
HETATM   18  C13 UNL     1      56.458  42.508  27.299  1.00  0.00     0.008 A 
ENDBRANCH  13  16
ENDBRANCH   7   8
ENDBRANCH   6   7
ENDBRANCH   3   5
ENDBRANCH   1   3
BRANCH   1  19
HETATM   19  C14 UNL     1      63.053  43.254  18.860  1.00  0.00     0.141 C 
BRANCH  19  20
HETATM   20  C15 UNL     1      63.776  42.574  19.961  1.00  0.00     0.195 C 
BRANCH  20  21
HETATM   21  O3  UNL     1      63.224  41.507  20.604  1.00  0.00    -0.350 OA
BRANCH  21  22
HETATM   22  C16 UNL     1      63.174  41.075  21.881  1.00  0.00     0.070 A 
HETATM   23  C17 UNL     1      62.715  41.928  22.915  1.00  0.00     0.052 A 
HETATM   24  C18 UNL     1      62.668  41.480  24.206  1.00  0.00     0.051 A 
HETATM   25  C20 UNL     1      63.056  40.196  24.578  1.00  0.00     0.032 A 
HETATM   26  C21 UNL     1      63.502  39.359  23.585  1.00  0.00     0.051 A 
HETATM   27  C23 UNL     1      63.545  39.829  22.279  1.00  0.00     0.052 A 
BRANCH  24  28
HETATM   28  C19 UNL     1      62.153  42.416  25.267  1.00  0.00     0.417 C 
HETATM   29  F2  UNL     1      61.413  41.686  26.182  1.00  0.00    -0.166 F 
HETATM   30  F3  UNL     1      61.372  43.382  24.701  1.00  0.00    -0.166 F 
HETATM   31  F4  UNL     1      63.232  42.974  25.877  1.00  0.00    -0.166 F 
ENDBRANCH  24  28
BRANCH  26  32
HETATM   32  C22 UNL     1      63.961  37.978  23.888  1.00  0.00     0.417 C 
HETATM   33  F5  UNL     1      62.936  37.171  24.287  1.00  0.00    -0.166 F 
HETATM   34  F6  UNL     1      64.575  37.491  22.753  1.00  0.00    -0.166 F 
HETATM   35  F7  UNL     1      64.960  38.059  24.863  1.00  0.00    -0.166 F 
ENDBRANCH  26  32
ENDBRANCH  21  22
ENDBRANCH  20  21
ENDBRANCH  19  20
ENDBRANCH   1  19
TORSDOF 11
ENDMDL
MODEL 2
REMARK VINA RESULT: -9.488326326      0.161      2.926
REMARK  11 active torsions:
REMARK  status: ('A' for Active; 'I' for Inactive)
REMARK    1  A    between atoms: C2_2  and  C3_3 
REMARK    2  A    between atoms: C2_2  and  N1_17 
REMARK    3  A    between atoms: C4_4  and  C5_5 
REMARK    4  A    between atoms: C5_5  and  C6_6 
REMARK    5  A    between atoms: C10_11  and  C11_12 
REMARK    6  A    between atoms: N1_17  and  C14_19 
REMARK    7  A    between atoms: C14_19  and  C15_20 
REMARK    8  A    between atoms: C15_20  and  O3_21 
REMARK    9  A    between atoms: O3_21  and  C16_22 
REMARK   10  A    between atoms: C18_24  and  C19_25 
REMARK   11  A    between atoms: C21_30  and  C22_31 
ROOT
HETATM    1  N1  UNL     1      61.881  42.862  18.568  1.00  0.00    -0.412 N 
ATOM      2  H1  UNL     1      61.798  41.987  18.050  1.00  0.00     0.153 HD
ENDROOT
BRANCH   1   3
HETATM    3  C2  UNL     1      60.743  43.717  18.845  1.00  0.00     0.095 C 
HETATM    4  C1  UNL     1      61.203  45.172  18.998  1.00  0.00     0.036 C 
BRANCH   3   5
HETATM    5  C3  UNL     1      60.320  43.354  20.238  1.00  0.00    -0.007 C 
HETATM    6  C4  UNL     1      59.822  42.226  20.685  1.00  0.00    -0.026 C 
BRANCH   6   7
HETATM    7  C5  UNL     1      59.504  42.202  22.147  1.00  0.00     0.067 C 
BRANCH   7   8
HETATM    8  C6  UNL     1      58.679  41.088  22.634  1.00  0.00     0.098 C 
HETATM    9  C7  UNL     1      58.781  39.868  21.753  1.00  0.00     0.050 C 
HETATM   10  C8  UNL     1      57.186  41.446  22.596  1.00  0.00     0.081 C 
HETATM   11  C9  UNL     1      56.630  40.874  23.923  1.00  0.00     0.205 C 
HETATM   12  F1  UNL     1      55.273  40.939  23.777  1.00  0.00    -0.246 F 
HETATM   13  C10 UNL     1      57.190  41.808  24.971  1.00  0.00     0.198 C 
HETATM   14  O1  UNL     1      58.558  41.895  24.688  1.00  0.00    -0.232 OA
HETATM   15  O2  UNL     1      58.960  40.862  23.965  1.00  0.00    -0.229 OA
BRANCH  13  16
HETATM   16  C11 UNL     1      57.008  41.369  26.372  1.00  0.00     0.020 A 
HETATM   17  C12 UNL     1      55.720  41.219  27.067  1.00  0.00     0.008 A 
HETATM   18  C13 UNL     1      56.459  42.499  27.299  1.00  0.00     0.008 A 
ENDBRANCH  13  16
ENDBRANCH   7   8
ENDBRANCH   6   7
ENDBRANCH   3   5
ENDBRANCH   1   3
BRANCH   1  19
HETATM   19  C14 UNL     1      63.123  43.335  19.076  1.00  0.00     0.141 C 
BRANCH  19  20
HETATM   20  C15 UNL     1      63.836  42.552  20.113  1.00  0.00     0.195 C 
BRANCH  20  21
HETATM   21  O3  UNL     1      63.220  41.521  20.757  1.00  0.00    -0.350 OA
BRANCH  21  22
HETATM   22  C16 UNL     1      63.115  41.114  22.038  1.00  0.00     0.070 A 
HETATM   23  C17 UNL     1      63.472  39.795  22.410  1.00  0.00     0.052 A 
HETATM   24  C18 UNL     1      63.362  39.392  23.712  1.00  0.00     0.051 A 
HETATM   25  C20 UNL     1      62.906  40.227  24.728  1.00  0.00     0.032 A 
HETATM   26  C21 UNL     1      62.557  41.509  24.381  1.00  0.00     0.051 A 
HETATM   27  C23 UNL     1      62.672  41.903  23.055  1.00  0.00     0.052 A 
BRANCH  24  28
HETATM   28  C19 UNL     1      63.775  37.988  24.061  1.00  0.00     0.417 C 
HETATM   29  F2  UNL     1      64.398  37.420  22.962  1.00  0.00    -0.166 F 
HETATM   30  F3  UNL     1      62.680  37.250  24.407  1.00  0.00    -0.166 F 
HETATM   31  F4  UNL     1      64.644  38.065  25.103  1.00  0.00    -0.166 F 
ENDBRANCH  24  28
BRANCH  26  32
HETATM   32  C22 UNL     1      62.034  42.467  25.392  1.00  0.00     0.417 C 
HETATM   33  F5  UNL     1      61.261  41.851  26.332  1.00  0.00    -0.166 F 
HETATM   34  F6  UNL     1      63.121  43.094  25.963  1.00  0.00    -0.166 F 
HETATM   35  F7  UNL     1      61.324  43.464  24.717  1.00  0.00    -0.166 F 
ENDBRANCH  26  32
ENDBRANCH  21  22
ENDBRANCH  20  21
ENDBRANCH  19  20
ENDBRANCH   1  19
TORSDOF 11
ENDMDL
MODEL 3
REMARK VINA RESULT: -9.458277079      3.148      7.400
REMARK  11 active torsions:
REMARK  status: ('A' for Active; 'I' for Inactive)
REMARK    1  A    between atoms: C2_2  and  C3_3 
REMARK    2  A    between atoms: C2_2  and  N1_17 
REMARK    3  A    between atoms: C4_4  and  C5_5 
REMARK    4  A    between atoms: C5_5  and  C6_6 
REMARK    5  A    between atoms: C10_11  and  C11_12 
REMARK    6  A    between atoms: N1_17  and  C14_19 
REMARK    7  A    between atoms: C14_19  and  C15_20 
REMARK    8  A    between atoms: C15_20  and  O3_21 
REMARK    9  A    between atoms: O3_21  and  C16_22 
REMARK   10  A    between atoms: C18_24  and  C19_25 
REMARK   11  A    between atoms: C21_30  and  C22_31 
ROOT
HETATM    1  N1  UNL     1      63.508  40.577  24.624  1.00  0.00    -0.412 N 
ATOM      2  H1  UNL     1      64.177  40.401  25.374  1.00  0.00     0.153 HD
ENDROOT
BRANCH   1   3
HETATM    3  C2  UNL     1      62.926  39.512  23.830  1.00  0.00     0.095 C 
HETATM    4  C1  UNL     1      63.940  38.376  23.647  1.00  0.00     0.036 C 
BRANCH   3   5
HETATM    5  C3  UNL     1      62.812  40.083  22.447  1.00  0.00    -0.007 C 
HETATM    6  C4  UNL     1      61.774  40.113  21.646  1.00  0.00    -0.026 C 
BRANCH   6   7
HETATM    7  C5  UNL     1      62.008  40.766  20.320  1.00  0.00     0.067 C 
BRANCH   7   8
HETATM    8  C6  UNL     1      61.552  42.154  20.167  1.00  0.00     0.098 C 
HETATM    9  C7  UNL     1      60.079  42.311  20.459  1.00  0.00     0.050 C 
HETATM   10  C8  UNL     1      61.691  42.626  18.712  1.00  0.00     0.081 C 
HETATM   11  C9  UNL     1      62.229  44.073  18.839  1.00  0.00     0.205 C 
HETATM   12  F1  UNL     1      62.095  44.593  17.583  1.00  0.00    -0.246 F 
HETATM   13  C10 UNL     1      63.660  43.878  19.284  1.00  0.00     0.198 C 
HETATM   14  O1  UNL     1      63.587  42.991  20.365  1.00  0.00    -0.232 OA
HETATM   15  O2  UNL     1      62.375  42.986  20.895  1.00  0.00    -0.229 OA
BRANCH  13  16
HETATM   16  C11 UNL     1      64.363  45.107  19.710  1.00  0.00     0.020 A 
HETATM   17  C12 UNL     1      64.758  46.221  18.833  1.00  0.00     0.008 A 
HETATM   18  C13 UNL     1      65.815  45.208  19.143  1.00  0.00     0.008 A 
ENDBRANCH  13  16
ENDBRANCH   7   8
ENDBRANCH   6   7
ENDBRANCH   3   5
ENDBRANCH   1   3
BRANCH   1  19
HETATM   19  C14 UNL     1      63.075  41.887  24.276  1.00  0.00     0.141 C 
BRANCH  19  20
HETATM   20  C15 UNL     1      61.923  42.490  24.987  1.00  0.00     0.195 C 
BRANCH  20  21
HETATM   21  O3  UNL     1      60.932  41.707  25.501  1.00  0.00    -0.350 OA
BRANCH  21  22
HETATM   22  C16 UNL     1      59.615  41.545  25.263  1.00  0.00     0.070 A 
HETATM   23  C17 UNL     1      59.149  41.218  23.967  1.00  0.00     0.052 A 
HETATM   24  C18 UNL     1      57.811  41.056  23.736  1.00  0.00     0.051 A 
HETATM   25  C20 UNL     1      56.847  41.198  24.731  1.00  0.00     0.032 A 
HETATM   26  C21 UNL     1      57.286  41.515  25.993  1.00  0.00     0.051 A 
HETATM   27  C23 UNL     1      58.648  41.678  26.211  1.00  0.00     0.052 A 
BRANCH  24  28
HETATM   28  C19 UNL     1      57.366  40.687  22.347  1.00  0.00     0.417 C 
HETATM   29  F2  UNL     1      56.149  40.030  22.429  1.00  0.00    -0.166 F 
HETATM   30  F3  UNL     1      58.293  39.877  21.757  1.00  0.00    -0.166 F 
HETATM   31  F4  UNL     1      57.227  41.842  21.643  1.00  0.00    -0.166 F 
ENDBRANCH  24  28
BRANCH  26  32
HETATM   32  C22 UNL     1      56.331  41.713  27.115  1.00  0.00     0.417 C 
HETATM   33  F5  UNL     1      56.272  43.015  27.517  1.00  0.00    -0.166 F 
HETATM   34  F6  UNL     1      55.100  41.259  26.691  1.00  0.00    -0.166 F 
HETATM   35  F7  UNL     1      56.713  40.869  28.163  1.00  0.00    -0.166 F 
ENDBRANCH  26  32
ENDBRANCH  21  22
ENDBRANCH  20  21
ENDBRANCH  19  20
ENDBRANCH   1  19
TORSDOF 11
ENDMDL
MODEL 4
REMARK VINA RESULT: -9.380262383      3.144      7.156
REMARK  11 active torsions:
REMARK  status: ('A' for Active; 'I' for Inactive)
REMARK    1  A    between atoms: C2_2  and  C3_3 
REMARK    2  A    between atoms: C2_2  and  N1_17 
REMARK    3  A    between atoms: C4_4  and  C5_5 
REMARK    4  A    between atoms: C5_5  and  C6_6 
REMARK    5  A    between atoms: C10_11  and  C11_12 
REMARK    6  A    between atoms: N1_17  and  C14_19 
REMARK    7  A    between atoms: C14_19  and  C15_20 
REMARK    8  A    between atoms: C15_20  and  O3_21 
REMARK    9  A    between atoms: O3_21  and  C16_22 
REMARK   10  A    between atoms: C18_24  and  C19_25 
REMARK   11  A    between atoms: C21_30  and  C22_31 
ROOT
HETATM    1  N1  UNL     1      63.488  40.555  24.695  1.00  0.00    -0.412 N 
ATOM      2  H1  UNL     1      64.199  40.384  25.408  1.00  0.00     0.153 HD
ENDROOT
BRANCH   1   3
HETATM    3  C2  UNL     1      62.906  39.490  23.902  1.00  0.00     0.095 C 
HETATM    4  C1  UNL     1      63.911  38.343  23.741  1.00  0.00     0.036 C 
BRANCH   3   5
HETATM    5  C3  UNL     1      62.817  40.052  22.513  1.00  0.00    -0.007 C 
HETATM    6  C4  UNL     1      61.781  40.123  21.712  1.00  0.00    -0.026 C 
BRANCH   6   7
HETATM    7  C5  UNL     1      62.045  40.751  20.379  1.00  0.00     0.067 C 
BRANCH   7   8
HETATM    8  C6  UNL     1      61.578  42.130  20.185  1.00  0.00     0.098 C 
HETATM    9  C7  UNL     1      60.100  42.281  20.452  1.00  0.00     0.050 C 
HETATM   10  C8  UNL     1      61.735  42.568  18.721  1.00  0.00     0.081 C 
HETATM   11  C9  UNL     1      62.258  44.022  18.819  1.00  0.00     0.205 C 
HETATM   12  F1  UNL     1      62.139  44.510  17.549  1.00  0.00    -0.246 F 
HETATM   13  C10 UNL     1      63.684  43.851  19.291  1.00  0.00     0.198 C 
HETATM   14  O1  UNL     1      63.603  42.990  20.392  1.00  0.00    -0.232 OA
HETATM   15  O2  UNL     1      62.383  42.987  20.905  1.00  0.00    -0.229 OA
BRANCH  13  16
HETATM   16  C11 UNL     1      64.369  45.098  19.696  1.00  0.00     0.020 A 
HETATM   17  C12 UNL     1      64.714  46.219  18.808  1.00  0.00     0.008 A 
HETATM   18  C13 UNL     1      65.802  45.231  19.089  1.00  0.00     0.008 A 
ENDBRANCH  13  16
ENDBRANCH   7   8
ENDBRANCH   6   7
ENDBRANCH   3   5
ENDBRANCH   1   3
BRANCH   1  19
HETATM   19  C14 UNL     1      62.993  41.857  24.405  1.00  0.00     0.141 C 
BRANCH  19  20
HETATM   20  C15 UNL     1      61.884  42.415  25.214  1.00  0.00     0.195 C 
BRANCH  20  21
HETATM   21  O3  UNL     1      60.865  41.620  25.646  1.00  0.00    -0.350 OA
BRANCH  21  22
HETATM   22  C16 UNL     1      59.557  41.487  25.349  1.00  0.00     0.070 A 
HETATM   23  C17 UNL     1      58.568  41.641  26.351  1.00  0.00     0.052 A 
HETATM   24  C18 UNL     1      57.244  41.505  26.039  1.00  0.00     0.051 A 
HETATM   25  C20 UNL     1      56.794  41.214  24.753  1.00  0.00     0.032 A 
HETATM   26  C21 UNL     1      57.743  41.063  23.772  1.00  0.00     0.051 A 
HETATM   27  C23 UNL     1      59.083  41.203  24.106  1.00  0.00     0.052 A 
BRANCH  24  28
HETATM   28  C19 UNL     1      56.229  41.699  27.133  1.00  0.00     0.417 C 
HETATM   29  F2  UNL     1      54.984  41.322  26.657  1.00  0.00    -0.166 F 
HETATM   30  F3  UNL     1      56.202  43.008  27.520  1.00  0.00    -0.166 F 
HETATM   31  F4  UNL     1      56.593  40.903  28.173  1.00  0.00    -0.166 F 
ENDBRANCH  24  28
BRANCH  26  32
HETATM   32  C22 UNL     1      57.361  40.726  22.375  1.00  0.00     0.417 C 
HETATM   33  F5  UNL     1      57.225  41.838  21.597  1.00  0.00    -0.166 F 
HETATM   34  F6  UNL     1      58.328  39.878  21.879  1.00  0.00    -0.166 F 
HETATM   35  F7  UNL     1      56.179  39.981  22.418  1.00  0.00    -0.166 F 
ENDBRANCH  26  32
ENDBRANCH  21  22
ENDBRANCH  20  21
ENDBRANCH  19  20
ENDBRANCH   1  19
TORSDOF 11
ENDMDL
MODEL 5
REMARK VINA RESULT: -9.327254480      3.338      7.278
REMARK  11 active torsions:
REMARK  status: ('A' for Active; 'I' for Inactive)
REMARK    1  A    between atoms: C2_2  and  C3_3 
REMARK    2  A    between atoms: C2_2  and  N1_17 
REMARK    3  A    between atoms: C4_4  and  C5_5 
REMARK    4  A    between atoms: C5_5  and  C6_6 
REMARK    5  A    between atoms: C10_11  and  C11_12 
REMARK    6  A    between atoms: N1_17  and  C14_19 
REMARK    7  A    between atoms: C14_19  and  C15_20 
REMARK    8  A    between atoms: C15_20  and  O3_21 
REMARK    9  A    between atoms: O3_21  and  C16_22 
REMARK   10  A    between atoms: C18_24  and  C19_25 
REMARK   11  A    between atoms: C21_30  and  C22_31 
ROOT
HETATM    1  N1  UNL     1      63.354  38.288  25.338  1.00  0.00    -0.412 N 
ATOM      2  H1  UNL     1      63.926  38.112  26.164  1.00  0.00     0.153 HD
ENDROOT
BRANCH   1   3
HETATM    3  C2  UNL     1      63.734  37.835  24.014  1.00  0.00     0.095 C 
HETATM    4  C1  UNL     1      65.200  37.383  24.012  1.00  0.00     0.036 C 
BRANCH   3   5
HETATM    5  C3  UNL     1      63.770  39.081  23.178  1.00  0.00    -0.007 C 
HETATM    6  C4  UNL     1      62.836  39.593  22.413  1.00  0.00    -0.026 C 
BRANCH   6   7
HETATM    7  C5  UNL     1      63.208  40.862  21.710  1.00  0.00     0.067 C 
BRANCH   7   8
HETATM    8  C6  UNL     1      62.203  41.450  20.815  1.00  0.00     0.098 C 
HETATM    9  C7  UNL     1      61.085  40.488  20.494  1.00  0.00     0.050 C 
HETATM   10  C8  UNL     1      62.809  41.781  19.443  1.00  0.00     0.081 C 
HETATM   11  C9  UNL     1      62.199  43.160  19.088  1.00  0.00     0.205 C 
HETATM   12  F1  UNL     1      62.506  43.334  17.768  1.00  0.00    -0.246 F 
HETATM   13  C10 UNL     1      62.907  44.110  20.025  1.00  0.00     0.198 C 
HETATM   14  O1  UNL     1      62.792  43.526  21.292  1.00  0.00    -0.232 OA
HETATM   15  O2  UNL     1      61.791  42.661  21.328  1.00  0.00    -0.229 OA
BRANCH  13  16
HETATM   16  C11 UNL     1      62.356  45.482  20.070  1.00  0.00     0.020 A 
HETATM   17  C12 UNL     1      61.880  46.257  18.913  1.00  0.00     0.008 A 
HETATM   18  C13 UNL     1      63.277  46.533  19.372  1.00  0.00     0.008 A 
ENDBRANCH  13  16
ENDBRANCH   7   8
ENDBRANCH   6   7
ENDBRANCH   3   5
ENDBRANCH   1   3
BRANCH   1  19
HETATM   19  C14 UNL     1      62.122  38.997  25.397  1.00  0.00     0.141 C 
BRANCH  19  20
HETATM   20  C15 UNL     1      62.109  40.403  25.862  1.00  0.00     0.195 C 
BRANCH  20  21
HETATM   21  O3  UNL     1      61.232  41.305  25.336  1.00  0.00    -0.350 OA
BRANCH  21  22
HETATM   22  C16 UNL     1      59.912  41.316  25.066  1.00  0.00     0.070 A 
HETATM   23  C17 UNL     1      59.444  41.167  23.737  1.00  0.00     0.052 A 
HETATM   24  C18 UNL     1      58.102  41.180  23.473  1.00  0.00     0.051 A 
HETATM   25  C20 UNL     1      57.136  41.335  24.464  1.00  0.00     0.032 A 
HETATM   26  C21 UNL     1      57.576  41.480  25.757  1.00  0.00     0.051 A 
HETATM   27  C23 UNL     1      58.942  41.466  26.008  1.00  0.00     0.052 A 
BRANCH  24  28
HETATM   28  C19 UNL     1      57.653  40.996  22.049  1.00  0.00     0.417 C 
HETATM   29  F2  UNL     1      56.276  41.132  21.995  1.00  0.00    -0.166 F 
HETATM   30  F3  UNL     1      58.016  39.760  21.598  1.00  0.00    -0.166 F 
HETATM   31  F4  UNL     1      58.248  41.966  21.305  1.00  0.00    -0.166 F 
ENDBRANCH  24  28
BRANCH  26  32
HETATM   32  C22 UNL     1      56.621  41.677  26.879  1.00  0.00     0.417 C 
HETATM   33  F5  UNL     1      56.510  42.989  27.235  1.00  0.00    -0.166 F 
HETATM   34  F6  UNL     1      55.408  41.156  26.482  1.00  0.00    -0.166 F 
HETATM   35  F7  UNL     1      57.047  40.888  27.953  1.00  0.00    -0.166 F 
ENDBRANCH  26  32
ENDBRANCH  21  22
ENDBRANCH  20  21
ENDBRANCH  19  20
ENDBRANCH   1  19
TORSDOF 11
ENDMDL
