MODEL 1
REMARK VINA RESULT: -4.009281119      0.000      0.000
REMARK  4 active torsions:
REMARK  status: ('A' for Active; 'I' for Inactive)
REMARK    1  A    between atoms: N1_2  and  C3_4 
REMARK    2  A    between atoms: C3_4  and  C4_5 
REMARK    3  A    between atoms: C6_7  and  C7_8 
REMARK    4  A    between atoms: C7_8  and  N2_9 
REMARK       I    between atoms: N3_14  and  C9_15 
ROOT
HETATM    1  C4  UNL     1      10.236  52.002  19.572  1.00  0.00     0.115 C 
HETATM    2  C5  UNL     1      11.020  51.282  20.653  1.00  0.00     0.035 C 
HETATM    3  C6  UNL     1      11.827  52.337  21.366  1.00  0.00     0.031 C 
HETATM    4  C8  UNL     1      11.584  53.642  20.646  1.00  0.00     0.132 C 
HETATM    5  N3  UNL     1      10.825  53.303  19.447  1.00  0.00    -0.349 N 
HETATM    6  C9  UNL     1      10.699  54.153  18.331  1.00  0.00     0.184 C 
HETATM    7  N4  UNL     1       9.944  55.180  18.392  1.00  0.00    -0.374 N 
ATOM      8  H41 UNL     1       9.853  55.795  17.583  1.00  0.00     0.158 HD
ATOM      9  H42 UNL     1       9.426  55.395  19.244  1.00  0.00     0.158 HD
HETATM   10  N5  UNL     1      11.415  53.856  17.154  1.00  0.00    -0.064 NA
ENDROOT
BRANCH   3  11
HETATM   11  C7  UNL     1      13.291  51.907  21.258  1.00  0.00     0.236 C 
BRANCH  11  12
HETATM   12  N2  UNL     1      13.281  50.476  21.056  1.00  0.00    -0.079 N 
ATOM     13  H23 UNL     1      13.138  49.946  21.915  1.00  0.00     0.274 HD
ATOM     14  H22 UNL     1      12.452  50.142  20.564  1.00  0.00     0.274 HD
ATOM     15  H21 UNL     1      14.154  50.247  20.579  1.00  0.00     0.274 HD
ENDBRANCH  11  12
ENDBRANCH   3  11
BRANCH   1  16
HETATM   16  C3  UNL     1       8.802  52.070  20.050  1.00  0.00     0.296 C 
BRANCH  16  17
HETATM   17  N1  UNL     1       7.882  51.436  19.126  1.00  0.00     0.082 N 
HETATM   18  C1  UNL     1       8.096  49.989  19.307  1.00  0.00     0.309 C 
HETATM   19  C2  UNL     1       8.306  51.704  17.744  1.00  0.00     0.309 C 
ENDBRANCH  16  17
ENDBRANCH   1  16
TORSDOF 4
ENDMDL
MODEL 2
REMARK VINA RESULT: -3.559276044      1.387      4.110
REMARK  4 active torsions:
REMARK  status: ('A' for Active; 'I' for Inactive)
REMARK    1  A    between atoms: N1_2  and  C3_4 
REMARK    2  A    between atoms: C3_4  and  C4_5 
REMARK    3  A    between atoms: C6_7  and  C7_8 
REMARK    4  A    between atoms: C7_8  and  N2_9 
REMARK       I    between atoms: N3_14  and  C9_15 
ROOT
HETATM    1  C4  UNL     1      10.747  53.197  19.797  1.00  0.00     0.115 C 
HETATM    2  C5  UNL     1       9.893  52.025  20.245  1.00  0.00     0.035 C 
HETATM    3  C6  UNL     1       9.060  51.628  19.052  1.00  0.00     0.031 C 
HETATM    4  C8  UNL     1       9.361  52.618  17.952  1.00  0.00     0.132 C 
HETATM    5  N3  UNL     1      10.183  53.657  18.562  1.00  0.00    -0.349 N 
HETATM    6  C9  UNL     1      10.383  54.933  17.998  1.00  0.00     0.184 C 
HETATM    7  N4  UNL     1      11.147  55.069  16.985  1.00  0.00    -0.374 N 
ATOM      8  H41 UNL     1      11.292  55.993  16.576  1.00  0.00     0.158 HD
ATOM      9  H42 UNL     1      11.618  54.262  16.575  1.00  0.00     0.158 HD
HETATM   10  N5  UNL     1       9.732  56.047  18.563  1.00  0.00    -0.064 NA
ENDROOT
BRANCH   3  11
HETATM   11  C7  UNL     1       7.600  51.718  19.496  1.00  0.00     0.236 C 
BRANCH  11  12
HETATM   12  N2  UNL     1       7.173  50.363  19.766  1.00  0.00    -0.079 N 
ATOM     13  H23 UNL     1       6.170  50.279  19.930  1.00  0.00     0.274 HD
ATOM     14  H22 UNL     1       7.218  49.754  18.950  1.00  0.00     0.274 HD
ATOM     15  H21 UNL     1       7.740  50.034  20.548  1.00  0.00     0.274 HD
ENDBRANCH  11  12
ENDBRANCH   3  11
BRANCH   1  16
HETATM   16  C3  UNL     1      12.152  52.666  19.618  1.00  0.00     0.296 C 
BRANCH  16  17
HETATM   17  N1  UNL     1      13.074  53.201  20.600  1.00  0.00     0.082 N 
HETATM   18  C1  UNL     1      12.880  52.369  21.801  1.00  0.00     0.309 C 
HETATM   19  C2  UNL     1      12.638  54.546  21.005  1.00  0.00     0.309 C 
ENDBRANCH  16  17
ENDBRANCH   1  16
TORSDOF 4
ENDMDL
MODEL 3
REMARK VINA RESULT: -3.554475964      1.497      4.140
REMARK  4 active torsions:
REMARK  status: ('A' for Active; 'I' for Inactive)
REMARK    1  A    between atoms: N1_2  and  C3_4 
REMARK    2  A    between atoms: C3_4  and  C4_5 
REMARK    3  A    between atoms: C6_7  and  C7_8 
REMARK    4  A    between atoms: C7_8  and  N2_9 
REMARK       I    between atoms: N3_14  and  C9_15 
ROOT
HETATM    1  C4  UNL     1      10.870  52.886  18.976  1.00  0.00     0.115 C 
HETATM    2  C5  UNL     1       9.510  52.527  18.408  1.00  0.00     0.035 C 
HETATM    3  C6  UNL     1       8.749  51.856  19.524  1.00  0.00     0.031 C 
HETATM    4  C8  UNL     1       9.692  51.745  20.698  1.00  0.00     0.132 C 
HETATM    5  N3  UNL     1      11.001  52.155  20.202  1.00  0.00    -0.349 N 
HETATM    6  C9  UNL     1      12.215  51.864  20.855  1.00  0.00     0.184 C 
HETATM    7  N4  UNL     1      12.536  52.494  21.916  1.00  0.00    -0.374 N 
ATOM      8  H41 UNL     1      13.415  52.284  22.389  1.00  0.00     0.158 HD
ATOM      9  H42 UNL     1      11.922  53.212  22.302  1.00  0.00     0.158 HD
HETATM   10  N5  UNL     1      13.063  50.873  20.322  1.00  0.00    -0.064 NA
ENDROOT
BRANCH   3  11
HETATM   11  C7  UNL     1       8.345  50.476  19.003  1.00  0.00     0.236 C 
BRANCH  11  12
HETATM   12  N2  UNL     1       9.346  49.551  19.486  1.00  0.00    -0.079 N 
ATOM     13  H23 UNL     1      10.301  49.888  19.365  1.00  0.00     0.274 HD
ATOM     14  H22 UNL     1       9.369  49.473  20.502  1.00  0.00     0.274 HD
ATOM     15  H21 UNL     1       9.166  48.664  19.015  1.00  0.00     0.274 HD
ENDBRANCH  11  12
ENDBRANCH   3  11
BRANCH   1  16
HETATM   16  C3  UNL     1      10.865  54.381  19.203  1.00  0.00     0.296 C 
BRANCH  16  17
HETATM   17  N1  UNL     1      10.299  55.107  18.082  1.00  0.00     0.082 N 
HETATM   18  C1  UNL     1      10.862  56.465  18.183  1.00  0.00     0.309 C 
HETATM   19  C2  UNL     1       8.854  55.288  18.290  1.00  0.00     0.309 C 
ENDBRANCH  16  17
ENDBRANCH   1  16
TORSDOF 4
ENDMDL
MODEL 4
REMARK VINA RESULT: -3.283085720      1.417      3.561
REMARK  4 active torsions:
REMARK  status: ('A' for Active; 'I' for Inactive)
REMARK    1  A    between atoms: N1_2  and  C3_4 
REMARK    2  A    between atoms: C3_4  and  C4_5 
REMARK    3  A    between atoms: C6_7  and  C7_8 
REMARK    4  A    between atoms: C7_8  and  N2_9 
REMARK       I    between atoms: N3_14  and  C9_15 
ROOT
HETATM    1  C4  UNL     1       9.905  52.451  20.172  1.00  0.00     0.115 C 
HETATM    2  C5  UNL     1       9.298  53.221  19.014  1.00  0.00     0.035 C 
HETATM    3  C6  UNL     1      10.453  53.692  18.167  1.00  0.00     0.031 C 
HETATM    4  C8  UNL     1      11.720  53.277  18.876  1.00  0.00     0.132 C 
HETATM    5  N3  UNL     1      11.304  52.767  20.177  1.00  0.00    -0.349 N 
HETATM    6  C9  UNL     1      12.172  52.612  21.275  1.00  0.00     0.184 C 
HETATM    7  N4  UNL     1      13.019  51.658  21.290  1.00  0.00    -0.374 N 
ATOM      8  H41 UNL     1      13.648  51.545  22.085  1.00  0.00     0.158 HD
ATOM      9  H42 UNL     1      13.076  51.001  20.512  1.00  0.00     0.158 HD
HETATM   10  N5  UNL     1      12.093  53.520  22.350  1.00  0.00    -0.064 NA
ENDROOT
BRANCH   3  11
HETATM   11  C7  UNL     1      10.336  55.214  18.084  1.00  0.00     0.236 C 
BRANCH  11  12
HETATM   12  N2  UNL     1      11.430  55.749  18.864  1.00  0.00    -0.079 N 
ATOM     13  H23 UNL     1      11.210  55.848  19.855  1.00  0.00     0.274 HD
ATOM     14  H22 UNL     1      12.207  55.097  18.972  1.00  0.00     0.274 HD
ATOM     15  H21 UNL     1      11.697  56.627  18.419  1.00  0.00     0.274 HD
ENDBRANCH  11  12
ENDBRANCH   3  11
BRANCH   1  16
HETATM   16  C3  UNL     1       9.654  50.985  19.896  1.00  0.00     0.296 C 
BRANCH  16  17
HETATM   17  N1  UNL     1       8.514  50.774  19.026  1.00  0.00     0.082 N 
HETATM   18  C1  UNL     1       7.365  51.338  19.756  1.00  0.00     0.309 C 
HETATM   19  C2  UNL     1       8.224  49.336  18.932  1.00  0.00     0.309 C 
ENDBRANCH  16  17
ENDBRANCH   1  16
TORSDOF 4
ENDMDL
MODEL 5
REMARK VINA RESULT: -3.207303897      1.406      4.395
REMARK  4 active torsions:
REMARK  status: ('A' for Active; 'I' for Inactive)
REMARK    1  A    between atoms: N1_2  and  C3_4 
REMARK    2  A    between atoms: C3_4  and  C4_5 
REMARK    3  A    between atoms: C6_7  and  C7_8 
REMARK    4  A    between atoms: C7_8  and  N2_9 
REMARK       I    between atoms: N3_14  and  C9_15 
ROOT
HETATM    1  C4  UNL     1      10.788  51.806  19.376  1.00  0.00     0.115 C 
HETATM    2  C5  UNL     1      11.469  53.138  19.126  1.00  0.00     0.035 C 
HETATM    3  C6  UNL     1      10.381  54.182  19.154  1.00  0.00     0.031 C 
HETATM    4  C8  UNL     1       9.071  53.452  19.326  1.00  0.00     0.132 C 
HETATM    5  N3  UNL     1       9.383  52.032  19.200  1.00  0.00    -0.349 N 
HETATM    6  C9  UNL     1       8.421  51.036  18.941  1.00  0.00     0.184 C 
HETATM    7  N4  UNL     1       7.617  50.670  19.861  1.00  0.00    -0.374 N 
ATOM      8  H41 UNL     1       6.921  49.949  19.674  1.00  0.00     0.158 HD
ATOM      9  H42 UNL     1       7.662  51.092  20.790  1.00  0.00     0.158 HD
HETATM   10  N5  UNL     1       8.359  50.455  17.659  1.00  0.00    -0.064 NA
ENDROOT
BRANCH   3  11
HETATM   11  C7  UNL     1      10.441  54.905  17.807  1.00  0.00     0.236 C 
BRANCH  11  12
HETATM   12  N2  UNL     1      10.829  56.268  18.094  1.00  0.00    -0.079 N 
ATOM     13  H23 UNL     1      10.429  56.947  17.448  1.00  0.00     0.274 HD
ATOM     14  H22 UNL     1      10.406  56.638  18.945  1.00  0.00     0.274 HD
ATOM     15  H21 UNL     1      11.849  56.277  18.112  1.00  0.00     0.274 HD
ENDBRANCH  11  12
ENDBRANCH   3  11
BRANCH   1  16
HETATM   16  C3  UNL     1      11.125  51.406  20.795  1.00  0.00     0.296 C 
BRANCH  16  17
HETATM   17  N1  UNL     1      12.553  51.413  21.046  1.00  0.00     0.082 N 
HETATM   18  C1  UNL     1      12.844  50.097  21.640  1.00  0.00     0.309 C 
HETATM   19  C2  UNL     1      12.862  52.378  22.112  1.00  0.00     0.309 C 
ENDBRANCH  16  17
ENDBRANCH   1  16
TORSDOF 4
ENDMDL
