MODEL 1
REMARK VINA RESULT: -7.736829386      0.000      0.000
REMARK  4 active torsions:
REMARK  status: ('A' for Active; 'I' for Inactive)
REMARK    1  A    between atoms: C2_2  and  C4_4 
REMARK    2  A    between atoms: C4_4  and  C5_5 
REMARK    3  A    between atoms: C13_13  and  O1_14 
REMARK    4  A    between atoms: N1_20  and  O4_21 
ROOT
HETATM    1  C5  UNL     1      -5.917   5.907  13.310  1.00  0.00     0.043 C 
HETATM    2  C6  UNL     1      -6.521   4.896  13.887  1.00  0.00     0.006 C 
HETATM    3  C7  UNL     1      -6.097   3.717  14.646  1.00  0.00     0.039 C 
HETATM    4  C8  UNL     1      -4.657   3.366  14.558  1.00  0.00     0.044 C 
HETATM    5  C9  UNL     1      -4.483   1.889  14.786  1.00  0.00     0.011 C 
HETATM    6  C10 UNL     1      -4.170   1.086  13.580  1.00  0.00     0.033 C 
HETATM    7  C11 UNL     1      -3.704   1.872  12.397  1.00  0.00     0.087 C 
HETATM    8  C12 UNL     1      -2.953   1.054  11.397  1.00  0.00     0.040 C 
HETATM    9  C13 UNL     1      -4.919   2.549  11.785  1.00  0.00     0.284 C 
HETATM   10  O2  UNL     1      -4.790   3.851  12.196  1.00  0.00    -0.329 OA
HETATM   11  C14 UNL     1      -3.968   3.865  13.322  1.00  0.00     0.168 C 
HETATM   12  C15 UNL     1      -3.461   5.273  13.519  1.00  0.00     0.232 C 
HETATM   13  O3  UNL     1      -4.563   6.138  13.272  1.00  0.00    -0.351 OA
HETATM   14  N1  UNL     1      -2.894   2.978  12.930  1.00  0.00    -0.148 NA
ENDROOT
BRANCH   1  15
HETATM   15  C4  UNL     1      -6.817   6.902  12.629  1.00  0.00     0.068 C 
BRANCH  15  16
HETATM   16  C2  UNL     1      -6.075   7.688  11.582  1.00  0.00    -0.017 C 
HETATM   17  C1  UNL     1      -6.652   9.054  11.359  1.00  0.00     0.010 C 
HETATM   18  C3  UNL     1      -5.995   6.904  10.302  1.00  0.00     0.010 C 
ENDBRANCH  15  16
ENDBRANCH   1  15
BRANCH  14  19
HETATM   19  O4  UNL     1      -2.125   3.522  11.978  1.00  0.00    -0.309 OA
ATOM     20  H4  UNL     1      -2.289   4.454  11.893  1.00  0.00     0.237 HD
ENDBRANCH  14  19
BRANCH   9  21
HETATM   21  O1  UNL     1      -4.925   2.401  10.402  1.00  0.00    -0.369 OA
ATOM     22  H1  UNL     1      -5.081   3.234   9.973  1.00  0.00     0.212 HD
ENDBRANCH   9  21
TORSDOF 4
ENDMDL
MODEL 2
REMARK VINA RESULT: -7.551848884      1.143      1.467
REMARK  4 active torsions:
REMARK  status: ('A' for Active; 'I' for Inactive)
REMARK    1  A    between atoms: C2_2  and  C4_4 
REMARK    2  A    between atoms: C4_4  and  C5_5 
REMARK    3  A    between atoms: C13_13  and  O1_14 
REMARK    4  A    between atoms: N1_20  and  O4_21 
ROOT
HETATM    1  C5  UNL     1      -4.720   6.203  11.912  1.00  0.00     0.043 C 
HETATM    2  C6  UNL     1      -5.391   5.878  12.992  1.00  0.00     0.006 C 
HETATM    3  C7  UNL     1      -5.119   5.088  14.195  1.00  0.00     0.039 C 
HETATM    4  C8  UNL     1      -3.933   4.196  14.138  1.00  0.00     0.044 C 
HETATM    5  C9  UNL     1      -4.131   3.033  15.072  1.00  0.00     0.011 C 
HETATM    6  C10 UNL     1      -4.432   1.734  14.426  1.00  0.00     0.033 C 
HETATM    7  C11 UNL     1      -4.132   1.668  12.963  1.00  0.00     0.087 C 
HETATM    8  C12 UNL     1      -3.978   0.273  12.449  1.00  0.00     0.040 C 
HETATM    9  C13 UNL     1      -5.226   2.429  12.232  1.00  0.00     0.284 C 
HETATM   10  O2  UNL     1      -4.613   3.609  11.896  1.00  0.00    -0.329 OA
HETATM   11  C14 UNL     1      -3.528   3.787  12.753  1.00  0.00     0.168 C 
HETATM   12  C15 UNL     1      -2.603   4.809  12.138  1.00  0.00     0.232 C 
HETATM   13  O3  UNL     1      -3.432   5.837  11.607  1.00  0.00    -0.351 OA
HETATM   14  N1  UNL     1      -2.919   2.474  12.755  1.00  0.00    -0.148 NA
ENDROOT
BRANCH   1  15
HETATM   15  C4  UNL     1      -5.456   7.065  10.924  1.00  0.00     0.068 C 
BRANCH  15  16
HETATM   16  C2  UNL     1      -6.082   8.259  11.594  1.00  0.00    -0.017 C 
HETATM   17  C1  UNL     1      -7.569   8.128  11.752  1.00  0.00     0.010 C 
HETATM   18  C3  UNL     1      -5.711   9.520  10.864  1.00  0.00     0.010 C 
ENDBRANCH  15  16
ENDBRANCH   1  15
BRANCH  14  19
HETATM   19  O4  UNL     1      -2.344   2.193  11.578  1.00  0.00    -0.309 OA
ATOM     20  H4  UNL     1      -1.427   1.970  11.686  1.00  0.00     0.237 HD
ENDBRANCH  14  19
BRANCH   9  21
HETATM   21  O1  UNL     1      -5.682   1.708  11.134  1.00  0.00    -0.369 OA
ATOM     22  H1  UNL     1      -6.454   1.202  11.358  1.00  0.00     0.212 HD
ENDBRANCH   9  21
TORSDOF 4
ENDMDL
MODEL 3
REMARK VINA RESULT: -7.518571033      2.224      4.993
REMARK  4 active torsions:
REMARK  status: ('A' for Active; 'I' for Inactive)
REMARK    1  A    between atoms: C2_2  and  C4_4 
REMARK    2  A    between atoms: C4_4  and  C5_5 
REMARK    3  A    between atoms: C13_13  and  O1_14 
REMARK    4  A    between atoms: N1_20  and  O4_21 
ROOT
HETATM    1  C5  UNL     1      -5.111   2.077  15.144  1.00  0.00     0.043 C 
HETATM    2  C6  UNL     1      -5.515   3.322  15.052  1.00  0.00     0.006 C 
HETATM    3  C7  UNL     1      -5.636   4.305  13.973  1.00  0.00     0.039 C 
HETATM    4  C8  UNL     1      -4.907   3.993  12.718  1.00  0.00     0.044 C 
HETATM    5  C9  UNL     1      -4.565   5.271  12.002  1.00  0.00     0.011 C 
HETATM    6  C10 UNL     1      -3.141   5.679  12.059  1.00  0.00     0.033 C 
HETATM    7  C11 UNL     1      -2.190   4.604  12.482  1.00  0.00     0.087 C 
HETATM    8  C12 UNL     1      -0.776   4.869  12.077  1.00  0.00     0.040 C 
HETATM    9  C13 UNL     1      -2.331   4.428  13.985  1.00  0.00     0.284 C 
HETATM   10  O2  UNL     1      -3.059   3.270  14.094  1.00  0.00    -0.329 OA
HETATM   11  C14 UNL     1      -3.734   3.073  12.891  1.00  0.00     0.168 C 
HETATM   12  C15 UNL     1      -4.169   1.629  12.823  1.00  0.00     0.232 C 
HETATM   13  O3  UNL     1      -4.645   1.289  14.120  1.00  0.00    -0.351 OA
HETATM   14  N1  UNL     1      -2.706   3.350  11.911  1.00  0.00    -0.148 NA
ENDROOT
BRANCH   1  15
HETATM   15  C4  UNL     1      -5.176   1.472  16.520  1.00  0.00     0.068 C 
BRANCH  15  16
HETATM   16  C2  UNL     1      -6.367   1.979  17.288  1.00  0.00    -0.017 C 
HETATM   17  C1  UNL     1      -6.108   2.090  18.762  1.00  0.00     0.010 C 
HETATM   18  C3  UNL     1      -7.573   1.129  17.000  1.00  0.00     0.010 C 
ENDBRANCH  15  16
ENDBRANCH   1  15
BRANCH  14  19
HETATM   19  O4  UNL     1      -1.764   2.398  11.899  1.00  0.00    -0.309 OA
ATOM     20  H4  UNL     1      -1.961   1.711  12.525  1.00  0.00     0.237 HD
ENDBRANCH  14  19
BRANCH   9  21
HETATM   21  O1  UNL     1      -1.083   4.359  14.594  1.00  0.00    -0.369 OA
ATOM     22  H1  UNL     1      -1.121   3.833  15.385  1.00  0.00     0.212 HD
ENDBRANCH   9  21
TORSDOF 4
ENDMDL
MODEL 4
REMARK VINA RESULT: -7.349827724      0.870      1.238
REMARK  4 active torsions:
REMARK  status: ('A' for Active; 'I' for Inactive)
REMARK    1  A    between atoms: C2_2  and  C4_4 
REMARK    2  A    between atoms: C4_4  and  C5_5 
REMARK    3  A    between atoms: C13_13  and  O1_14 
REMARK    4  A    between atoms: N1_20  and  O4_21 
ROOT
HETATM    1  C5  UNL     1      -4.569   6.514  12.648  1.00  0.00     0.043 C 
HETATM    2  C6  UNL     1      -5.442   5.820  13.339  1.00  0.00     0.006 C 
HETATM    3  C7  UNL     1      -5.381   4.678  14.256  1.00  0.00     0.039 C 
HETATM    4  C8  UNL     1      -4.118   3.898  14.247  1.00  0.00     0.044 C 
HETATM    5  C9  UNL     1      -4.397   2.482  14.671  1.00  0.00     0.011 C 
HETATM    6  C10 UNL     1      -4.366   1.469  13.589  1.00  0.00     0.033 C 
HETATM    7  C11 UNL     1      -3.706   1.914  12.322  1.00  0.00     0.087 C 
HETATM    8  C12 UNL     1      -3.259   0.781  11.456  1.00  0.00     0.040 C 
HETATM    9  C13 UNL     1      -4.670   2.840  11.600  1.00  0.00     0.284 C 
HETATM   10  O2  UNL     1      -4.142   4.084  11.839  1.00  0.00    -0.329 OA
HETATM   11  C14 UNL     1      -3.334   3.996  12.971  1.00  0.00     0.168 C 
HETATM   12  C15 UNL     1      -2.419   5.196  12.993  1.00  0.00     0.232 C 
HETATM   13  O3  UNL     1      -3.210   6.315  12.609  1.00  0.00    -0.351 OA
HETATM   14  N1  UNL     1      -2.588   2.781  12.724  1.00  0.00    -0.148 NA
ENDROOT
BRANCH   1  15
HETATM   15  C4  UNL     1      -5.137   7.636  11.822  1.00  0.00     0.068 C 
BRANCH  15  16
HETATM   16  C2  UNL     1      -6.495   7.284  11.278  1.00  0.00    -0.017 C 
HETATM   17  C1  UNL     1      -6.508   7.144   9.784  1.00  0.00     0.010 C 
HETATM   18  C3  UNL     1      -7.519   8.280  11.749  1.00  0.00     0.010 C 
ENDBRANCH  15  16
ENDBRANCH   1  15
BRANCH  14  19
HETATM   19  O4  UNL     1      -1.709   2.935  11.725  1.00  0.00    -0.309 OA
ATOM     20  H4  UNL     1      -1.255   3.767  11.790  1.00  0.00     0.237 HD
ENDBRANCH  14  19
BRANCH   9  21
HETATM   21  O1  UNL     1      -4.746   2.520  10.249  1.00  0.00    -0.369 OA
ATOM     22  H1  UNL     1      -4.003   1.990   9.985  1.00  0.00     0.212 HD
ENDBRANCH   9  21
TORSDOF 4
ENDMDL
MODEL 5
REMARK VINA RESULT: -7.335850212      2.440      4.378
REMARK  4 active torsions:
REMARK  status: ('A' for Active; 'I' for Inactive)
REMARK    1  A    between atoms: C2_2  and  C4_4 
REMARK    2  A    between atoms: C4_4  and  C5_5 
REMARK    3  A    between atoms: C13_13  and  O1_14 
REMARK    4  A    between atoms: N1_20  and  O4_21 
ROOT
HETATM    1  C5  UNL     1      -2.642   4.283  12.101  1.00  0.00     0.043 C 
HETATM    2  C6  UNL     1      -3.928   4.534  12.030  1.00  0.00     0.006 C 
HETATM    3  C7  UNL     1      -4.987   4.852  12.990  1.00  0.00     0.039 C 
HETATM    4  C8  UNL     1      -4.677   4.588  14.418  1.00  0.00     0.044 C 
HETATM    5  C9  UNL     1      -5.952   4.321  15.170  1.00  0.00     0.011 C 
HETATM    6  C10 UNL     1      -6.192   2.908  15.548  1.00  0.00     0.033 C 
HETATM    7  C11 UNL     1      -4.992   2.018  15.471  1.00  0.00     0.087 C 
HETATM    8  C12 UNL     1      -5.121   0.774  16.289  1.00  0.00     0.040 C 
HETATM    9  C13 UNL     1      -4.735   1.715  14.005  1.00  0.00     0.284 C 
HETATM   10  O2  UNL     1      -3.662   2.515  13.705  1.00  0.00    -0.329 OA
HETATM   11  C14 UNL     1      -3.622   3.545  14.643  1.00  0.00     0.168 C 
HETATM   12  C15 UNL     1      -2.243   4.160  14.611  1.00  0.00     0.232 C 
HETATM   13  O3  UNL     1      -1.875   4.256  13.240  1.00  0.00    -0.351 OA
HETATM   14  N1  UNL     1      -3.844   2.839  15.887  1.00  0.00    -0.148 NA
ENDROOT
BRANCH   1  15
HETATM   15  C4  UNL     1      -1.961   4.001  10.790  1.00  0.00     0.068 C 
BRANCH  15  16
HETATM   16  C2  UNL     1      -0.884   2.961  10.943  1.00  0.00    -0.017 C 
HETATM   17  C1  UNL     1       0.310   3.223  10.072  1.00  0.00     0.010 C 
HETATM   18  C3  UNL     1      -1.449   1.588  10.710  1.00  0.00     0.010 C 
ENDBRANCH  15  16
ENDBRANCH   1  15
BRANCH  14  19
HETATM   19  O4  UNL     1      -2.794   2.076  16.217  1.00  0.00    -0.309 OA
ATOM     20  H4  UNL     1      -2.992   1.521  16.962  1.00  0.00     0.237 HD
ENDBRANCH  14  19
BRANCH   9  21
HETATM   21  O1  UNL     1      -4.487   0.360  13.816  1.00  0.00    -0.369 OA
ATOM     22  H1  UNL     1      -4.661   0.106  12.917  1.00  0.00     0.212 HD
ENDBRANCH   9  21
TORSDOF 4
ENDMDL
