MODEL 1
REMARK VINA RESULT: -8.738318718      0.000      0.000
REMARK  12 active torsions:
REMARK  status: ('A' for Active; 'I' for Inactive)
REMARK    1  A    between atoms: C2_4  and  C3_5 
REMARK    2  A    between atoms: C2_4  and  N5_22 
REMARK    3  A    between atoms: C3_5  and  C4_6 
REMARK    4  A    between atoms: C4_6  and  C5_7 
REMARK    5  A    between atoms: C5_7  and  C6_8 
REMARK    6  A    between atoms: C6_8  and  C7_9 
REMARK    7  A    between atoms: C7_9  and  C8_10 
REMARK    8  A    between atoms: C8_10  and  C9_11 
REMARK    9  A    between atoms: C9_11  and  C10_12 
REMARK   10  A    between atoms: C10_12  and  N2_13 
REMARK   11  A    between atoms: N2_13  and  C11_15 
REMARK   12  A    between atoms: C14_24  and  N6_26 
ROOT
HETATM    1  C3  UNL     1      33.204  82.767   0.358  1.00  0.00     0.076 C 
ENDROOT
BRANCH   1   2
HETATM    2  C2  UNL     1      34.061  82.577  -0.814  1.00  0.00     0.077 C 
HETATM    3  N1  UNL     1      34.935  83.457  -1.178  1.00  0.00    -0.384 N 
HETATM    4  C1  UNL     1      35.790  83.300  -2.320  1.00  0.00     0.147 C 
ATOM      5  H1  UNL     1      35.022  84.308  -0.623  1.00  0.00     0.160 HD
BRANCH   2   6
HETATM    6  N5  UNL     1      33.953  81.415  -1.619  1.00  0.00    -0.336 N 
HETATM    7  C14 UNL     1      34.241  80.264  -1.127  1.00  0.00     0.077 C 
HETATM    8  C15 UNL     1      34.686  80.231   0.311  1.00  0.00     0.089 C 
ATOM      9  H5  UNL     1      33.648  81.492  -2.589  1.00  0.00     0.168 HD
BRANCH   7  10
HETATM   10  N6  UNL     1      34.151  79.066  -1.884  1.00  0.00    -0.348 N 
HETATM   11  C16 UNL     1      32.980  78.241  -2.022  1.00  0.00     0.126 C 
HETATM   12  C17 UNL     1      33.546  76.835  -2.131  1.00  0.00     0.024 C 
HETATM   13  C18 UNL     1      35.039  76.979  -2.226  1.00  0.00     0.049 C 
HETATM   14  C19 UNL     1      35.187  78.440  -2.654  1.00  0.00     0.107 C 
HETATM   15  C20 UNL     1      36.563  78.959  -2.383  1.00  0.00     0.057 C 
HETATM   16 CL1  UNL     1      34.850  78.507  -4.396  1.00  0.00    -0.096 Cl
ENDBRANCH   7  10
ENDBRANCH   2   6
ENDBRANCH   1   2
BRANCH   1  17
HETATM   17  C4  UNL     1      32.318  83.966   0.325  1.00  0.00     0.007 C 
BRANCH  17  18
HETATM   18  C5  UNL     1      32.488  84.851   1.517  1.00  0.00     0.000 C 
BRANCH  18  19
HETATM   19  C6  UNL     1      31.178  85.552   1.827  1.00  0.00     0.000 C 
BRANCH  19  20
HETATM   20  C7  UNL     1      30.254  85.604   0.647  1.00  0.00     0.000 C 
BRANCH  20  21
HETATM   21  C8  UNL     1      29.129  86.560   0.928  1.00  0.00     0.002 C 
BRANCH  21  22
HETATM   22  C9  UNL     1      28.384  86.908  -0.317  1.00  0.00     0.020 C 
BRANCH  22  23
HETATM   23  C10 UNL     1      26.868  86.734  -0.121  1.00  0.00     0.122 C 
BRANCH  23  24
HETATM   24  N2  UNL     1      26.145  87.387  -1.190  1.00  0.00    -0.362 N 
ATOM     25  H2  UNL     1      26.416  88.325  -1.483  1.00  0.00     0.162 HD
BRANCH  24  26
HETATM   26  C11 UNL     1      25.046  86.725  -1.846  1.00  0.00     0.171 C 
HETATM   27  N3  UNL     1      24.559  87.169  -2.953  1.00  0.00    -0.361 N 
HETATM   28  C12 UNL     1      23.476  86.359  -3.427  1.00  0.00     0.142 C 
ATOM     29  H3  UNL     1      24.904  88.000  -3.434  1.00  0.00     0.162 HD
HETATM   30  C13 UNL     1      23.487  85.162  -2.514  1.00  0.00     0.142 C 
HETATM   31  N4  UNL     1      24.356  85.555  -1.425  1.00  0.00    -0.361 N 
ATOM     32  H4  UNL     1      24.455  85.081  -0.527  1.00  0.00     0.162 HD
ENDBRANCH  24  26
ENDBRANCH  23  24
ENDBRANCH  22  23
ENDBRANCH  21  22
ENDBRANCH  20  21
ENDBRANCH  19  20
ENDBRANCH  18  19
ENDBRANCH  17  18
ENDBRANCH   1  17
TORSDOF 12
ENDMDL
MODEL 2
REMARK VINA RESULT: -8.644328606      0.989      1.641
REMARK  12 active torsions:
REMARK  status: ('A' for Active; 'I' for Inactive)
REMARK    1  A    between atoms: C2_4  and  C3_5 
REMARK    2  A    between atoms: C2_4  and  N5_22 
REMARK    3  A    between atoms: C3_5  and  C4_6 
REMARK    4  A    between atoms: C4_6  and  C5_7 
REMARK    5  A    between atoms: C5_7  and  C6_8 
REMARK    6  A    between atoms: C6_8  and  C7_9 
REMARK    7  A    between atoms: C7_9  and  C8_10 
REMARK    8  A    between atoms: C8_10  and  C9_11 
REMARK    9  A    between atoms: C9_11  and  C10_12 
REMARK   10  A    between atoms: C10_12  and  N2_13 
REMARK   11  A    between atoms: N2_13  and  C11_15 
REMARK   12  A    between atoms: C14_24  and  N6_26 
ROOT
HETATM    1  C3  UNL     1      33.241  82.558   0.299  1.00  0.00     0.076 C 
ENDROOT
BRANCH   1   2
HETATM    2  C2  UNL     1      34.100  82.482  -0.883  1.00  0.00     0.077 C 
HETATM    3  N1  UNL     1      34.928  83.424  -1.194  1.00  0.00    -0.384 N 
HETATM    4  C1  UNL     1      35.784  83.380  -2.346  1.00  0.00     0.147 C 
ATOM      5  H1  UNL     1      34.976  84.243  -0.589  1.00  0.00     0.160 HD
BRANCH   2   6
HETATM    6  N5  UNL     1      34.045  81.367  -1.759  1.00  0.00    -0.336 N 
HETATM    7  C14 UNL     1      34.577  80.251  -1.410  1.00  0.00     0.077 C 
HETATM    8  C15 UNL     1      35.241  80.206  -0.059  1.00  0.00     0.089 C 
ATOM      9  H5  UNL     1      33.584  81.451  -2.664  1.00  0.00     0.168 HD
BRANCH   7  10
HETATM   10  N6  UNL     1      34.553  79.102  -2.243  1.00  0.00    -0.348 N 
HETATM   11  C16 UNL     1      35.304  78.923  -3.457  1.00  0.00     0.126 C 
HETATM   12  C17 UNL     1      34.387  78.078  -4.323  1.00  0.00     0.024 C 
HETATM   13  C18 UNL     1      33.225  77.678  -3.457  1.00  0.00     0.049 C 
HETATM   14  C19 UNL     1      33.789  77.901  -2.053  1.00  0.00     0.107 C 
HETATM   15  C20 UNL     1      32.703  78.011  -1.031  1.00  0.00     0.057 C 
HETATM   16 CL1  UNL     1      34.827  76.509  -1.683  1.00  0.00    -0.096 Cl
ENDBRANCH   7  10
ENDBRANCH   2   6
ENDBRANCH   1   2
BRANCH   1  17
HETATM   17  C4  UNL     1      33.037  83.922   0.865  1.00  0.00     0.007 C 
BRANCH  17  18
HETATM   18  C5  UNL     1      31.671  84.466   0.599  1.00  0.00     0.000 C 
BRANCH  18  19
HETATM   19  C6  UNL     1      31.297  85.465   1.679  1.00  0.00     0.000 C 
BRANCH  19  20
HETATM   20  C7  UNL     1      29.926  86.043   1.486  1.00  0.00     0.000 C 
BRANCH  20  21
HETATM   21  C8  UNL     1      29.543  85.961   0.034  1.00  0.00     0.002 C 
BRANCH  21  22
HETATM   22  C9  UNL     1      28.675  87.105  -0.366  1.00  0.00     0.020 C 
BRANCH  22  23
HETATM   23  C10 UNL     1      27.186  86.723  -0.287  1.00  0.00     0.122 C 
BRANCH  23  24
HETATM   24  N2  UNL     1      26.453  87.331  -1.377  1.00  0.00    -0.362 N 
ATOM     25  H2  UNL     1      26.727  88.252  -1.718  1.00  0.00     0.162 HD
BRANCH  24  26
HETATM   26  C11 UNL     1      25.339  86.649  -1.985  1.00  0.00     0.171 C 
HETATM   27  N3  UNL     1      25.029  85.444  -1.652  1.00  0.00    -0.361 N 
HETATM   28  C12 UNL     1      23.891  84.962  -2.379  1.00  0.00     0.142 C 
ATOM     29  H3  UNL     1      25.533  84.897  -0.954  1.00  0.00     0.162 HD
HETATM   30  C13 UNL     1      23.382  86.177  -3.110  1.00  0.00     0.142 C 
HETATM   31  N4  UNL     1      24.453  87.142  -2.982  1.00  0.00    -0.361 N 
ATOM     32  H4  UNL     1      24.553  88.011  -3.507  1.00  0.00     0.162 HD
ENDBRANCH  24  26
ENDBRANCH  23  24
ENDBRANCH  22  23
ENDBRANCH  21  22
ENDBRANCH  20  21
ENDBRANCH  19  20
ENDBRANCH  18  19
ENDBRANCH  17  18
ENDBRANCH   1  17
TORSDOF 12
ENDMDL
MODEL 3
REMARK VINA RESULT: -8.630255192      1.206      1.884
REMARK  12 active torsions:
REMARK  status: ('A' for Active; 'I' for Inactive)
REMARK    1  A    between atoms: C2_4  and  C3_5 
REMARK    2  A    between atoms: C2_4  and  N5_22 
REMARK    3  A    between atoms: C3_5  and  C4_6 
REMARK    4  A    between atoms: C4_6  and  C5_7 
REMARK    5  A    between atoms: C5_7  and  C6_8 
REMARK    6  A    between atoms: C6_8  and  C7_9 
REMARK    7  A    between atoms: C7_9  and  C8_10 
REMARK    8  A    between atoms: C8_10  and  C9_11 
REMARK    9  A    between atoms: C9_11  and  C10_12 
REMARK   10  A    between atoms: C10_12  and  N2_13 
REMARK   11  A    between atoms: N2_13  and  C11_15 
REMARK   12  A    between atoms: C14_24  and  N6_26 
ROOT
HETATM    1  C3  UNL     1      33.441  82.379   0.201  1.00  0.00     0.076 C 
ENDROOT
BRANCH   1   2
HETATM    2  C2  UNL     1      34.253  82.390  -1.017  1.00  0.00     0.077 C 
HETATM    3  N1  UNL     1      35.014  83.387  -1.328  1.00  0.00    -0.384 N 
HETATM    4  C1  UNL     1      35.822  83.429  -2.514  1.00  0.00     0.147 C 
ATOM      5  H1  UNL     1      35.040  84.189  -0.698  1.00  0.00     0.160 HD
BRANCH   2   6
HETATM    6  N5  UNL     1      34.225  81.302  -1.926  1.00  0.00    -0.336 N 
HETATM    7  C14 UNL     1      34.694  80.159  -1.575  1.00  0.00     0.077 C 
HETATM    8  C15 UNL     1      35.257  80.054  -0.182  1.00  0.00     0.089 C 
ATOM      9  H5  UNL     1      33.833  81.427  -2.860  1.00  0.00     0.168 HD
BRANCH   7  10
HETATM   10  N6  UNL     1      34.692  79.034  -2.441  1.00  0.00    -0.348 N 
HETATM   11  C16 UNL     1      35.472  78.893  -3.641  1.00  0.00     0.126 C 
HETATM   12  C17 UNL     1      34.577  78.071  -4.553  1.00  0.00     0.024 C 
HETATM   13  C18 UNL     1      33.397  77.644  -3.726  1.00  0.00     0.049 C 
HETATM   14  C19 UNL     1      33.928  77.827  -2.303  1.00  0.00     0.107 C 
HETATM   15  C20 UNL     1      32.818  77.905  -1.304  1.00  0.00     0.057 C 
HETATM   16 CL1  UNL     1      34.960  76.427  -1.950  1.00  0.00    -0.096 Cl
ENDBRANCH   7  10
ENDBRANCH   2   6
ENDBRANCH   1   2
BRANCH   1  17
HETATM   17  C4  UNL     1      32.528  83.544   0.381  1.00  0.00     0.007 C 
BRANCH  17  18
HETATM   18  C5  UNL     1      32.994  84.493   1.436  1.00  0.00     0.000 C 
BRANCH  18  19
HETATM   19  C6  UNL     1      31.845  85.385   1.868  1.00  0.00     0.000 C 
BRANCH  19  20
HETATM   20  C7  UNL     1      30.607  85.176   1.048  1.00  0.00     0.000 C 
BRANCH  20  21
HETATM   21  C8  UNL     1      29.622  86.276   1.330  1.00  0.00     0.002 C 
BRANCH  21  22
HETATM   22  C9  UNL     1      28.449  85.773   2.103  1.00  0.00     0.020 C 
BRANCH  22  23
HETATM   23  C10 UNL     1      27.128  86.173   1.423  1.00  0.00     0.122 C 
BRANCH  23  24
HETATM   24  N2  UNL     1      27.333  86.373   0.005  1.00  0.00    -0.362 N 
ATOM     25  H2  UNL     1      28.281  86.394  -0.370  1.00  0.00     0.162 HD
BRANCH  24  26
HETATM   26  C11 UNL     1      26.211  86.543  -0.883  1.00  0.00     0.171 C 
HETATM   27  N3  UNL     1      25.175  85.782  -0.808  1.00  0.00    -0.361 N 
HETATM   28  C12 UNL     1      24.183  86.127  -1.783  1.00  0.00     0.142 C 
ATOM     29  H3  UNL     1      25.073  85.023  -0.133  1.00  0.00     0.162 HD
HETATM   30  C13 UNL     1      24.688  87.413  -2.380  1.00  0.00     0.142 C 
HETATM   31  N4  UNL     1      26.057  87.503  -1.920  1.00  0.00    -0.361 N 
ATOM     32  H4  UNL     1      26.775  88.137  -2.273  1.00  0.00     0.162 HD
ENDBRANCH  24  26
ENDBRANCH  23  24
ENDBRANCH  22  23
ENDBRANCH  21  22
ENDBRANCH  20  21
ENDBRANCH  19  20
ENDBRANCH  18  19
ENDBRANCH  17  18
ENDBRANCH   1  17
TORSDOF 12
ENDMDL
MODEL 4
REMARK VINA RESULT: -8.451294073      3.190     10.124
REMARK  12 active torsions:
REMARK  status: ('A' for Active; 'I' for Inactive)
REMARK    1  A    between atoms: C2_4  and  C3_5 
REMARK    2  A    between atoms: C2_4  and  N5_22 
REMARK    3  A    between atoms: C3_5  and  C4_6 
REMARK    4  A    between atoms: C4_6  and  C5_7 
REMARK    5  A    between atoms: C5_7  and  C6_8 
REMARK    6  A    between atoms: C6_8  and  C7_9 
REMARK    7  A    between atoms: C7_9  and  C8_10 
REMARK    8  A    between atoms: C8_10  and  C9_11 
REMARK    9  A    between atoms: C9_11  and  C10_12 
REMARK   10  A    between atoms: C10_12  and  N2_13 
REMARK   11  A    between atoms: N2_13  and  C11_15 
REMARK   12  A    between atoms: C14_24  and  N6_26 
ROOT
HETATM    1  C3  UNL     1      29.631  85.855   0.226  1.00  0.00     0.076 C 
ENDROOT
BRANCH   1   2
HETATM    2  C2  UNL     1      28.302  86.143   0.770  1.00  0.00     0.077 C 
HETATM    3  N1  UNL     1      28.137  86.801   1.870  1.00  0.00    -0.384 N 
HETATM    4  C1  UNL     1      26.849  87.100   2.429  1.00  0.00     0.147 C 
ATOM      5  H1  UNL     1      28.966  87.124   2.368  1.00  0.00     0.160 HD
BRANCH   2   6
HETATM    6  N5  UNL     1      27.128  85.691   0.115  1.00  0.00    -0.336 N 
HETATM    7  C14 UNL     1      26.681  86.324  -0.909  1.00  0.00     0.077 C 
HETATM    8  C15 UNL     1      27.456  87.537  -1.351  1.00  0.00     0.089 C 
ATOM      9  H5  UNL     1      26.640  84.864   0.456  1.00  0.00     0.168 HD
BRANCH   7  10
HETATM   10  N6  UNL     1      25.512  85.919  -1.606  1.00  0.00    -0.348 N 
HETATM   11  C16 UNL     1      25.189  84.573  -2.000  1.00  0.00     0.126 C 
HETATM   12  C17 UNL     1      24.437  84.755  -3.307  1.00  0.00     0.024 C 
HETATM   13  C18 UNL     1      24.228  86.234  -3.480  1.00  0.00     0.049 C 
HETATM   14  C19 UNL     1      24.431  86.749  -2.054  1.00  0.00     0.107 C 
HETATM   15  C20 UNL     1      24.722  88.215  -2.032  1.00  0.00     0.057 C 
HETATM   16 CL1  UNL     1      22.930  86.418  -1.165  1.00  0.00    -0.096 Cl
ENDBRANCH   7  10
ENDBRANCH   2   6
ENDBRANCH   1   2
BRANCH   1  17
HETATM   17  C4  UNL     1      30.486  84.952   1.049  1.00  0.00     0.007 C 
BRANCH  17  18
HETATM   18  C5  UNL     1      31.415  85.693   1.955  1.00  0.00     0.000 C 
BRANCH  18  19
HETATM   19  C6  UNL     1      32.792  85.057   1.910  1.00  0.00     0.000 C 
BRANCH  19  20
HETATM   20  C7  UNL     1      32.911  84.004   0.847  1.00  0.00     0.000 C 
BRANCH  20  21
HETATM   21  C8  UNL     1      34.209  84.176   0.109  1.00  0.00     0.002 C 
BRANCH  21  22
HETATM   22  C9  UNL     1      33.995  84.225  -1.366  1.00  0.00     0.020 C 
BRANCH  22  23
HETATM   23  C10 UNL     1      35.163  83.561  -2.116  1.00  0.00     0.122 C 
BRANCH  23  24
HETATM   24  N2  UNL     1      35.587  82.362  -1.424  1.00  0.00    -0.362 N 
ATOM     25  H2  UNL     1      36.251  82.433  -0.654  1.00  0.00     0.162 HD
BRANCH  24  26
HETATM   26  C11 UNL     1      35.079  81.071  -1.812  1.00  0.00     0.171 C 
HETATM   27  N3  UNL     1      35.780  80.263  -2.528  1.00  0.00    -0.361 N 
HETATM   28  C12 UNL     1      35.084  79.039  -2.795  1.00  0.00     0.142 C 
ATOM     29  H3  UNL     1      36.721  80.469  -2.866  1.00  0.00     0.162 HD
HETATM   30  C13 UNL     1      33.857  79.119  -1.926  1.00  0.00     0.142 C 
HETATM   31  N4  UNL     1      33.814  80.502  -1.499  1.00  0.00    -0.361 N 
ATOM     32  H4  UNL     1      33.027  80.977  -1.058  1.00  0.00     0.162 HD
ENDBRANCH  24  26
ENDBRANCH  23  24
ENDBRANCH  22  23
ENDBRANCH  21  22
ENDBRANCH  20  21
ENDBRANCH  19  20
ENDBRANCH  18  19
ENDBRANCH  17  18
ENDBRANCH   1  17
TORSDOF 12
ENDMDL
MODEL 5
REMARK VINA RESULT: -8.371693053      1.276      1.793
REMARK  12 active torsions:
REMARK  status: ('A' for Active; 'I' for Inactive)
REMARK    1  A    between atoms: C2_4  and  C3_5 
REMARK    2  A    between atoms: C2_4  and  N5_22 
REMARK    3  A    between atoms: C3_5  and  C4_6 
REMARK    4  A    between atoms: C4_6  and  C5_7 
REMARK    5  A    between atoms: C5_7  and  C6_8 
REMARK    6  A    between atoms: C6_8  and  C7_9 
REMARK    7  A    between atoms: C7_9  and  C8_10 
REMARK    8  A    between atoms: C8_10  and  C9_11 
REMARK    9  A    between atoms: C9_11  and  C10_12 
REMARK   10  A    between atoms: C10_12  and  N2_13 
REMARK   11  A    between atoms: N2_13  and  C11_15 
REMARK   12  A    between atoms: C14_24  and  N6_26 
ROOT
HETATM    1  C3  UNL     1      33.693  83.100   0.739  1.00  0.00     0.076 C 
ENDROOT
BRANCH   1   2
HETATM    2  C2  UNL     1      34.134  82.602  -0.565  1.00  0.00     0.077 C 
HETATM    3  N1  UNL     1      34.993  83.239  -1.291  1.00  0.00    -0.384 N 
HETATM    4  C1  UNL     1      35.446  82.777  -2.573  1.00  0.00     0.147 C 
ATOM      5  H1  UNL     1      35.369  84.117  -0.934  1.00  0.00     0.160 HD
BRANCH   2   6
HETATM    6  N5  UNL     1      33.617  81.395  -1.102  1.00  0.00    -0.336 N 
HETATM    7  C14 UNL     1      34.227  80.286  -0.892  1.00  0.00     0.077 C 
HETATM    8  C15 UNL     1      35.486  80.347  -0.068  1.00  0.00     0.089 C 
ATOM      9  H5  UNL     1      32.760  81.409  -1.656  1.00  0.00     0.168 HD
BRANCH   7  10
HETATM   10  N6  UNL     1      33.757  79.047  -1.402  1.00  0.00    -0.348 N 
HETATM   11  C16 UNL     1      33.809  78.627  -2.778  1.00  0.00     0.126 C 
HETATM   12  C17 UNL     1      32.555  77.785  -2.941  1.00  0.00     0.024 C 
HETATM   13  C18 UNL     1      31.956  77.637  -1.571  1.00  0.00     0.049 C 
HETATM   14  C19 UNL     1      33.144  77.976  -0.669  1.00  0.00     0.107 C 
HETATM   15  C20 UNL     1      32.704  78.341   0.713  1.00  0.00     0.057 C 
HETATM   16 CL1  UNL     1      34.180  76.535  -0.612  1.00  0.00    -0.096 Cl
ENDBRANCH   7  10
ENDBRANCH   2   6
ENDBRANCH   1   2
BRANCH   1  17
HETATM   17  C4  UNL     1      32.746  84.251   0.706  1.00  0.00     0.007 C 
BRANCH  17  18
HETATM   18  C5  UNL     1      32.832  85.112   1.924  1.00  0.00     0.000 C 
BRANCH  18  19
HETATM   19  C6  UNL     1      31.497  85.792   2.167  1.00  0.00     0.000 C 
BRANCH  19  20
HETATM   20  C7  UNL     1      30.407  85.266   1.280  1.00  0.00     0.000 C 
BRANCH  20  21
HETATM   21  C8  UNL     1      29.226  86.195   1.325  1.00  0.00     0.002 C 
BRANCH  21  22
HETATM   22  C9  UNL     1      28.664  86.429  -0.036  1.00  0.00     0.020 C 
BRANCH  22  23
HETATM   23  C10 UNL     1      27.186  86.852   0.042  1.00  0.00     0.122 C 
BRANCH  23  24
HETATM   24  N2  UNL     1      26.718  87.285  -1.257  1.00  0.00    -0.362 N 
ATOM     25  H2  UNL     1      27.205  88.038  -1.743  1.00  0.00     0.162 HD
BRANCH  24  26
HETATM   26  C11 UNL     1      25.571  86.665  -1.870  1.00  0.00     0.171 C 
HETATM   27  N3  UNL     1      25.237  85.452  -1.593  1.00  0.00    -0.361 N 
HETATM   28  C12 UNL     1      24.069  85.039  -2.313  1.00  0.00     0.142 C 
ATOM     29  H3  UNL     1      25.744  84.856  -0.938  1.00  0.00     0.162 HD
HETATM   30  C13 UNL     1      23.574  86.303  -2.964  1.00  0.00     0.142 C 
HETATM   31  N4  UNL     1      24.674  87.233  -2.815  1.00  0.00    -0.361 N 
ATOM     32  H4  UNL     1      24.783  88.126  -3.296  1.00  0.00     0.162 HD
ENDBRANCH  24  26
ENDBRANCH  23  24
ENDBRANCH  22  23
ENDBRANCH  21  22
ENDBRANCH  20  21
ENDBRANCH  19  20
ENDBRANCH  18  19
ENDBRANCH  17  18
ENDBRANCH   1  17
TORSDOF 12
ENDMDL
