MODEL 1
REMARK VINA RESULT: -4.830637003      0.000      0.000
REMARK  2 active torsions:
REMARK  status: ('A' for Active; 'I' for Inactive)
REMARK    1  A    between atoms: C2_2  and  N1_5 
REMARK    2  A    between atoms: N1_5  and  C5_7 
ROOT
HETATM    1  C5  UNL     1      17.315  -7.391  10.927  1.00  0.00     0.104 C 
HETATM    2  C6  UNL     1      16.747  -8.827  10.853  1.00  0.00     0.054 C 
HETATM    3  C7  UNL     1      15.386  -8.706  10.259  1.00  0.00     0.234 C 
HETATM    4  N2  UNL     1      15.153  -7.314   9.972  1.00  0.00    -0.073 N 
ATOM      5  H21 UNL     1      14.190  -7.028  10.151  1.00  0.00     0.277 HD
ATOM      6  H22 UNL     1      15.171  -7.106   8.974  1.00  0.00     0.277 HD
HETATM    7  C8  UNL     1      16.122  -6.540  10.729  1.00  0.00     0.256 C 
ENDROOT
BRANCH   1   8
HETATM    8  N1  UNL     1      17.897  -7.279  12.215  1.00  0.00    -0.408 N 
ATOM      9  H1  UNL     1      17.332  -7.368  13.059  1.00  0.00     0.154 HD
BRANCH   8  10
HETATM   10  C2  UNL     1      19.303  -7.038  12.288  1.00  0.00     0.015 C 
HETATM   11  C1  UNL     1      19.900  -6.314  11.121  1.00  0.00     0.037 C 
HETATM   12  C3  UNL     1      20.079  -8.357  12.392  1.00  0.00     0.037 C 
HETATM   13  C4  UNL     1      19.609  -6.276  13.550  1.00  0.00     0.037 C 
ENDBRANCH   8  10
ENDBRANCH   1   8
TORSDOF 2
ENDMDL
MODEL 2
REMARK VINA RESULT: -4.805879142      0.087      1.323
REMARK  2 active torsions:
REMARK  status: ('A' for Active; 'I' for Inactive)
REMARK    1  A    between atoms: C2_2  and  N1_5 
REMARK    2  A    between atoms: N1_5  and  C5_7 
ROOT
HETATM    1  C5  UNL     1      17.335  -7.389  10.942  1.00  0.00     0.104 C 
HETATM    2  C6  UNL     1      16.770  -8.826  10.885  1.00  0.00     0.054 C 
HETATM    3  C7  UNL     1      15.407  -8.715  10.294  1.00  0.00     0.234 C 
HETATM    4  N2  UNL     1      15.169  -7.326   9.993  1.00  0.00    -0.073 N 
ATOM      5  H21 UNL     1      14.207  -7.041  10.172  1.00  0.00     0.277 HD
ATOM      6  H22 UNL     1      15.184  -7.129   8.992  1.00  0.00     0.277 HD
HETATM    7  C8  UNL     1      16.139  -6.542  10.739  1.00  0.00     0.256 C 
ENDROOT
BRANCH   1   8
HETATM    8  N1  UNL     1      17.920  -7.262  12.227  1.00  0.00    -0.408 N 
ATOM      9  H1  UNL     1      17.346  -7.247  13.069  1.00  0.00     0.154 HD
BRANCH   8  10
HETATM   10  C2  UNL     1      19.343  -7.159  12.299  1.00  0.00     0.015 C 
HETATM   11  C1  UNL     1      20.088  -8.456  12.363  1.00  0.00     0.037 C 
HETATM   12  C3  UNL     1      19.771  -6.378  13.548  1.00  0.00     0.037 C 
HETATM   13  C4  UNL     1      19.841  -6.362  11.122  1.00  0.00     0.037 C 
ENDBRANCH   8  10
ENDBRANCH   1   8
TORSDOF 2
ENDMDL
MODEL 3
REMARK VINA RESULT: -4.748896306      1.663      4.185
REMARK  2 active torsions:
REMARK  status: ('A' for Active; 'I' for Inactive)
REMARK    1  A    between atoms: C2_2  and  N1_5 
REMARK    2  A    between atoms: N1_5  and  C5_7 
ROOT
HETATM    1  C5  UNL     1      17.232  -8.104  11.492  1.00  0.00     0.104 C 
HETATM    2  C6  UNL     1      18.720  -8.192  11.901  1.00  0.00     0.054 C 
HETATM    3  C7  UNL     1      19.112  -6.823  12.340  1.00  0.00     0.234 C 
HETATM    4  N2  UNL     1      17.952  -5.976  12.230  1.00  0.00    -0.073 N 
ATOM      5  H21 UNL     1      18.178  -5.034  11.912  1.00  0.00     0.277 HD
ATOM      6  H22 UNL     1      17.560  -5.720  13.137  1.00  0.00     0.277 HD
HETATM    7  C8  UNL     1      16.995  -6.649  11.369  1.00  0.00     0.256 C 
ENDROOT
BRANCH   1   8
HETATM    8  N1  UNL     1      17.133  -8.811  10.267  1.00  0.00    -0.408 N 
ATOM      9  H1  UNL     1      17.505  -8.421   9.402  1.00  0.00     0.154 HD
BRANCH   8  10
HETATM   10  C2  UNL     1      16.495 -10.088  10.289  1.00  0.00     0.015 C 
HETATM   11  C1  UNL     1      17.247 -11.179  10.987  1.00  0.00     0.037 C 
HETATM   12  C3  UNL     1      16.254 -10.603   8.865  1.00  0.00     0.037 C 
HETATM   13  C4  UNL     1      15.133  -9.951  10.916  1.00  0.00     0.037 C 
ENDBRANCH   8  10
ENDBRANCH   1   8
TORSDOF 2
ENDMDL
MODEL 4
REMARK VINA RESULT: -4.633492723      1.675      4.222
REMARK  2 active torsions:
REMARK  status: ('A' for Active; 'I' for Inactive)
REMARK    1  A    between atoms: C2_2  and  N1_5 
REMARK    2  A    between atoms: N1_5  and  C5_7 
ROOT
HETATM    1  C5  UNL     1      17.259  -8.127  11.482  1.00  0.00     0.104 C 
HETATM    2  C6  UNL     1      18.741  -8.180  11.918  1.00  0.00     0.054 C 
HETATM    3  C7  UNL     1      19.102  -6.797  12.337  1.00  0.00     0.234 C 
HETATM    4  N2  UNL     1      17.930  -5.972  12.191  1.00  0.00    -0.073 N 
ATOM      5  H21 UNL     1      18.145  -5.033  11.858  1.00  0.00     0.277 HD
ATOM      6  H22 UNL     1      17.518  -5.706  13.085  1.00  0.00     0.277 HD
HETATM    7  C8  UNL     1      16.999  -6.679  11.327  1.00  0.00     0.256 C 
ENDROOT
BRANCH   1   8
HETATM    8  N1  UNL     1      17.194  -8.858  10.270  1.00  0.00    -0.408 N 
ATOM      9  H1  UNL     1      17.665  -8.527   9.428  1.00  0.00     0.154 HD
BRANCH   8  10
HETATM   10  C2  UNL     1      16.448 -10.075  10.270  1.00  0.00     0.015 C 
HETATM   11  C1  UNL     1      15.104 -10.015  10.928  1.00  0.00     0.037 C 
HETATM   12  C3  UNL     1      17.212 -11.186  11.002  1.00  0.00     0.037 C 
HETATM   13  C4  UNL     1      16.281 -10.554   8.851  1.00  0.00     0.037 C 
ENDBRANCH   8  10
ENDBRANCH   1   8
TORSDOF 2
ENDMDL
MODEL 5
REMARK VINA RESULT: -4.427510764      1.129      1.302
REMARK  2 active torsions:
REMARK  status: ('A' for Active; 'I' for Inactive)
REMARK    1  A    between atoms: C2_2  and  N1_5 
REMARK    2  A    between atoms: N1_5  and  C5_7 
ROOT
HETATM    1  C5  UNL     1      17.941  -6.926  11.365  1.00  0.00     0.104 C 
HETATM    2  C6  UNL     1      17.807  -8.443  11.627  1.00  0.00     0.054 C 
HETATM    3  C7  UNL     1      16.546  -8.871  10.959  1.00  0.00     0.234 C 
HETATM    4  N2  UNL     1      15.970  -7.714  10.322  1.00  0.00    -0.073 N 
ATOM      5  H21 UNL     1      14.952  -7.696  10.379  1.00  0.00     0.277 HD
ATOM      6  H22 UNL     1      16.047  -7.742   9.306  1.00  0.00     0.277 HD
HETATM    7  C8  UNL     1      16.590  -6.536  10.905  1.00  0.00     0.256 C 
ENDROOT
BRANCH   1   8
HETATM    8  N1  UNL     1      18.313  -6.358  12.609  1.00  0.00    -0.408 N 
ATOM      9  H1  UNL     1      17.648  -6.294  13.380  1.00  0.00     0.154 HD
BRANCH   8  10
HETATM   10  C2  UNL     1      19.651  -5.878  12.745  1.00  0.00     0.015 C 
HETATM   11  C1  UNL     1      20.462  -5.848  11.487  1.00  0.00     0.037 C 
HETATM   12  C3  UNL     1      20.447  -6.749  13.725  1.00  0.00     0.037 C 
HETATM   13  C4  UNL     1      19.624  -4.498  13.346  1.00  0.00     0.037 C 
ENDBRANCH   8  10
ENDBRANCH   1   8
TORSDOF 2
ENDMDL
