MODEL 1
REMARK VINA RESULT: -5.230206963      0.000      0.000
REMARK  5 active torsions:
REMARK  status: ('A' for Active; 'I' for Inactive)
REMARK    1  A    between atoms: N1_1  and  C1_4 
REMARK    2  A    between atoms: C2_9  and  S1_10 
REMARK    3  A    between atoms: S1_10  and  C3_11 
REMARK    4  A    between atoms: C3_11  and  C4_12 
REMARK    5  A    between atoms: C4_12  and  N4_13 
ROOT
HETATM    1  C1  UNL     1     -29.236   4.786 -25.715  1.00  0.00     0.692 A 
HETATM    2  N2  UNL     1     -28.074   5.355 -26.082  1.00  0.00    -0.130 N 
ATOM      3  H2  UNL     1     -27.189   4.865 -26.213  1.00  0.00     0.205 HD
HETATM    4  N3  UNL     1     -28.267   6.663 -26.249  1.00  0.00    -0.265 N 
ATOM      5  H3  UNL     1     -27.550   7.334 -26.528  1.00  0.00     0.189 HD
HETATM    6  C2  UNL     1     -29.550   6.961 -25.992  1.00  0.00     0.174 A 
HETATM    7  N5  UNL     1     -30.129   5.786 -25.665  1.00  0.00    -0.168 N 
ATOM      8  H5  UNL     1     -31.112   5.674 -25.414  1.00  0.00     0.186 HD
ENDROOT
BRANCH   6   9
HETATM    9  S1  UNL     1     -30.297   8.581 -26.078  1.00  0.00    -0.090 SA
BRANCH   9  10
HETATM   10  C3  UNL     1     -29.357   9.795 -25.134  1.00  0.00     0.109 C 
BRANCH  10  11
HETATM   11  C4  UNL     1     -28.771  10.880 -26.004  1.00  0.00     0.240 C 
BRANCH  11  12
HETATM   12  N4  UNL     1     -27.431  10.555 -26.430  1.00  0.00    -0.079 N 
ATOM     13  H43 UNL     1     -27.210   9.576 -26.248  1.00  0.00     0.274 HD
ATOM     14  H42 UNL     1     -27.355  10.548 -27.448  1.00  0.00     0.274 HD
ATOM     15  H41 UNL     1     -26.741  11.177 -26.010  1.00  0.00     0.274 HD
ENDBRANCH  11  12
ENDBRANCH  10  11
ENDBRANCH   9  10
ENDBRANCH   6   9
BRANCH   1  16
HETATM   16  N1  UNL     1     -29.395   3.535 -25.474  1.00  0.00    -0.233 N 
ATOM     17  H12 UNL     1     -29.000   2.962 -24.729  1.00  0.00     0.174 HD
ATOM     18  H11 UNL     1     -29.973   2.904 -26.030  1.00  0.00     0.174 HD
ENDBRANCH   1  16
TORSDOF 5
ENDMDL
MODEL 2
REMARK VINA RESULT: -5.053118395      1.509      1.684
REMARK  5 active torsions:
REMARK  status: ('A' for Active; 'I' for Inactive)
REMARK    1  A    between atoms: N1_1  and  C1_4 
REMARK    2  A    between atoms: C2_9  and  S1_10 
REMARK    3  A    between atoms: S1_10  and  C3_11 
REMARK    4  A    between atoms: C3_11  and  C4_12 
REMARK    5  A    between atoms: C4_12  and  N4_13 
ROOT
HETATM    1  C1  UNL     1     -29.246   4.765 -25.701  1.00  0.00     0.692 A 
HETATM    2  N2  UNL     1     -28.098   5.380 -26.040  1.00  0.00    -0.130 N 
ATOM      3  H2  UNL     1     -27.190   4.926 -26.139  1.00  0.00     0.205 HD
HETATM    4  N3  UNL     1     -28.340   6.677 -26.224  1.00  0.00    -0.265 N 
ATOM      5  H3  UNL     1     -27.644   7.375 -26.489  1.00  0.00     0.189 HD
HETATM    6  C2  UNL     1     -29.642   6.923 -26.009  1.00  0.00     0.174 A 
HETATM    7  N5  UNL     1     -30.181   5.727 -25.687  1.00  0.00    -0.168 N 
ATOM      8  H5  UNL     1     -31.165   5.576 -25.464  1.00  0.00     0.186 HD
ENDROOT
BRANCH   6   9
HETATM    9  S1  UNL     1     -30.453   8.509 -26.133  1.00  0.00    -0.090 SA
BRANCH   9  10
HETATM   10  C3  UNL     1     -29.569   9.779 -25.208  1.00  0.00     0.109 C 
BRANCH  10  11
HETATM   11  C4  UNL     1     -29.485   9.472 -23.734  1.00  0.00     0.240 C 
BRANCH  11  12
HETATM   12  N4  UNL     1     -30.345  10.335 -22.960  1.00  0.00    -0.079 N 
ATOM     13  H43 UNL     1     -30.208  11.315 -23.208  1.00  0.00     0.274 HD
ATOM     14  H42 UNL     1     -31.321  10.235 -23.237  1.00  0.00     0.274 HD
ATOM     15  H41 UNL     1     -30.225  10.185 -21.958  1.00  0.00     0.274 HD
ENDBRANCH  11  12
ENDBRANCH  10  11
ENDBRANCH   9  10
ENDBRANCH   6   9
BRANCH   1  16
HETATM   16  N1  UNL     1     -29.359   3.511 -25.453  1.00  0.00    -0.233 N 
ATOM     17  H12 UNL     1     -29.191   2.711 -26.062  1.00  0.00     0.174 HD
ATOM     18  H11 UNL     1     -29.651   3.119 -24.557  1.00  0.00     0.174 HD
ENDBRANCH   1  16
TORSDOF 5
ENDMDL
MODEL 3
REMARK VINA RESULT: -4.967015370      2.264      3.261
REMARK  5 active torsions:
REMARK  status: ('A' for Active; 'I' for Inactive)
REMARK    1  A    between atoms: N1_1  and  C1_4 
REMARK    2  A    between atoms: C2_9  and  S1_10 
REMARK    3  A    between atoms: S1_10  and  C3_11 
REMARK    4  A    between atoms: C3_11  and  C4_12 
REMARK    5  A    between atoms: C4_12  and  N4_13 
ROOT
HETATM    1  C1  UNL     1     -29.254   4.682 -25.701  1.00  0.00     0.692 A 
HETATM    2  N2  UNL     1     -28.152   5.373 -26.044  1.00  0.00    -0.130 N 
ATOM      3  H2  UNL     1     -27.208   4.991 -26.106  1.00  0.00     0.205 HD
HETATM    4  N3  UNL     1     -28.492   6.637 -26.290  1.00  0.00    -0.265 N 
ATOM      5  H3  UNL     1     -27.848   7.377 -26.571  1.00  0.00     0.189 HD
HETATM    6  C2  UNL     1     -29.814   6.785 -26.111  1.00  0.00     0.174 A 
HETATM    7  N5  UNL     1     -30.263   5.565 -25.748  1.00  0.00    -0.168 N 
ATOM      8  H5  UNL     1     -31.237   5.343 -25.538  1.00  0.00     0.186 HD
ENDROOT
BRANCH   6   9
HETATM    9  S1  UNL     1     -30.747   8.294 -26.320  1.00  0.00    -0.090 SA
BRANCH   9  10
HETATM   10  C3  UNL     1     -31.818   8.216 -27.768  1.00  0.00     0.109 C 
BRANCH  10  11
HETATM   11  C4  UNL     1     -32.950   7.233 -27.600  1.00  0.00     0.240 C 
BRANCH  11  12
HETATM   12  N4  UNL     1     -34.128   7.650 -28.323  1.00  0.00    -0.079 N 
ATOM     13  H43 UNL     1     -33.928   7.784 -29.314  1.00  0.00     0.274 HD
ATOM     14  H42 UNL     1     -34.806   6.891 -28.400  1.00  0.00     0.274 HD
ATOM     15  H41 UNL     1     -34.548   8.483 -27.912  1.00  0.00     0.274 HD
ENDBRANCH  11  12
ENDBRANCH  10  11
ENDBRANCH   9  10
ENDBRANCH   6   9
BRANCH   1  16
HETATM   16  N1  UNL     1     -29.272   3.434 -25.401  1.00  0.00    -0.233 N 
ATOM     17  H12 UNL     1     -28.495   2.785 -25.274  1.00  0.00     0.174 HD
ATOM     18  H11 UNL     1     -30.117   2.887 -25.239  1.00  0.00     0.174 HD
ENDBRANCH   1  16
TORSDOF 5
ENDMDL
MODEL 4
REMARK VINA RESULT: -4.737393711      1.731      4.967
REMARK  5 active torsions:
REMARK  status: ('A' for Active; 'I' for Inactive)
REMARK    1  A    between atoms: N1_1  and  C1_4 
REMARK    2  A    between atoms: C2_9  and  S1_10 
REMARK    3  A    between atoms: S1_10  and  C3_11 
REMARK    4  A    between atoms: C3_11  and  C4_12 
REMARK    5  A    between atoms: C4_12  and  N4_13 
ROOT
HETATM    1  C1  UNL     1     -28.610  11.000 -25.336  1.00  0.00     0.692 A 
HETATM    2  N2  UNL     1     -29.113  10.657 -24.137  1.00  0.00    -0.130 N 
ATOM      3  H2  UNL     1     -28.884  11.102 -23.249  1.00  0.00     0.205 HD
HETATM    4  N3  UNL     1     -29.960   9.641 -24.298  1.00  0.00    -0.265 N 
ATOM      5  H3  UNL     1     -30.483   9.186 -23.549  1.00  0.00     0.189 HD
HETATM    6  C2  UNL     1     -30.019   9.311 -25.598  1.00  0.00     0.174 A 
HETATM    7  N5  UNL     1     -29.177  10.164 -26.219  1.00  0.00    -0.168 N 
ATOM      8  H5  UNL     1     -28.996  10.171 -27.224  1.00  0.00     0.186 HD
ENDROOT
BRANCH   6   9
HETATM    9  S1  UNL     1     -31.014   8.012 -26.315  1.00  0.00    -0.090 SA
BRANCH   9  10
HETATM   10  C3  UNL     1     -30.122   6.447 -26.368  1.00  0.00     0.109 C 
BRANCH  10  11
HETATM   11  C4  UNL     1     -28.674   6.590 -25.969  1.00  0.00     0.240 C 
BRANCH  11  12
HETATM   12  N4  UNL     1     -27.913   5.406 -26.294  1.00  0.00    -0.079 N 
ATOM     13  H43 UNL     1     -27.586   4.932 -25.452  1.00  0.00     0.274 HD
ATOM     14  H42 UNL     1     -28.511   4.670 -26.669  1.00  0.00     0.274 HD
ATOM     15  H41 UNL     1     -27.141   5.617 -26.926  1.00  0.00     0.274 HD
ENDBRANCH  11  12
ENDBRANCH  10  11
ENDBRANCH   9  10
ENDBRANCH   6   9
BRANCH   1  16
HETATM   16  N1  UNL     1     -27.763  11.944 -25.532  1.00  0.00    -0.233 N 
ATOM     17  H12 UNL     1     -27.333  12.262 -26.400  1.00  0.00     0.174 HD
ATOM     18  H11 UNL     1     -27.379  12.543 -24.800  1.00  0.00     0.174 HD
ENDBRANCH   1  16
TORSDOF 5
ENDMDL
MODEL 5
REMARK VINA RESULT: -4.590289810      2.879      4.852
REMARK  5 active torsions:
REMARK  status: ('A' for Active; 'I' for Inactive)
REMARK    1  A    between atoms: N1_1  and  C1_4 
REMARK    2  A    between atoms: C2_9  and  S1_10 
REMARK    3  A    between atoms: S1_10  and  C3_11 
REMARK    4  A    between atoms: C3_11  and  C4_12 
REMARK    5  A    between atoms: C4_12  and  N4_13 
ROOT
HETATM    1  C1  UNL     1     -32.966   7.558 -27.841  1.00  0.00     0.692 A 
HETATM    2  N2  UNL     1     -32.787   6.234 -27.691  1.00  0.00    -0.130 N 
ATOM      3  H2  UNL     1     -33.437   5.510 -27.999  1.00  0.00     0.205 HD
HETATM    4  N3  UNL     1     -31.625   6.020 -27.076  1.00  0.00    -0.265 N 
ATOM      5  H3  UNL     1     -31.243   5.104 -26.839  1.00  0.00     0.189 HD
HETATM    6  C2  UNL     1     -31.034   7.198 -26.818  1.00  0.00     0.174 A 
HETATM    7  N5  UNL     1     -31.881   8.133 -27.300  1.00  0.00    -0.168 N 
ATOM      8  H5  UNL     1     -31.717   9.139 -27.258  1.00  0.00     0.186 HD
ENDROOT
BRANCH   6   9
HETATM    9  S1  UNL     1     -29.460   7.436 -26.009  1.00  0.00    -0.090 SA
BRANCH   9  10
HETATM   10  C3  UNL     1     -28.491   5.916 -25.984  1.00  0.00     0.109 C 
BRANCH  10  11
HETATM   11  C4  UNL     1     -28.957   4.947 -24.927  1.00  0.00     0.240 C 
BRANCH  11  12
HETATM   12  N4  UNL     1     -29.396   3.699 -25.504  1.00  0.00    -0.079 N 
ATOM     13  H43 UNL     1     -28.833   3.446 -26.316  1.00  0.00     0.274 HD
ATOM     14  H42 UNL     1     -29.168   2.908 -24.901  1.00  0.00     0.274 HD
ATOM     15  H41 UNL     1     -30.390   3.719 -25.733  1.00  0.00     0.274 HD
ENDBRANCH  11  12
ENDBRANCH  10  11
ENDBRANCH   9  10
ENDBRANCH   6   9
BRANCH   1  16
HETATM   16  N1  UNL     1     -33.987   8.101 -28.397  1.00  0.00    -0.233 N 
ATOM     17  H12 UNL     1     -34.148   8.332 -29.377  1.00  0.00     0.174 HD
ATOM     18  H11 UNL     1     -34.831   8.395 -27.904  1.00  0.00     0.174 HD
ENDBRANCH   1  16
TORSDOF 5
ENDMDL
