MODEL 1
REMARK VINA RESULT: -5.549272269      0.000      0.000
REMARK  4 active torsions:
REMARK  status: ('A' for Active; 'I' for Inactive)
REMARK    1  A    between atoms: N1_1  and  N2_4 
REMARK    2  A    between atoms: N2_4  and  N3_5 
REMARK    3  A    between atoms: N2_4  and  C1_8 
REMARK    4  A    between atoms: C3_12  and  C4_13 
ROOT
HETATM    1  C1  UNL     1     -30.300   6.313 -26.328  1.00  0.00     0.161 A 
HETATM    2  C2  UNL     1     -30.191   7.657 -26.067  1.00  0.00     0.141 A 
HETATM    3  N4  UNL     1     -31.253   8.222 -26.653  1.00  0.00    -0.348 N 
ATOM      4  H4  UNL     1     -31.461   9.221 -26.639  1.00  0.00     0.166 HD
HETATM    5  C3  UNL     1     -32.016   7.281 -27.268  1.00  0.00     0.140 A 
HETATM    6  N6  UNL     1     -31.417   6.101 -27.063  1.00  0.00    -0.325 N 
ATOM      7  H6  UNL     1     -31.746   5.198 -27.402  1.00  0.00     0.169 HD
ENDROOT
BRANCH   1   8
HETATM    8  N2  UNL     1     -29.348   5.358 -25.866  1.00  0.00    -0.192 N 
BRANCH   8   9
HETATM    9  N1  UNL     1     -28.022   5.520 -26.278  1.00  0.00    -0.323 N 
ATOM     10  H12 UNL     1     -27.553   4.709 -26.683  1.00  0.00     0.179 HD
ATOM     11  H11 UNL     1     -27.535   6.411 -26.185  1.00  0.00     0.179 HD
ENDBRANCH   8   9
BRANCH   8  12
HETATM   12  N3  UNL     1     -29.730   4.324 -25.040  1.00  0.00    -0.323 N 
ATOM     13  H32 UNL     1     -29.918   3.395 -25.419  1.00  0.00     0.179 HD
ATOM     14  H31 UNL     1     -29.842   4.452 -24.034  1.00  0.00     0.179 HD
ENDBRANCH   8  12
ENDBRANCH   1   8
BRANCH   5  15
HETATM   15  C4  UNL     1     -33.273   7.556 -28.007  1.00  0.00     0.393 C 
HETATM   16  N5  UNL     1     -34.030   6.421 -28.426  1.00  0.00    -0.021 N 
HETATM   17  C5  UNL     1     -35.171   7.175 -27.951  1.00  0.00     0.406 C 
ATOM     18  H52 UNL     1     -33.978   6.051 -29.375  1.00  0.00     0.283 HD
ATOM     19  H51 UNL     1     -33.825   5.478 -28.098  1.00  0.00     0.283 HD
HETATM   20  O1  UNL     1     -34.312   7.826 -27.083  1.00  0.00    -0.326 OA
ENDBRANCH   5  15
TORSDOF 4
ENDMDL
MODEL 2
REMARK VINA RESULT: -5.386263308      1.055      1.055
REMARK  4 active torsions:
REMARK  status: ('A' for Active; 'I' for Inactive)
REMARK    1  A    between atoms: N1_1  and  N2_4 
REMARK    2  A    between atoms: N2_4  and  N3_5 
REMARK    3  A    between atoms: N2_4  and  C1_8 
REMARK    4  A    between atoms: C3_12  and  C4_13 
ROOT
HETATM    1  C1  UNL     1     -30.699   6.528 -26.610  1.00  0.00     0.161 A 
HETATM    2  C2  UNL     1     -30.871   7.883 -26.471  1.00  0.00     0.141 A 
HETATM    3  N4  UNL     1     -32.046   8.156 -27.050  1.00  0.00    -0.348 N 
ATOM      4  H4  UNL     1     -32.461   9.086 -27.111  1.00  0.00     0.166 HD
HETATM    5  C3  UNL     1     -32.610   7.022 -27.543  1.00  0.00     0.140 A 
HETATM    6  N6  UNL     1     -31.768   6.018 -27.268  1.00  0.00    -0.325 N 
ATOM      7  H6  UNL     1     -31.907   5.038 -27.512  1.00  0.00     0.169 HD
ENDROOT
BRANCH   1   8
HETATM    8  N2  UNL     1     -29.552   5.840 -26.116  1.00  0.00    -0.192 N 
BRANCH   8   9
HETATM    9  N1  UNL     1     -28.328   6.513 -26.165  1.00  0.00    -0.323 N 
ATOM     10  H12 UNL     1     -27.586   6.098 -26.728  1.00  0.00     0.179 HD
ATOM     11  H11 UNL     1     -28.175   7.388 -25.664  1.00  0.00     0.179 HD
ENDBRANCH   8   9
BRANCH   8  12
HETATM   12  N3  UNL     1     -29.660   4.565 -25.607  1.00  0.00    -0.323 N 
ATOM     13  H32 UNL     1     -30.255   3.870 -26.059  1.00  0.00     0.179 HD
ATOM     14  H31 UNL     1     -29.157   4.277 -24.767  1.00  0.00     0.179 HD
ENDBRANCH   8  12
ENDBRANCH   1   8
BRANCH   5  15
HETATM   15  C4  UNL     1     -33.919   6.958 -28.240  1.00  0.00     0.393 C 
HETATM   16  N5  UNL     1     -35.059   7.393 -27.500  1.00  0.00    -0.021 N 
HETATM   17  C5  UNL     1     -35.427   8.072 -28.724  1.00  0.00     0.406 C 
ATOM     18  H52 UNL     1     -35.685   6.740 -27.029  1.00  0.00     0.283 HD
ATOM     19  H51 UNL     1     -34.977   7.882 -26.609  1.00  0.00     0.283 HD
HETATM   20  O1  UNL     1     -34.082   8.113 -29.043  1.00  0.00    -0.326 OA
ENDBRANCH   5  15
TORSDOF 4
ENDMDL
MODEL 3
REMARK VINA RESULT: -5.379109335      2.906      4.303
REMARK  4 active torsions:
REMARK  status: ('A' for Active; 'I' for Inactive)
REMARK    1  A    between atoms: N1_1  and  N2_4 
REMARK    2  A    between atoms: N2_4  and  N3_5 
REMARK    3  A    between atoms: N2_4  and  C1_8 
REMARK    4  A    between atoms: C3_12  and  C4_13 
ROOT
HETATM    1  C1  UNL     1     -29.369   6.597 -25.912  1.00  0.00     0.161 A 
HETATM    2  C2  UNL     1     -30.638   6.777 -26.404  1.00  0.00     0.141 A 
HETATM    3  N4  UNL     1     -30.863   8.095 -26.338  1.00  0.00    -0.348 N 
ATOM      4  H4  UNL     1     -31.726   8.551 -26.634  1.00  0.00     0.166 HD
HETATM    5  C3  UNL     1     -29.783   8.738 -25.825  1.00  0.00     0.140 A 
HETATM    6  N6  UNL     1     -28.862   7.803 -25.562  1.00  0.00    -0.325 N 
ATOM      7  H6  UNL     1     -27.937   7.969 -25.165  1.00  0.00     0.169 HD
ENDROOT
BRANCH   1   8
HETATM    8  N2  UNL     1     -28.753   5.314 -25.816  1.00  0.00    -0.192 N 
BRANCH   8   9
HETATM    9  N1  UNL     1     -27.543   5.130 -26.492  1.00  0.00    -0.323 N 
ATOM     10  H12 UNL     1     -26.768   5.745 -26.244  1.00  0.00     0.179 HD
ATOM     11  H11 UNL     1     -27.430   4.408 -27.203  1.00  0.00     0.179 HD
ENDBRANCH   8   9
BRANCH   8  12
HETATM   12  N3  UNL     1     -29.334   4.307 -25.078  1.00  0.00    -0.323 N 
ATOM     13  H32 UNL     1     -28.811   3.461 -24.847  1.00  0.00     0.179 HD
ATOM     14  H31 UNL     1     -30.296   4.370 -24.744  1.00  0.00     0.179 HD
ENDBRANCH   8  12
ENDBRANCH   1   8
BRANCH   5  15
HETATM   15  C4  UNL     1     -29.685  10.205 -25.622  1.00  0.00     0.393 C 
HETATM   16  N5  UNL     1     -28.901  10.646 -24.514  1.00  0.00    -0.021 N 
HETATM   17  C5  UNL     1     -28.374  11.621 -25.447  1.00  0.00     0.406 C 
ATOM     18  H52 UNL     1     -29.318  10.915 -23.623  1.00  0.00     0.283 HD
ATOM     19  H51 UNL     1     -28.298  10.015 -23.987  1.00  0.00     0.283 HD
HETATM   20  O1  UNL     1     -28.673  10.730 -26.462  1.00  0.00    -0.326 OA
ENDBRANCH   5  15
TORSDOF 4
ENDMDL
MODEL 4
REMARK VINA RESULT: -5.037499141      3.095      5.088
REMARK  4 active torsions:
REMARK  status: ('A' for Active; 'I' for Inactive)
REMARK    1  A    between atoms: N1_1  and  N2_4 
REMARK    2  A    between atoms: N2_4  and  N3_5 
REMARK    3  A    between atoms: N2_4  and  C1_8 
REMARK    4  A    between atoms: C3_12  and  C4_13 
ROOT
HETATM    1  C1  UNL     1     -29.247   9.163 -25.340  1.00  0.00     0.161 A 
HETATM    2  C2  UNL     1     -30.428   8.846 -25.964  1.00  0.00     0.141 A 
HETATM    3  N4  UNL     1     -30.360   7.532 -26.211  1.00  0.00    -0.348 N 
ATOM      4  H4  UNL     1     -31.092   6.990 -26.671  1.00  0.00     0.166 HD
HETATM    5  C3  UNL     1     -29.182   7.024 -25.765  1.00  0.00     0.140 A 
HETATM    6  N6  UNL     1     -28.498   8.041 -25.228  1.00  0.00    -0.325 N 
ATOM      7  H6  UNL     1     -27.571   7.981 -24.807  1.00  0.00     0.169 HD
ENDROOT
BRANCH   1   8
HETATM    8  N2  UNL     1     -28.933  10.486 -24.909  1.00  0.00    -0.192 N 
BRANCH   8   9
HETATM    9  N1  UNL     1     -29.153  10.794 -23.564  1.00  0.00    -0.323 N 
ATOM     10  H12 UNL     1     -30.087  11.112 -23.301  1.00  0.00     0.179 HD
ATOM     11  H11 UNL     1     -28.417  10.703 -22.864  1.00  0.00     0.179 HD
ENDBRANCH   8   9
BRANCH   8  12
HETATM   12  N3  UNL     1     -28.425  11.413 -25.793  1.00  0.00    -0.323 N 
ATOM     13  H32 UNL     1     -27.766  12.126 -25.479  1.00  0.00     0.179 HD
ATOM     14  H31 UNL     1     -28.691  11.420 -26.777  1.00  0.00     0.179 HD
ENDBRANCH   8  12
ENDBRANCH   1   8
BRANCH   5  15
HETATM   15  C4  UNL     1     -28.779   5.598 -25.868  1.00  0.00     0.393 C 
HETATM   16  N5  UNL     1     -28.666   4.876 -24.642  1.00  0.00    -0.021 N 
HETATM   17  C5  UNL     1     -29.362   3.824 -25.354  1.00  0.00     0.406 C 
ATOM     18  H52 UNL     1     -27.770   4.722 -24.181  1.00  0.00     0.283 HD
ATOM     19  H51 UNL     1     -29.004   5.250 -23.756  1.00  0.00     0.283 HD
HETATM   20  O1  UNL     1     -29.919   4.807 -26.153  1.00  0.00    -0.326 OA
ENDBRANCH   5  15
TORSDOF 4
ENDMDL
MODEL 5
REMARK VINA RESULT: -5.003083637      1.425      2.228
REMARK  4 active torsions:
REMARK  status: ('A' for Active; 'I' for Inactive)
REMARK    1  A    between atoms: N1_1  and  N2_4 
REMARK    2  A    between atoms: N2_4  and  N3_5 
REMARK    3  A    between atoms: N2_4  and  C1_8 
REMARK    4  A    between atoms: C3_12  and  C4_13 
ROOT
HETATM    1  C1  UNL     1     -30.296   7.804 -26.165  1.00  0.00     0.161 A 
HETATM    2  C2  UNL     1     -30.392   6.447 -26.342  1.00  0.00     0.141 A 
HETATM    3  N4  UNL     1     -31.518   6.255 -27.040  1.00  0.00    -0.348 N 
ATOM      4  H4  UNL     1     -31.871   5.344 -27.334  1.00  0.00     0.166 HD
HETATM    5  C3  UNL     1     -32.125   7.442 -27.301  1.00  0.00     0.140 A 
HETATM    6  N6  UNL     1     -31.362   8.397 -26.755  1.00  0.00    -0.325 N 
ATOM      7  H6  UNL     1     -31.552   9.399 -26.778  1.00  0.00     0.169 HD
ENDROOT
BRANCH   1   8
HETATM    8  N2  UNL     1     -29.219   8.417 -25.461  1.00  0.00    -0.192 N 
BRANCH   8   9
HETATM    9  N1  UNL     1     -28.279   7.573 -24.862  1.00  0.00    -0.323 N 
ATOM     10  H12 UNL     1     -27.505   8.011 -24.362  1.00  0.00     0.179 HD
ATOM     11  H11 UNL     1     -28.358   6.558 -24.914  1.00  0.00     0.179 HD
ENDBRANCH   8   9
BRANCH   8  12
HETATM   12  N3  UNL     1     -29.115   9.789 -25.386  1.00  0.00    -0.323 N 
ATOM     13  H32 UNL     1     -29.625  10.313 -24.675  1.00  0.00     0.179 HD
ATOM     14  H31 UNL     1     -28.535  10.320 -26.036  1.00  0.00     0.179 HD
ENDBRANCH   8  12
ENDBRANCH   1   8
BRANCH   5  15
HETATM   15  C4  UNL     1     -33.389   7.600 -28.063  1.00  0.00     0.393 C 
HETATM   16  N5  UNL     1     -34.061   6.401 -28.443  1.00  0.00    -0.021 N 
HETATM   17  C5  UNL     1     -35.257   7.092 -28.009  1.00  0.00     0.406 C 
ATOM     18  H52 UNL     1     -33.972   5.997 -29.375  1.00  0.00     0.283 HD
ATOM     19  H51 UNL     1     -33.796   5.487 -28.075  1.00  0.00     0.283 HD
HETATM   20  O1  UNL     1     -34.455   7.834 -27.160  1.00  0.00    -0.326 OA
ENDBRANCH   5  15
TORSDOF 4
ENDMDL
