MODEL 1
REMARK VINA RESULT: -6.314472522      0.000      0.000
REMARK  4 active torsions:
REMARK  status: ('A' for Active; 'I' for Inactive)
REMARK    1  A    between atoms: N1_1  and  C1_4 
REMARK    2  A    between atoms: C3_6  and  C4_7 
REMARK    3  A    between atoms: C4_7  and  N2_8 
REMARK    4  A    between atoms: N2_8  and  C5_10 
ROOT
HETATM    1  C1  UNL     1     -28.885   6.161 -26.081  1.00  0.00     0.115 A 
HETATM    2  C2  UNL     1     -28.516   7.435 -25.692  1.00  0.00     0.077 A 
HETATM    3  C3  UNL     1     -29.665   8.204 -25.784  1.00  0.00     0.047 A 
HETATM    4  N5  UNL     1     -30.638   7.385 -26.211  1.00  0.00    -0.302 N 
ATOM      5  H5  UNL     1     -31.602   7.678 -26.372  1.00  0.00     0.186 HD
HETATM    6  N6  UNL     1     -30.198   6.153 -26.398  1.00  0.00    -0.286 N 
ATOM      7  H6  UNL     1     -30.743   5.353 -26.718  1.00  0.00     0.188 HD
ENDROOT
BRANCH   3   8
HETATM    8  C4  UNL     1     -29.754   9.659 -25.462  1.00  0.00     0.180 C 
BRANCH   8   9
HETATM    9  N2  UNL     1     -28.452  10.280 -25.538  1.00  0.00    -0.362 N 
ATOM     10  H2  UNL     1     -27.635   9.732 -25.266  1.00  0.00     0.162 HD
BRANCH   9  11
HETATM   11  C5  UNL     1     -28.257  11.617 -25.973  1.00  0.00     0.185 A 
HETATM   12  C6  UNL     1     -27.795  12.702 -25.259  1.00  0.00     0.167 A 
HETATM   13  N3  UNL     1     -27.765  13.792 -26.065  1.00  0.00    -0.288 N 
HETATM   14  N4  UNL     1     -28.202  13.352 -27.230  1.00  0.00    -0.200 N 
ATOM     15  H3  UNL     1     -27.471  14.739 -25.826  1.00  0.00     0.188 HD
HETATM   16  O1  UNL     1     -28.488  12.100 -27.186  1.00  0.00    -0.203 OA
ATOM     17  H4  UNL     1     -28.300  13.933 -28.062  1.00  0.00     0.216 HD
ENDBRANCH   9  11
ENDBRANCH   8   9
ENDBRANCH   3   8
BRANCH   1  18
HETATM   18  N1  UNL     1     -28.055   5.155 -26.121  1.00  0.00    -0.384 N 
ATOM     19  H12 UNL     1     -27.878   4.470 -25.387  1.00  0.00     0.157 HD
ATOM     20  H11 UNL     1     -27.471   4.942 -26.930  1.00  0.00     0.157 HD
ENDBRANCH   1  18
TORSDOF 4
ENDMDL
MODEL 2
REMARK VINA RESULT: -6.191463420      1.797      2.247
REMARK  4 active torsions:
REMARK  status: ('A' for Active; 'I' for Inactive)
REMARK    1  A    between atoms: N1_1  and  C1_4 
REMARK    2  A    between atoms: C3_6  and  C4_7 
REMARK    3  A    between atoms: C4_7  and  N2_8 
REMARK    4  A    between atoms: N2_8  and  C5_10 
ROOT
HETATM    1  C1  UNL     1     -29.190   4.884 -25.750  1.00  0.00     0.115 A 
HETATM    2  C2  UNL     1     -30.249   5.770 -25.794  1.00  0.00     0.077 A 
HETATM    3  C3  UNL     1     -29.701   6.994 -26.145  1.00  0.00     0.047 A 
HETATM    4  N5  UNL     1     -28.382   6.792 -26.290  1.00  0.00    -0.302 N 
ATOM      5  H5  UNL     1     -27.718   7.522 -26.547  1.00  0.00     0.186 HD
HETATM    6  N6  UNL     1     -28.048   5.535 -26.059  1.00  0.00    -0.286 N 
ATOM      7  H6  UNL     1     -27.111   5.135 -26.104  1.00  0.00     0.188 HD
ENDROOT
BRANCH   3   8
HETATM    8  C4  UNL     1     -30.468   8.262 -26.315  1.00  0.00     0.180 C 
BRANCH   8   9
HETATM    9  N2  UNL     1     -30.262   9.140 -25.187  1.00  0.00    -0.362 N 
ATOM     10  H2  UNL     1     -30.812   8.985 -24.342  1.00  0.00     0.162 HD
BRANCH   9  11
HETATM   11  C5  UNL     1     -29.328  10.210 -25.200  1.00  0.00     0.185 A 
HETATM   12  C6  UNL     1     -28.493  10.619 -26.217  1.00  0.00     0.167 A 
HETATM   13  N3  UNL     1     -27.765  11.685 -25.800  1.00  0.00    -0.288 N 
HETATM   14  N4  UNL     1     -28.167  11.895 -24.562  1.00  0.00    -0.200 N 
ATOM     15  H3  UNL     1     -27.064  12.206 -26.326  1.00  0.00     0.188 HD
HETATM   16  O1  UNL     1     -29.068  11.050 -24.207  1.00  0.00    -0.203 OA
ATOM     17  H4  UNL     1     -27.809  12.636 -23.961  1.00  0.00     0.216 HD
ENDBRANCH   9  11
ENDBRANCH   8   9
ENDBRANCH   3   8
BRANCH   1  18
HETATM   18  N1  UNL     1     -29.324   3.620 -25.451  1.00  0.00    -0.384 N 
ATOM     19  H12 UNL     1     -28.589   2.965 -25.190  1.00  0.00     0.157 HD
ATOM     20  H11 UNL     1     -30.223   3.138 -25.448  1.00  0.00     0.157 HD
ENDBRANCH   1  18
TORSDOF 4
ENDMDL
MODEL 3
REMARK VINA RESULT: -6.183296460      2.082      5.694
REMARK  4 active torsions:
REMARK  status: ('A' for Active; 'I' for Inactive)
REMARK    1  A    between atoms: N1_1  and  C1_4 
REMARK    2  A    between atoms: C3_6  and  C4_7 
REMARK    3  A    between atoms: C4_7  and  N2_8 
REMARK    4  A    between atoms: N2_8  and  C5_10 
ROOT
HETATM    1  C1  UNL     1     -28.500  11.216 -25.187  1.00  0.00     0.115 A 
HETATM    2  C2  UNL     1     -29.132  10.336 -26.045  1.00  0.00     0.077 A 
HETATM    3  C3  UNL     1     -29.900   9.512 -25.238  1.00  0.00     0.047 A 
HETATM    4  N5  UNL     1     -29.700   9.921 -23.976  1.00  0.00    -0.302 N 
ATOM      5  H5  UNL     1     -30.140   9.494 -23.160  1.00  0.00     0.186 HD
HETATM    6  N6  UNL     1     -28.864  10.942 -23.916  1.00  0.00    -0.286 N 
ATOM      7  H6  UNL     1     -28.555  11.428 -23.074  1.00  0.00     0.188 HD
ENDROOT
BRANCH   3   8
HETATM    8  C4  UNL     1     -30.766   8.397 -25.724  1.00  0.00     0.180 C 
BRANCH   8   9
HETATM    9  N2  UNL     1     -30.080   7.618 -26.729  1.00  0.00    -0.362 N 
ATOM     10  H2  UNL     1     -30.147   7.914 -27.704  1.00  0.00     0.162 HD
BRANCH   9  11
HETATM   11  C5  UNL     1     -29.316   6.461 -26.424  1.00  0.00     0.185 A 
HETATM   12  C6  UNL     1     -29.656   5.382 -25.637  1.00  0.00     0.167 A 
HETATM   13  N3  UNL     1     -28.627   4.498 -25.616  1.00  0.00    -0.288 N 
HETATM   14  N4  UNL     1     -27.703   5.052 -26.377  1.00  0.00    -0.200 N 
ATOM     15  H3  UNL     1     -28.578   3.607 -25.122  1.00  0.00     0.188 HD
HETATM   16  O1  UNL     1     -28.091   6.183 -26.846  1.00  0.00    -0.203 OA
ATOM     17  H4  UNL     1     -26.792   4.634 -26.569  1.00  0.00     0.216 HD
ENDBRANCH   9  11
ENDBRANCH   8   9
ENDBRANCH   3   8
BRANCH   1  18
HETATM   18  N1  UNL     1     -27.685  12.151 -25.593  1.00  0.00    -0.384 N 
ATOM     19  H12 UNL     1     -27.844  12.831 -26.335  1.00  0.00     0.157 HD
ATOM     20  H11 UNL     1     -26.760  12.303 -25.188  1.00  0.00     0.157 HD
ENDBRANCH   1  18
TORSDOF 4
ENDMDL
MODEL 4
REMARK VINA RESULT: -5.942360965      2.091      2.678
REMARK  4 active torsions:
REMARK  status: ('A' for Active; 'I' for Inactive)
REMARK    1  A    between atoms: N1_1  and  C1_4 
REMARK    2  A    between atoms: C3_6  and  C4_7 
REMARK    3  A    between atoms: C4_7  and  N2_8 
REMARK    4  A    between atoms: N2_8  and  C5_10 
ROOT
HETATM    1  C1  UNL     1     -29.177   4.644 -25.699  1.00  0.00     0.115 A 
HETATM    2  C2  UNL     1     -30.275   5.448 -25.943  1.00  0.00     0.077 A 
HETATM    3  C3  UNL     1     -29.762   6.663 -26.370  1.00  0.00     0.047 A 
HETATM    4  N5  UNL     1     -28.427   6.537 -26.362  1.00  0.00    -0.302 N 
ATOM      5  H5  UNL     1     -27.781   7.279 -26.632  1.00  0.00     0.186 HD
HETATM    6  N6  UNL     1     -28.048   5.336 -25.964  1.00  0.00    -0.286 N 
ATOM      7  H6  UNL     1     -27.090   4.997 -25.874  1.00  0.00     0.188 HD
ENDROOT
BRANCH   3   8
HETATM    8  C4  UNL     1     -30.578   7.853 -26.752  1.00  0.00     0.180 C 
BRANCH   8   9
HETATM    9  N2  UNL     1     -30.876   8.663 -25.593  1.00  0.00    -0.362 N 
ATOM     10  H2  UNL     1     -31.769   8.527 -25.120  1.00  0.00     0.162 HD
BRANCH   9  11
HETATM   11  C5  UNL     1     -29.981   9.640 -25.082  1.00  0.00     0.185 A 
HETATM   12  C6  UNL     1     -29.761  10.013 -23.773  1.00  0.00     0.167 A 
HETATM   13  N3  UNL     1     -28.818  10.987 -23.735  1.00  0.00    -0.288 N 
HETATM   14  N4  UNL     1     -28.493  11.180 -24.999  1.00  0.00    -0.200 N 
ATOM     15  H3  UNL     1     -28.445  11.464 -22.915  1.00  0.00     0.188 HD
HETATM   16  O1  UNL     1     -29.158  10.408 -25.782  1.00  0.00    -0.203 OA
ATOM     17  H4  UNL     1     -27.799  11.857 -25.316  1.00  0.00     0.216 HD
ENDBRANCH   9  11
ENDBRANCH   8   9
ENDBRANCH   3   8
BRANCH   1  18
HETATM   18  N1  UNL     1     -29.271   3.412 -25.278  1.00  0.00    -0.384 N 
ATOM     19  H12 UNL     1     -29.215   3.082 -24.315  1.00  0.00     0.157 HD
ATOM     20  H11 UNL     1     -29.416   2.617 -25.900  1.00  0.00     0.157 HD
ENDBRANCH   1  18
TORSDOF 4
ENDMDL
MODEL 5
REMARK VINA RESULT: -5.785365770      2.270      6.147
REMARK  4 active torsions:
REMARK  status: ('A' for Active; 'I' for Inactive)
REMARK    1  A    between atoms: N1_1  and  C1_4 
REMARK    2  A    between atoms: C3_6  and  C4_7 
REMARK    3  A    between atoms: C4_7  and  N2_8 
REMARK    4  A    between atoms: N2_8  and  C5_10 
ROOT
HETATM    1  C1  UNL     1     -28.047  12.249 -25.399  1.00  0.00     0.115 A 
HETATM    2  C2  UNL     1     -28.491  11.210 -26.195  1.00  0.00     0.077 A 
HETATM    3  C3  UNL     1     -28.978  10.250 -25.321  1.00  0.00     0.047 A 
HETATM    4  N5  UNL     1     -28.809  10.741 -24.084  1.00  0.00    -0.302 N 
ATOM      5  H5  UNL     1     -29.078  10.248 -23.232  1.00  0.00     0.186 HD
HETATM    6  N6  UNL     1     -28.252  11.938 -24.101  1.00  0.00    -0.286 N 
ATOM      7  H6  UNL     1     -28.022  12.516 -23.292  1.00  0.00     0.188 HD
ENDROOT
BRANCH   3   8
HETATM    8  C4  UNL     1     -29.566   8.939 -25.725  1.00  0.00     0.180 C 
BRANCH   8   9
HETATM    9  N2  UNL     1     -28.564   7.899 -25.698  1.00  0.00    -0.362 N 
ATOM     10  H2  UNL     1     -27.582   8.170 -25.648  1.00  0.00     0.162 HD
BRANCH   9  11
HETATM   11  C5  UNL     1     -28.884   6.516 -25.737  1.00  0.00     0.185 A 
HETATM   12  C6  UNL     1     -30.078   5.912 -26.067  1.00  0.00     0.167 A 
HETATM   13  N3  UNL     1     -29.943   4.566 -25.971  1.00  0.00    -0.288 N 
HETATM   14  N4  UNL     1     -28.692   4.387 -25.592  1.00  0.00    -0.200 N 
ATOM     15  H3  UNL     1     -30.649   3.852 -26.152  1.00  0.00     0.188 HD
HETATM   16  O1  UNL     1     -28.074   5.505 -25.454  1.00  0.00    -0.203 OA
ATOM     17  H4  UNL     1     -28.267   3.474 -25.429  1.00  0.00     0.216 HD
ENDBRANCH   9  11
ENDBRANCH   8   9
ENDBRANCH   3   8
BRANCH   1  18
HETATM   18  N1  UNL     1     -27.517  13.342 -25.878  1.00  0.00    -0.384 N 
ATOM     19  H12 UNL     1     -27.993  14.218 -26.090  1.00  0.00     0.157 HD
ATOM     20  H11 UNL     1     -26.526  13.433 -26.099  1.00  0.00     0.157 HD
ENDBRANCH   1  18
TORSDOF 4
ENDMDL
