MODEL 1
REMARK VINA RESULT: -5.353809674      0.000      0.000
REMARK  5 active torsions:
REMARK  status: ('A' for Active; 'I' for Inactive)
REMARK    1  A    between atoms: N1_1  and  C1_5 
REMARK    2  A    between atoms: C1_5  and  C2_6 
REMARK    3  A    between atoms: C2_6  and  C3_7 
REMARK    4  A    between atoms: C3_7  and  N2_8 
REMARK    5  A    between atoms: C5_17  and  N6_18 
ROOT
HETATM    1  N2  UNL     1      -6.063   8.040  14.552  1.00  0.00    -0.312 N 
HETATM    2  C4  UNL     1      -5.963   9.278  15.233  1.00  0.00     0.192 C 
HETATM    3  S1  UNL     1      -6.302  10.704  14.532  1.00  0.00    -0.039 SA
HETATM    4  N3  UNL     1      -5.518   9.175  16.601  1.00  0.00    -0.262 N 
ATOM      5  H3  UNL     1      -5.692   9.951  17.239  1.00  0.00     0.191 HD
HETATM    6  N4  UNL     1      -4.864   8.053  17.068  1.00  0.00    -0.242 N 
ATOM      7  H4  UNL     1      -4.300   8.061  17.918  1.00  0.00     0.208 HD
HETATM    8  N5  UNL     1      -5.025   6.937  16.311  1.00  0.00    -0.275 N 
ATOM      9  H5  UNL     1      -5.175   6.027  16.747  1.00  0.00     0.185 HD
HETATM   10  C5  UNL     1      -4.982   7.066  14.896  1.00  0.00     0.406 C 
ENDROOT
BRANCH   1  11
HETATM   11  C3  UNL     1      -7.056   7.725  13.601  1.00  0.00     0.131 C 
BRANCH  11  12
HETATM   12  C2  UNL     1      -8.472   7.639  13.993  1.00  0.00     0.047 C 
BRANCH  12  13
HETATM   13  C1  UNL     1      -9.279   7.867  12.675  1.00  0.00     0.231 C 
BRANCH  13  14
HETATM   14  N1  UNL     1      -8.962   9.182  12.207  1.00  0.00    -0.079 N 
ATOM     15  H13 UNL     1      -9.005   9.266  11.191  1.00  0.00     0.274 HD
ATOM     16  H12 UNL     1      -9.683   9.869  12.427  1.00  0.00     0.274 HD
ATOM     17  H11 UNL     1      -8.048   9.425  12.590  1.00  0.00     0.274 HD
ENDBRANCH  13  14
ENDBRANCH  12  13
ENDBRANCH  11  12
ENDBRANCH   1  11
BRANCH  10  18
HETATM   18  N6  UNL     1      -5.361   5.809  14.277  1.00  0.00    -0.039 N 
ATOM     19  H63 UNL     1      -5.863   5.182  14.905  1.00  0.00     0.279 HD
ATOM     20  H62 UNL     1      -6.099   5.906  13.580  1.00  0.00     0.279 HD
ATOM     21  H61 UNL     1      -4.500   5.407  13.904  1.00  0.00     0.279 HD
ENDBRANCH  10  18
TORSDOF 5
ENDMDL
MODEL 2
REMARK VINA RESULT: -4.659172799      1.896      3.519
REMARK  5 active torsions:
REMARK  status: ('A' for Active; 'I' for Inactive)
REMARK    1  A    between atoms: N1_1  and  C1_5 
REMARK    2  A    between atoms: C1_5  and  C2_6 
REMARK    3  A    between atoms: C2_6  and  C3_7 
REMARK    4  A    between atoms: C3_7  and  N2_8 
REMARK    5  A    between atoms: C5_17  and  N6_18 
ROOT
HETATM    1  N2  UNL     1      -6.009   8.248  14.799  1.00  0.00    -0.312 N 
HETATM    2  C4  UNL     1      -6.917   7.616  13.913  1.00  0.00     0.192 C 
HETATM    3  S1  UNL     1      -8.131   8.406  13.178  1.00  0.00    -0.039 SA
HETATM    4  N3  UNL     1      -6.686   6.205  13.726  1.00  0.00    -0.262 N 
ATOM      5  H3  UNL     1      -7.086   5.741  12.910  1.00  0.00     0.191 HD
HETATM    6  N4  UNL     1      -5.939   5.467  14.620  1.00  0.00    -0.242 N 
ATOM      7  H4  UNL     1      -5.994   4.449  14.673  1.00  0.00     0.208 HD
HETATM    8  N5  UNL     1      -5.124   6.196  15.426  1.00  0.00    -0.275 N 
ATOM      9  H5  UNL     1      -4.176   5.881  15.634  1.00  0.00     0.185 HD
HETATM   10  C5  UNL     1      -5.622   7.408  15.974  1.00  0.00     0.406 C 
ENDROOT
BRANCH   1  11
HETATM   11  C3  UNL     1      -5.517   9.560  14.643  1.00  0.00     0.131 C 
BRANCH  11  12
HETATM   12  C2  UNL     1      -6.269  10.712  15.163  1.00  0.00     0.047 C 
BRANCH  12  13
HETATM   13  C1  UNL     1      -5.866  11.914  14.251  1.00  0.00     0.231 C 
BRANCH  13  14
HETATM   14  N1  UNL     1      -4.437  12.003  14.276  1.00  0.00    -0.079 N 
ATOM     15  H13 UNL     1      -3.978  11.101  14.150  1.00  0.00     0.274 HD
ATOM     16  H12 UNL     1      -4.051  12.463  13.451  1.00  0.00     0.274 HD
ATOM     17  H11 UNL     1      -4.179  12.465  15.148  1.00  0.00     0.274 HD
ENDBRANCH  13  14
ENDBRANCH  12  13
ENDBRANCH  11  12
ENDBRANCH   1  11
BRANCH  10  18
HETATM   18  N6  UNL     1      -4.549   8.122  16.643  1.00  0.00    -0.039 N 
ATOM     19  H63 UNL     1      -4.550   8.001  17.655  1.00  0.00     0.279 HD
ATOM     20  H62 UNL     1      -3.627   7.723  16.470  1.00  0.00     0.279 HD
ATOM     21  H61 UNL     1      -4.632   9.096  16.350  1.00  0.00     0.279 HD
ENDBRANCH  10  18
TORSDOF 5
ENDMDL
MODEL 3
REMARK VINA RESULT: -4.600275910      1.556      4.216
REMARK  5 active torsions:
REMARK  status: ('A' for Active; 'I' for Inactive)
REMARK    1  A    between atoms: N1_1  and  C1_5 
REMARK    2  A    between atoms: C1_5  and  C2_6 
REMARK    3  A    between atoms: C2_6  and  C3_7 
REMARK    4  A    between atoms: C3_7  and  N2_8 
REMARK    5  A    between atoms: C5_17  and  N6_18 
ROOT
HETATM    1  N2  UNL     1      -6.915   7.775  14.042  1.00  0.00    -0.312 N 
HETATM    2  C4  UNL     1      -7.289   9.139  13.955  1.00  0.00     0.192 C 
HETATM    3  S1  UNL     1      -6.624  10.299  14.879  1.00  0.00    -0.039 SA
HETATM    4  N3  UNL     1      -8.322   9.416  12.989  1.00  0.00    -0.262 N 
ATOM      5  H3  UNL     1      -8.445  10.372  12.654  1.00  0.00     0.191 HD
HETATM    6  N4  UNL     1      -9.148   8.423  12.504  1.00  0.00    -0.242 N 
ATOM      7  H4  UNL     1     -10.042   8.623  12.056  1.00  0.00     0.208 HD
HETATM    8  N5  UNL     1      -8.681   7.158  12.668  1.00  0.00    -0.275 N 
ATOM      9  H5  UNL     1      -8.776   6.465  11.925  1.00  0.00     0.185 HD
HETATM   10  C5  UNL     1      -8.057   6.821  13.900  1.00  0.00     0.406 C 
ENDROOT
BRANCH   1  11
HETATM   11  C3  UNL     1      -5.602   7.316  14.274  1.00  0.00     0.131 C 
BRANCH  11  12
HETATM   12  C2  UNL     1      -5.270   6.578  15.502  1.00  0.00     0.047 C 
BRANCH  12  13
HETATM   13  C1  UNL     1      -4.886   7.671  16.550  1.00  0.00     0.231 C 
BRANCH  13  14
HETATM   14  N1  UNL     1      -4.494   6.990  17.747  1.00  0.00    -0.079 N 
ATOM     15  H13 UNL     1      -3.656   7.385  18.175  1.00  0.00     0.274 HD
ATOM     16  H12 UNL     1      -5.131   7.155  18.527  1.00  0.00     0.274 HD
ATOM     17  H11 UNL     1      -4.396   6.002  17.513  1.00  0.00     0.274 HD
ENDBRANCH  13  14
ENDBRANCH  12  13
ENDBRANCH  11  12
ENDBRANCH   1  11
BRANCH  10  18
HETATM   18  N6  UNL     1      -7.467   5.498  13.805  1.00  0.00    -0.039 N 
ATOM     19  H63 UNL     1      -6.461   5.489  13.972  1.00  0.00     0.279 HD
ATOM     20  H62 UNL     1      -7.727   4.881  14.574  1.00  0.00     0.279 HD
ATOM     21  H61 UNL     1      -7.729   5.137  12.887  1.00  0.00     0.279 HD
ENDBRANCH  10  18
TORSDOF 5
ENDMDL
MODEL 4
REMARK VINA RESULT: -4.569414755      1.199      1.335
REMARK  5 active torsions:
REMARK  status: ('A' for Active; 'I' for Inactive)
REMARK    1  A    between atoms: N1_1  and  C1_5 
REMARK    2  A    between atoms: C1_5  and  C2_6 
REMARK    3  A    between atoms: C2_6  and  C3_7 
REMARK    4  A    between atoms: C3_7  and  N2_8 
REMARK    5  A    between atoms: C5_17  and  N6_18 
ROOT
HETATM    1  N2  UNL     1      -6.910   8.192  14.469  1.00  0.00    -0.312 N 
HETATM    2  C4  UNL     1      -6.115   9.192  15.083  1.00  0.00     0.192 C 
HETATM    3  S1  UNL     1      -6.209  10.765  14.686  1.00  0.00    -0.039 SA
HETATM    4  N3  UNL     1      -5.202   8.699  16.084  1.00  0.00    -0.262 N 
ATOM      5  H3  UNL     1      -4.814   9.351  16.766  1.00  0.00     0.191 HD
HETATM    6  N4  UNL     1      -4.838   7.370  16.143  1.00  0.00    -0.242 N 
ATOM      7  H4  UNL     1      -4.004   7.050  16.636  1.00  0.00     0.208 HD
HETATM    8  N5  UNL     1      -5.674   6.517  15.495  1.00  0.00    -0.275 N 
ATOM      9  H5  UNL     1      -5.926   5.618  15.908  1.00  0.00     0.185 HD
HETATM   10  C5  UNL     1      -6.188   6.905  14.229  1.00  0.00     0.406 C 
ENDROOT
BRANCH   1  11
HETATM   11  C3  UNL     1      -8.252   8.364  14.072  1.00  0.00     0.131 C 
BRANCH  11  12
HETATM   12  C2  UNL     1      -8.582   9.056  12.817  1.00  0.00     0.047 C 
BRANCH  12  13
HETATM   13  C1  UNL     1     -10.038   8.609  12.470  1.00  0.00     0.231 C 
BRANCH  13  14
HETATM   14  N1  UNL     1     -10.032   7.180  12.383  1.00  0.00    -0.079 N 
ATOM     15  H13 UNL     1      -9.232   6.815  11.867  1.00  0.00     0.274 HD
ATOM     16  H12 UNL     1      -9.831   6.727  13.275  1.00  0.00     0.274 HD
ATOM     17  H11 UNL     1     -10.927   6.899  11.984  1.00  0.00     0.274 HD
ENDBRANCH  13  14
ENDBRANCH  12  13
ENDBRANCH  11  12
ENDBRANCH   1  11
BRANCH  10  18
HETATM   18  N6  UNL     1      -7.197   5.953  13.797  1.00  0.00    -0.039 N 
ATOM     19  H63 UNL     1      -7.185   5.081  14.325  1.00  0.00     0.279 HD
ATOM     20  H62 UNL     1      -8.148   6.232  14.037  1.00  0.00     0.279 HD
ATOM     21  H61 UNL     1      -7.052   5.823  12.795  1.00  0.00     0.279 HD
ENDBRANCH  10  18
TORSDOF 5
ENDMDL
MODEL 5
REMARK VINA RESULT: -4.527044651      2.134      4.160
REMARK  5 active torsions:
REMARK  status: ('A' for Active; 'I' for Inactive)
REMARK    1  A    between atoms: N1_1  and  C1_5 
REMARK    2  A    between atoms: C1_5  and  C2_6 
REMARK    3  A    between atoms: C2_6  and  C3_7 
REMARK    4  A    between atoms: C3_7  and  N2_8 
REMARK    5  A    between atoms: C5_17  and  N6_18 
ROOT
HETATM    1  N2  UNL     1      -7.324   8.350  14.136  1.00  0.00    -0.312 N 
HETATM    2  C4  UNL     1      -6.552   7.281  14.654  1.00  0.00     0.192 C 
HETATM    3  S1  UNL     1      -5.132   7.502  15.413  1.00  0.00    -0.039 SA
HETATM    4  N3  UNL     1      -7.120   5.973  14.442  1.00  0.00    -0.262 N 
ATOM      5  H3  UNL     1      -6.799   5.194  15.016  1.00  0.00     0.191 HD
HETATM    6  N4  UNL     1      -8.086   5.749  13.483  1.00  0.00    -0.242 N 
ATOM      7  H4  UNL     1      -8.294   4.818  13.121  1.00  0.00     0.208 HD
HETATM    8  N5  UNL     1      -8.739   6.861  13.055  1.00  0.00    -0.275 N 
ATOM      9  H5  UNL     1      -9.748   6.847  12.899  1.00  0.00     0.185 HD
HETATM   10  C5  UNL     1      -7.986   8.044  12.831  1.00  0.00     0.406 C 
ENDROOT
BRANCH   1  11
HETATM   11  C3  UNL     1      -7.456   9.614  14.745  1.00  0.00     0.131 C 
BRANCH  11  12
HETATM   12  C2  UNL     1      -6.321  10.548  14.794  1.00  0.00     0.047 C 
BRANCH  12  13
HETATM   13  C1  UNL     1      -6.248  11.032  16.277  1.00  0.00     0.231 C 
BRANCH  13  14
HETATM   14  N1  UNL     1      -7.438  10.577  16.930  1.00  0.00    -0.079 N 
ATOM     15  H13 UNL     1      -8.023   9.993  16.332  1.00  0.00     0.274 HD
ATOM     16  H12 UNL     1      -7.256   9.883  17.654  1.00  0.00     0.274 HD
ATOM     17  H11 UNL     1      -7.924  11.403  17.280  1.00  0.00     0.274 HD
ENDBRANCH  13  14
ENDBRANCH  12  13
ENDBRANCH  11  12
ENDBRANCH   1  11
BRANCH  10  18
HETATM   18  N6  UNL     1      -8.884   9.154  12.565  1.00  0.00    -0.039 N 
ATOM     19  H63 UNL     1      -9.257   9.586  13.410  1.00  0.00     0.279 HD
ATOM     20  H62 UNL     1      -8.410   9.981  12.201  1.00  0.00     0.279 HD
ATOM     21  H61 UNL     1      -9.605   8.791  11.942  1.00  0.00     0.279 HD
ENDBRANCH  10  18
TORSDOF 5
ENDMDL
