MODEL 1
REMARK VINA RESULT: -5.658661104      0.000      0.000
REMARK  8 active torsions:
REMARK  status: ('A' for Active; 'I' for Inactive)
REMARK    1  A    between atoms: C2_2  and  C3_3 
REMARK    2  A    between atoms: C3_3  and  N1_4 
REMARK    3  A    between atoms: C4_7  and  N3_8 
REMARK    4  A    between atoms: N4_11  and  N5_12 
REMARK    5  A    between atoms: C5_15  and  N6_16 
REMARK    6  A    between atoms: N6_16  and  C6_18 
REMARK    7  A    between atoms: C6_18  and  C7_19 
REMARK    8  A    between atoms: C7_19  and  N7_20 
ROOT
HETATM    1  N1  UNL     1      -7.424   8.369  13.769  1.00  0.00    -0.107 N 
HETATM    2  N2  UNL     1      -6.816   7.265  13.416  1.00  0.00    -0.114 N 
ATOM      3  H2  UNL     1      -7.106   6.654  12.653  1.00  0.00     0.206 HD
HETATM    4  C4  UNL     1      -5.756   7.057  14.208  1.00  0.00     0.727 A 
HETATM    5  N4  UNL     1      -5.690   8.081  15.104  1.00  0.00     0.085 N 
HETATM    6  C5  UNL     1      -6.718   8.891  14.834  1.00  0.00     0.731 A 
ENDROOT
BRANCH   6   7
HETATM    7  N6  UNL     1      -7.099   9.973  15.375  1.00  0.00    -0.221 N 
ATOM      8  H6  UNL     1      -8.075  10.014  15.667  1.00  0.00     0.177 HD
BRANCH   7   9
HETATM    9  C6  UNL     1      -6.325  11.127  15.619  1.00  0.00     0.165 C 
BRANCH   9  10
HETATM   10  C7  UNL     1      -5.739  11.725  14.341  1.00  0.00     0.249 C 
BRANCH  10  11
HETATM   11  N7  UNL     1      -4.548  12.456  14.707  1.00  0.00    -0.078 N 
ATOM     12  H73 UNL     1      -4.279  12.315  15.680  1.00  0.00     0.274 HD
ATOM     13  H72 UNL     1      -3.702  12.077  14.279  1.00  0.00     0.274 HD
ATOM     14  H71 UNL     1      -4.704  13.437  14.476  1.00  0.00     0.274 HD
ENDBRANCH  10  11
ENDBRANCH   9  10
ENDBRANCH   7   9
ENDBRANCH   6   7
BRANCH   1  15
HETATM   15  C3  UNL     1      -8.614   8.969  13.180  1.00  0.00     0.168 C 
BRANCH  15  16
HETATM   16  C2  UNL     1      -9.426   7.960  12.411  1.00  0.00     0.018 C 
HETATM   17  C1  UNL     1     -10.874   8.396  12.484  1.00  0.00     0.007 C 
ENDBRANCH  15  16
ENDBRANCH   1  15
BRANCH   5  18
HETATM   18  N5  UNL     1      -4.720   8.223  16.099  1.00  0.00    -0.309 N 
ATOM     19  H52 UNL     1      -3.707   8.168  16.001  1.00  0.00     0.178 HD
ATOM     20  H51 UNL     1      -4.908   8.408  17.085  1.00  0.00     0.178 HD
ENDBRANCH   5  18
BRANCH   4  21
HETATM   21  N3  UNL     1      -4.911   6.071  14.166  1.00  0.00    -0.231 N 
ATOM     22  H32 UNL     1      -4.029   6.096  13.656  1.00  0.00     0.174 HD
ATOM     23  H31 UNL     1      -4.993   5.159  14.615  1.00  0.00     0.174 HD
ENDBRANCH   4  21
TORSDOF 8
ENDMDL
MODEL 2
REMARK VINA RESULT: -5.635840870      1.649      3.942
REMARK  8 active torsions:
REMARK  status: ('A' for Active; 'I' for Inactive)
REMARK    1  A    between atoms: C2_2  and  C3_3 
REMARK    2  A    between atoms: C3_3  and  N1_4 
REMARK    3  A    between atoms: C4_7  and  N3_8 
REMARK    4  A    between atoms: N4_11  and  N5_12 
REMARK    5  A    between atoms: C5_15  and  N6_16 
REMARK    6  A    between atoms: N6_16  and  C6_18 
REMARK    7  A    between atoms: C6_18  and  C7_19 
REMARK    8  A    between atoms: C7_19  and  N7_20 
ROOT
HETATM    1  N1  UNL     1      -7.399   8.693  13.965  1.00  0.00    -0.107 N 
HETATM    2  N2  UNL     1      -7.921   9.614  14.736  1.00  0.00    -0.114 N 
ATOM      3  H2  UNL     1      -8.788  10.116  14.546  1.00  0.00     0.206 HD
HETATM    4  C4  UNL     1      -7.144   9.799  15.812  1.00  0.00     0.727 A 
HETATM    5  N4  UNL     1      -6.082   8.953  15.717  1.00  0.00     0.085 N 
HETATM    6  C5  UNL     1      -6.237   8.270  14.578  1.00  0.00     0.731 A 
ENDROOT
BRANCH   6   7
HETATM    7  N6  UNL     1      -5.528   7.371  14.034  1.00  0.00    -0.221 N 
ATOM      8  H6  UNL     1      -5.119   7.603  13.129  1.00  0.00     0.177 HD
BRANCH   7   9
HETATM    9  C6  UNL     1      -5.239   6.086  14.539  1.00  0.00     0.165 C 
BRANCH   9  10
HETATM   10  C7  UNL     1      -6.496   5.251  14.778  1.00  0.00     0.249 C 
BRANCH  10  11
HETATM   11  N7  UNL     1      -6.147   3.865  14.561  1.00  0.00    -0.078 N 
ATOM     12  H73 UNL     1      -5.473   3.739  13.807  1.00  0.00     0.274 HD
ATOM     13  H72 UNL     1      -5.580   3.475  15.314  1.00  0.00     0.274 HD
ATOM     14  H71 UNL     1      -7.014   3.349  14.409  1.00  0.00     0.274 HD
ENDBRANCH  10  11
ENDBRANCH   9  10
ENDBRANCH   7   9
ENDBRANCH   6   7
BRANCH   1  15
HETATM   15  C3  UNL     1      -7.911   8.183  12.699  1.00  0.00     0.168 C 
BRANCH  15  16
HETATM   16  C2  UNL     1      -9.056   7.227  12.905  1.00  0.00     0.018 C 
HETATM   17  C1  UNL     1     -10.318   7.931  12.453  1.00  0.00     0.007 C 
ENDBRANCH  15  16
ENDBRANCH   1  15
BRANCH   5  18
HETATM   18  N5  UNL     1      -5.046   8.846  16.649  1.00  0.00    -0.309 N 
ATOM     19  H52 UNL     1      -4.594   9.595  17.173  1.00  0.00     0.178 HD
ATOM     20  H51 UNL     1      -4.596   7.977  16.934  1.00  0.00     0.178 HD
ENDBRANCH   5  18
BRANCH   4  21
HETATM   21  N3  UNL     1      -7.332  10.624  16.797  1.00  0.00    -0.231 N 
ATOM     22  H32 UNL     1      -7.588  10.338  17.742  1.00  0.00     0.174 HD
ATOM     23  H31 UNL     1      -7.257  11.641  16.783  1.00  0.00     0.174 HD
ENDBRANCH   4  21
TORSDOF 8
ENDMDL
MODEL 3
REMARK VINA RESULT: -5.556011811      1.440      4.058
REMARK  8 active torsions:
REMARK  status: ('A' for Active; 'I' for Inactive)
REMARK    1  A    between atoms: C2_2  and  C3_3 
REMARK    2  A    between atoms: C3_3  and  N1_4 
REMARK    3  A    between atoms: C4_7  and  N3_8 
REMARK    4  A    between atoms: N4_11  and  N5_12 
REMARK    5  A    between atoms: C5_15  and  N6_16 
REMARK    6  A    between atoms: N6_16  and  C6_18 
REMARK    7  A    between atoms: C6_18  and  C7_19 
REMARK    8  A    between atoms: C7_19  and  N7_20 
ROOT
HETATM    1  N1  UNL     1      -6.010   9.124  15.158  1.00  0.00    -0.107 N 
HETATM    2  N2  UNL     1      -5.310   8.941  16.250  1.00  0.00    -0.114 N 
ATOM      3  H2  UNL     1      -5.015   9.679  16.888  1.00  0.00     0.206 HD
HETATM    4  C4  UNL     1      -5.041   7.637  16.403  1.00  0.00     0.727 A 
HETATM    5  N4  UNL     1      -5.598   6.965  15.358  1.00  0.00     0.085 N 
HETATM    6  C5  UNL     1      -6.196   7.880  14.589  1.00  0.00     0.731 A 
ENDROOT
BRANCH   6   7
HETATM    7  N6  UNL     1      -6.850   7.772  13.508  1.00  0.00    -0.221 N 
ATOM      8  H6  UNL     1      -6.386   8.106  12.663  1.00  0.00     0.177 HD
BRANCH   7   9
HETATM    9  C6  UNL     1      -8.146   7.240  13.341  1.00  0.00     0.165 C 
BRANCH   9  10
HETATM   10  C7  UNL     1      -9.226   8.320  13.307  1.00  0.00     0.249 C 
BRANCH  10  11
HETATM   11  N7  UNL     1      -8.957   9.171  12.171  1.00  0.00    -0.078 N 
ATOM     12  H73 UNL     1      -7.986   9.127  11.863  1.00  0.00     0.274 HD
ATOM     13  H72 UNL     1      -9.386   8.832  11.310  1.00  0.00     0.274 HD
ATOM     14  H71 UNL     1      -9.253  10.116  12.416  1.00  0.00     0.274 HD
ENDBRANCH  10  11
ENDBRANCH   9  10
ENDBRANCH   7   9
ENDBRANCH   6   7
BRANCH   1  15
HETATM   15  C3  UNL     1      -6.515  10.377  14.612  1.00  0.00     0.168 C 
BRANCH  15  16
HETATM   16  C2  UNL     1      -5.818  11.569  15.214  1.00  0.00     0.018 C 
HETATM   17  C1  UNL     1      -5.452  12.499  14.076  1.00  0.00     0.007 C 
ENDBRANCH  15  16
ENDBRANCH   1  15
BRANCH   5  18
HETATM   18  N5  UNL     1      -5.536   5.583  15.160  1.00  0.00    -0.309 N 
ATOM     19  H52 UNL     1      -6.089   5.015  14.519  1.00  0.00     0.178 HD
ATOM     20  H51 UNL     1      -4.908   4.944  15.648  1.00  0.00     0.178 HD
ENDBRANCH   5  18
BRANCH   4  21
HETATM   21  N3  UNL     1      -4.373   7.070  17.361  1.00  0.00    -0.231 N 
ATOM     22  H32 UNL     1      -4.276   6.060  17.470  1.00  0.00     0.174 HD
ATOM     23  H31 UNL     1      -3.865   7.521  18.121  1.00  0.00     0.174 HD
ENDBRANCH   4  21
TORSDOF 8
ENDMDL
MODEL 4
REMARK VINA RESULT: -5.555238910      1.580      4.261
REMARK  8 active torsions:
REMARK  status: ('A' for Active; 'I' for Inactive)
REMARK    1  A    between atoms: C2_2  and  C3_3 
REMARK    2  A    between atoms: C3_3  and  N1_4 
REMARK    3  A    between atoms: C4_7  and  N3_8 
REMARK    4  A    between atoms: N4_11  and  N5_12 
REMARK    5  A    between atoms: C5_15  and  N6_16 
REMARK    6  A    between atoms: N6_16  and  C6_18 
REMARK    7  A    between atoms: C6_18  and  C7_19 
REMARK    8  A    between atoms: C7_19  and  N7_20 
ROOT
HETATM    1  N1  UNL     1      -6.420   9.074  14.495  1.00  0.00    -0.107 N 
HETATM    2  N2  UNL     1      -5.376   8.295  14.628  1.00  0.00    -0.114 N 
ATOM      3  H2  UNL     1      -4.448   8.603  14.918  1.00  0.00     0.206 HD
HETATM    4  C4  UNL     1      -5.710   7.034  14.326  1.00  0.00     0.727 A 
HETATM    5  N4  UNL     1      -7.029   7.014  13.987  1.00  0.00     0.085 N 
HETATM    6  C5  UNL     1      -7.468   8.273  14.090  1.00  0.00     0.731 A 
ENDROOT
BRANCH   6   7
HETATM    7  N6  UNL     1      -8.611   8.783  13.886  1.00  0.00    -0.221 N 
ATOM      8  H6  UNL     1      -9.113   9.113  14.710  1.00  0.00     0.177 HD
BRANCH   7   9
HETATM    9  C6  UNL     1      -9.267   8.947  12.647  1.00  0.00     0.165 C 
BRANCH   9  10
HETATM   10  C7  UNL     1     -10.492   8.046  12.506  1.00  0.00     0.249 C 
BRANCH  10  11
HETATM   11  N7  UNL     1     -11.297   8.571  11.426  1.00  0.00    -0.078 N 
ATOM     12  H73 UNL     1     -11.976   9.264  11.737  1.00  0.00     0.274 HD
ATOM     13  H72 UNL     1     -10.769   9.174  10.794  1.00  0.00     0.274 HD
ATOM     14  H71 UNL     1     -11.728   7.778  10.950  1.00  0.00     0.274 HD
ENDBRANCH  10  11
ENDBRANCH   9  10
ENDBRANCH   7   9
ENDBRANCH   6   7
BRANCH   1  15
HETATM   15  C3  UNL     1      -6.505  10.512  14.720  1.00  0.00     0.168 C 
BRANCH  15  16
HETATM   16  C2  UNL     1      -6.058  10.887  16.108  1.00  0.00     0.018 C 
HETATM   17  C1  UNL     1      -7.179  10.517  17.058  1.00  0.00     0.007 C 
ENDBRANCH  15  16
ENDBRANCH   1  15
BRANCH   5  18
HETATM   18  N5  UNL     1      -7.750   5.880  13.608  1.00  0.00    -0.309 N 
ATOM     19  H52 UNL     1      -7.726   4.951  14.028  1.00  0.00     0.178 HD
ATOM     20  H51 UNL     1      -8.417   5.834  12.838  1.00  0.00     0.178 HD
ENDBRANCH   5  18
BRANCH   4  21
HETATM   21  N3  UNL     1      -4.947   5.983  14.341  1.00  0.00    -0.231 N 
ATOM     22  H32 UNL     1      -4.392   5.691  15.145  1.00  0.00     0.174 HD
ATOM     23  H31 UNL     1      -4.789   5.315  13.587  1.00  0.00     0.174 HD
ENDBRANCH   4  21
TORSDOF 8
ENDMDL
MODEL 5
REMARK VINA RESULT: -5.312102583      1.165      1.563
REMARK  8 active torsions:
REMARK  status: ('A' for Active; 'I' for Inactive)
REMARK    1  A    between atoms: C2_2  and  C3_3 
REMARK    2  A    between atoms: C3_3  and  N1_4 
REMARK    3  A    between atoms: C4_7  and  N3_8 
REMARK    4  A    between atoms: N4_11  and  N5_12 
REMARK    5  A    between atoms: C5_15  and  N6_16 
REMARK    6  A    between atoms: N6_16  and  C6_18 
REMARK    7  A    between atoms: C6_18  and  C7_19 
REMARK    8  A    between atoms: C7_19  and  N7_20 
ROOT
HETATM    1  N1  UNL     1      -7.556   8.234  13.587  1.00  0.00    -0.107 N 
HETATM    2  N2  UNL     1      -6.892   7.155  13.258  1.00  0.00    -0.114 N 
ATOM      3  H2  UNL     1      -7.137   6.527  12.493  1.00  0.00     0.206 HD
HETATM    4  C4  UNL     1      -5.843   7.001  14.077  1.00  0.00     0.727 A 
HETATM    5  N4  UNL     1      -5.844   8.033  14.965  1.00  0.00     0.085 N 
HETATM    6  C5  UNL     1      -6.901   8.794  14.664  1.00  0.00     0.731 A 
ENDROOT
BRANCH   6   7
HETATM    7  N6  UNL     1      -7.342   9.862  15.187  1.00  0.00    -0.221 N 
ATOM      8  H6  UNL     1      -8.356   9.968  15.213  1.00  0.00     0.177 HD
BRANCH   7   9
HETATM    9  C6  UNL     1      -6.589  10.922  15.735  1.00  0.00     0.165 C 
BRANCH   9  10
HETATM   10  C7  UNL     1      -6.584  10.913  17.263  1.00  0.00     0.249 C 
BRANCH  10  11
HETATM   11  N7  UNL     1      -7.956  10.794  17.703  1.00  0.00    -0.078 N 
ATOM     12  H73 UNL     1      -8.441  11.690  17.734  1.00  0.00     0.274 HD
ATOM     13  H72 UNL     1      -8.556  10.341  17.014  1.00  0.00     0.274 HD
ATOM     14  H71 UNL     1      -7.950  10.313  18.602  1.00  0.00     0.274 HD
ENDBRANCH  10  11
ENDBRANCH   9  10
ENDBRANCH   7   9
ENDBRANCH   6   7
BRANCH   1  15
HETATM   15  C3  UNL     1      -8.758   8.776  12.965  1.00  0.00     0.168 C 
BRANCH  15  16
HETATM   16  C2  UNL     1      -9.714   7.688  12.554  1.00  0.00     0.018 C 
HETATM   17  C1  UNL     1     -11.028   8.352  12.198  1.00  0.00     0.007 C 
ENDBRANCH  15  16
ENDBRANCH   1  15
BRANCH   5  18
HETATM   18  N5  UNL     1      -4.906   8.225  15.982  1.00  0.00    -0.309 N 
ATOM     19  H52 UNL     1      -4.977   8.839  16.793  1.00  0.00     0.178 HD
ATOM     20  H51 UNL     1      -4.001   7.760  16.046  1.00  0.00     0.178 HD
ENDBRANCH   5  18
BRANCH   4  21
HETATM   21  N3  UNL     1      -4.956   6.053  14.063  1.00  0.00    -0.231 N 
ATOM     22  H32 UNL     1      -4.473   5.733  13.223  1.00  0.00     0.174 HD
ATOM     23  H31 UNL     1      -4.617   5.503  14.852  1.00  0.00     0.174 HD
ENDBRANCH   4  21
TORSDOF 8
ENDMDL
