MODEL 1
REMARK VINA RESULT: -7.575332344      0.000      0.000
REMARK  8 active torsions:
REMARK  status: ('A' for Active; 'I' for Inactive)
REMARK    1  A    between atoms: C2_2  and  O1_3 
REMARK    2  A    between atoms: O1_3  and  C3_4 
REMARK       I    between atoms: C3_4  and  N1_6 
REMARK    3  A    between atoms: C5_8  and  O3_9 
REMARK    4  A    between atoms: C5_8  and  C6_11 
REMARK    5  A    between atoms: C11_17  and  C12_18 
REMARK    6  A    between atoms: C12_18  and  C13_19 
REMARK    7  A    between atoms: C14_20  and  C15_21 
REMARK    8  A    between atoms: C17_25  and  N4_26 
ROOT
HETATM    1  C6  UNL     1       0.629   6.147  12.117  1.00  0.00     0.164 C 
HETATM    2  C7  UNL     1      -0.527   6.954  11.770  1.00  0.00     0.062 C 
HETATM    3  N2  UNL     1      -1.446   7.627  11.502  1.00  0.00    -0.197 NA
ENDROOT
BRANCH   1   4
HETATM    4  C5  UNL     1       0.296   4.817  12.720  1.00  0.00     0.095 C 
HETATM    5  C4  UNL     1       1.315   4.400  13.744  1.00  0.00     0.168 C 
HETATM    6  N1  UNL     1       1.828   3.132  13.348  1.00  0.00    -0.319 N 
HETATM    7  C3  UNL     1       3.027   2.542  13.779  1.00  0.00     0.363 C 
HETATM    8  C11 UNL     1       0.891   2.562  12.423  1.00  0.00     0.103 C 
HETATM    9  O2  UNL     1       3.777   3.136  14.599  1.00  0.00    -0.238 OA
HETATM   10  C8  UNL     1       0.214   3.677  11.730  1.00  0.00     0.007 C 
HETATM   11  C9  UNL     1       1.028   4.026  10.464  1.00  0.00     0.020 C 
HETATM   12  C10 UNL     1      -1.172   3.436  11.264  1.00  0.00     0.020 C 
BRANCH   7  13
HETATM   13  O1  UNL     1       3.412   1.298  13.314  1.00  0.00    -0.304 OA
BRANCH  13  14
HETATM   14  C2  UNL     1       4.583   0.635  13.760  1.00  0.00     0.176 C 
HETATM   15  C1  UNL     1       4.332   0.068  15.138  1.00  0.00     0.034 C 
ENDBRANCH  13  14
ENDBRANCH   7  13
BRANCH   8  16
HETATM   16  C12 UNL     1       0.047   1.475  13.023  1.00  0.00     0.053 C 
BRANCH  16  17
HETATM   17  C13 UNL     1      -0.078   0.255  12.257  1.00  0.00    -0.022 C 
HETATM   18  C14 UNL     1      -0.033  -0.975  12.624  1.00  0.00     0.027 C 
BRANCH  18  19
HETATM   19  C15 UNL     1       0.145  -1.640  13.884  1.00  0.00     0.064 A 
HETATM   20  C16 UNL     1       1.171  -1.321  14.797  1.00  0.00     0.136 A 
HETATM   21  N3  UNL     1       1.085  -2.121  15.869  1.00  0.00    -0.200 N 
HETATM   22  C17 UNL     1       0.061  -2.930  15.691  1.00  0.00     0.676 A 
ATOM     23  H3  UNL     1       1.704  -2.105  16.681  1.00  0.00     0.183 HD
HETATM   24  N5  UNL     1      -0.500  -2.635  14.491  1.00  0.00    -0.191 N 
ATOM     25  H5  UNL     1      -1.312  -3.114  14.104  1.00  0.00     0.184 HD
BRANCH  22  26
HETATM   26  N4  UNL     1      -0.333  -3.842  16.514  1.00  0.00    -0.234 N 
ATOM     27  H42 UNL     1      -1.260  -3.916  16.933  1.00  0.00     0.174 HD
ATOM     28  H41 UNL     1       0.230  -4.619  16.860  1.00  0.00     0.174 HD
ENDBRANCH  22  26
ENDBRANCH  18  19
ENDBRANCH  16  17
ENDBRANCH   8  16
BRANCH   4  29
HETATM   29  O3  UNL     1      -0.922   4.994  13.410  1.00  0.00    -0.386 OA
ATOM     30  H3  UNL     1      -1.592   4.561  12.895  1.00  0.00     0.210 HD
ENDBRANCH   4  29
ENDBRANCH   1   4
TORSDOF 8
ENDMDL
MODEL 2
REMARK VINA RESULT: -7.296439089      3.323      8.569
REMARK  8 active torsions:
REMARK  status: ('A' for Active; 'I' for Inactive)
REMARK    1  A    between atoms: C2_2  and  O1_3 
REMARK    2  A    between atoms: O1_3  and  C3_4 
REMARK       I    between atoms: C3_4  and  N1_6 
REMARK    3  A    between atoms: C5_8  and  O3_9 
REMARK    4  A    between atoms: C5_8  and  C6_11 
REMARK    5  A    between atoms: C11_17  and  C12_18 
REMARK    6  A    between atoms: C12_18  and  C13_19 
REMARK    7  A    between atoms: C14_20  and  C15_21 
REMARK    8  A    between atoms: C17_25  and  N4_26 
ROOT
HETATM    1  C6  UNL     1       0.847   2.099  12.652  1.00  0.00     0.164 C 
HETATM    2  C7  UNL     1       1.903   1.392  13.356  1.00  0.00     0.062 C 
HETATM    3  N2  UNL     1       2.735   0.807  13.933  1.00  0.00    -0.197 NA
ENDROOT
BRANCH   1   4
HETATM    4  C5  UNL     1       0.966   3.591  12.698  1.00  0.00     0.095 C 
HETATM    5  C4  UNL     1      -0.145   4.213  13.499  1.00  0.00     0.168 C 
HETATM    6  N1  UNL     1      -0.813   5.146  12.657  1.00  0.00    -0.319 N 
HETATM    7  C3  UNL     1      -2.100   5.674  12.848  1.00  0.00     0.363 C 
HETATM    8  C11 UNL     1       0.074   5.452  11.571  1.00  0.00     0.103 C 
HETATM    9  O2  UNL     1      -2.793   5.333  13.843  1.00  0.00    -0.238 OA
HETATM   10  C8  UNL     1       0.928   4.269  11.346  1.00  0.00     0.007 C 
HETATM   11  C9  UNL     1       0.226   3.351  10.321  1.00  0.00     0.020 C 
HETATM   12  C10 UNL     1       2.286   4.514  10.803  1.00  0.00     0.020 C 
BRANCH   7  13
HETATM   13  O1  UNL     1      -2.635   6.578  11.949  1.00  0.00    -0.304 OA
BRANCH  13  14
HETATM   14  C2  UNL     1      -3.400   6.185  10.821  1.00  0.00     0.176 C 
HETATM   15  C1  UNL     1      -3.267   7.237   9.746  1.00  0.00     0.034 C 
ENDBRANCH  13  14
ENDBRANCH   7  13
BRANCH   8  16
HETATM   16  C12 UNL     1       0.731   6.796  11.698  1.00  0.00     0.053 C 
BRANCH  16  17
HETATM   17  C13 UNL     1       0.577   7.701  10.582  1.00  0.00    -0.022 C 
HETATM   18  C14 UNL     1       1.398   8.539  10.060  1.00  0.00     0.027 C 
BRANCH  18  19
HETATM   19  C15 UNL     1       2.754   8.919  10.336  1.00  0.00     0.064 A 
HETATM   20  C16 UNL     1       3.876   8.230   9.833  1.00  0.00     0.136 A 
HETATM   21  N3  UNL     1       5.000   8.813  10.274  1.00  0.00    -0.200 N 
HETATM   22  C17 UNL     1       4.656   9.836  11.029  1.00  0.00     0.676 A 
ATOM     23  H3  UNL     1       5.953   8.517  10.062  1.00  0.00     0.183 HD
HETATM   24  N5  UNL     1       3.301   9.893  11.062  1.00  0.00    -0.191 N 
ATOM     25  H5  UNL     1       2.767  10.593  11.578  1.00  0.00     0.184 HD
BRANCH  22  26
HETATM   26  N4  UNL     1       5.469  10.638  11.630  1.00  0.00    -0.234 N 
ATOM     27  H42 UNL     1       5.754  11.562  11.305  1.00  0.00     0.174 HD
ATOM     28  H41 UNL     1       5.939  10.459  12.517  1.00  0.00     0.174 HD
ENDBRANCH  22  26
ENDBRANCH  18  19
ENDBRANCH  16  17
ENDBRANCH   8  16
BRANCH   4  29
HETATM   29  O3  UNL     1       2.165   3.868  13.385  1.00  0.00    -0.386 OA
ATOM     30  H3  UNL     1       2.875   3.586  12.820  1.00  0.00     0.210 HD
ENDBRANCH   4  29
ENDBRANCH   1   4
TORSDOF 8
ENDMDL
MODEL 3
REMARK VINA RESULT: -7.250092071      1.696      2.037
REMARK  8 active torsions:
REMARK  status: ('A' for Active; 'I' for Inactive)
REMARK    1  A    between atoms: C2_2  and  O1_3 
REMARK    2  A    between atoms: O1_3  and  C3_4 
REMARK       I    between atoms: C3_4  and  N1_6 
REMARK    3  A    between atoms: C5_8  and  O3_9 
REMARK    4  A    between atoms: C5_8  and  C6_11 
REMARK    5  A    between atoms: C11_17  and  C12_18 
REMARK    6  A    between atoms: C12_18  and  C13_19 
REMARK    7  A    between atoms: C14_20  and  C15_21 
REMARK    8  A    between atoms: C17_25  and  N4_26 
ROOT
HETATM    1  C6  UNL     1       0.250   5.640  12.134  1.00  0.00     0.164 C 
HETATM    2  C7  UNL     1      -0.985   6.393  12.010  1.00  0.00     0.062 C 
HETATM    3  N2  UNL     1      -1.967   7.023  11.914  1.00  0.00    -0.197 NA
ENDROOT
BRANCH   1   4
HETATM    4  C5  UNL     1       0.133   4.393  12.956  1.00  0.00     0.095 C 
HETATM    5  C4  UNL     1       1.350   4.176  13.812  1.00  0.00     0.168 C 
HETATM    6  N1  UNL     1       1.878   2.892  13.493  1.00  0.00    -0.319 N 
HETATM    7  C3  UNL     1       3.177   2.431  13.761  1.00  0.00     0.363 C 
HETATM    8  C11 UNL     1       0.835   2.151  12.843  1.00  0.00     0.103 C 
HETATM    9  O2  UNL     1       4.015   3.172  14.340  1.00  0.00    -0.238 OA
HETATM   10  C8  UNL     1      -0.039   3.122  12.154  1.00  0.00     0.007 C 
HETATM   11  C9  UNL     1       0.503   3.330  10.723  1.00  0.00     0.020 C 
HETATM   12  C10 UNL     1      -1.465   2.747  11.994  1.00  0.00     0.020 C 
BRANCH   7  13
HETATM   13  O1  UNL     1       3.564   1.155  13.395  1.00  0.00    -0.304 OA
BRANCH  13  14
HETATM   14  C2  UNL     1       4.510   0.395  14.128  1.00  0.00     0.176 C 
HETATM   15  C1  UNL     1       3.795  -0.346  15.233  1.00  0.00     0.034 C 
ENDBRANCH  13  14
ENDBRANCH   7  13
BRANCH   8  16
HETATM   16  C12 UNL     1       0.198   1.118  13.728  1.00  0.00     0.053 C 
BRANCH  16  17
HETATM   17  C13 UNL     1       0.443  -0.265  13.387  1.00  0.00    -0.022 C 
HETATM   18  C14 UNL     1      -0.301  -1.305  13.507  1.00  0.00     0.027 C 
BRANCH  18  19
HETATM   19  C15 UNL     1      -1.630  -1.536  14.000  1.00  0.00     0.064 A 
HETATM   20  C16 UNL     1      -1.942  -2.500  14.979  1.00  0.00     0.136 A 
HETATM   21  N3  UNL     1      -3.261  -2.488  15.220  1.00  0.00    -0.200 N 
HETATM   22  C17 UNL     1      -3.805  -1.568  14.450  1.00  0.00     0.676 A 
ATOM     23  H3  UNL     1      -3.755  -3.085  15.883  1.00  0.00     0.183 HD
HETATM   24  N5  UNL     1      -2.815  -0.999  13.717  1.00  0.00    -0.191 N 
ATOM     25  H5  UNL     1      -2.961  -0.255  13.035  1.00  0.00     0.184 HD
BRANCH  22  26
HETATM   26  N4  UNL     1      -5.059  -1.267  14.404  1.00  0.00    -0.234 N 
ATOM     27  H42 UNL     1      -5.764  -1.706  13.812  1.00  0.00     0.174 HD
ATOM     28  H41 UNL     1      -5.521  -0.545  14.958  1.00  0.00     0.174 HD
ENDBRANCH  22  26
ENDBRANCH  18  19
ENDBRANCH  16  17
ENDBRANCH   8  16
BRANCH   4  29
HETATM   29  O3  UNL     1      -0.949   4.603  13.835  1.00  0.00    -0.386 OA
ATOM     30  H3  UNL     1      -1.017   3.824  14.375  1.00  0.00     0.210 HD
ENDBRANCH   4  29
ENDBRANCH   1   4
TORSDOF 8
ENDMDL
MODEL 4
REMARK VINA RESULT: -7.083474584      3.245      8.445
REMARK  8 active torsions:
REMARK  status: ('A' for Active; 'I' for Inactive)
REMARK    1  A    between atoms: C2_2  and  O1_3 
REMARK    2  A    between atoms: O1_3  and  C3_4 
REMARK       I    between atoms: C3_4  and  N1_6 
REMARK    3  A    between atoms: C5_8  and  O3_9 
REMARK    4  A    between atoms: C5_8  and  C6_11 
REMARK    5  A    between atoms: C11_17  and  C12_18 
REMARK    6  A    between atoms: C12_18  and  C13_19 
REMARK    7  A    between atoms: C14_20  and  C15_21 
REMARK    8  A    between atoms: C17_25  and  N4_26 
ROOT
HETATM    1  C6  UNL     1       0.862   2.127  13.061  1.00  0.00     0.164 C 
HETATM    2  C7  UNL     1       2.146   1.617  13.507  1.00  0.00     0.062 C 
HETATM    3  N2  UNL     1       3.168   1.190  13.885  1.00  0.00    -0.197 NA
ENDROOT
BRANCH   1   4
HETATM    4  C5  UNL     1       0.823   3.611  12.857  1.00  0.00     0.095 C 
HETATM    5  C4  UNL     1      -0.368   4.234  13.530  1.00  0.00     0.168 C 
HETATM    6  N1  UNL     1      -1.105   4.938  12.536  1.00  0.00    -0.319 N 
HETATM    7  C3  UNL     1      -2.445   5.350  12.620  1.00  0.00     0.363 C 
HETATM    8  C11 UNL     1      -0.224   5.153  11.423  1.00  0.00     0.103 C 
HETATM    9  O2  UNL     1      -3.127   5.106  13.651  1.00  0.00    -0.238 OA
HETATM   10  C8  UNL     1       0.755   4.048  11.410  1.00  0.00     0.007 C 
HETATM   11  C9  UNL     1       0.182   2.903  10.546  1.00  0.00     0.020 C 
HETATM   12  C10 UNL     1       2.096   4.343  10.849  1.00  0.00     0.020 C 
BRANCH   7  13
HETATM   13  O1  UNL     1      -3.044   6.029  11.576  1.00  0.00    -0.304 OA
BRANCH  13  14
HETATM   14  C2  UNL     1      -3.559   7.344  11.706  1.00  0.00     0.176 C 
HETATM   15  C1  UNL     1      -3.090   8.174  10.534  1.00  0.00     0.034 C 
ENDBRANCH  13  14
ENDBRANCH   7  13
BRANCH   8  16
HETATM   16  C12 UNL     1       0.287   6.562  11.331  1.00  0.00     0.053 C 
BRANCH  16  17
HETATM   17  C13 UNL     1       0.472   7.098  10.002  1.00  0.00    -0.022 C 
HETATM   18  C14 UNL     1       1.391   7.855   9.521  1.00  0.00     0.027 C 
BRANCH  18  19
HETATM   19  C15 UNL     1       2.574   8.463  10.062  1.00  0.00     0.064 A 
HETATM   20  C16 UNL     1       2.552   9.503  11.013  1.00  0.00     0.136 A 
HETATM   21  N3  UNL     1       3.806   9.869  11.312  1.00  0.00    -0.200 N 
HETATM   22  C17 UNL     1       4.627   9.118  10.606  1.00  0.00     0.676 A 
ATOM     23  H3  UNL     1       4.078  10.599  11.971  1.00  0.00     0.183 HD
HETATM   24  N5  UNL     1       3.876   8.274   9.854  1.00  0.00    -0.191 N 
ATOM     25  H5  UNL     1       4.260   7.582   9.211  1.00  0.00     0.184 HD
BRANCH  22  26
HETATM   26  N4  UNL     1       5.915   9.180  10.628  1.00  0.00    -0.234 N 
ATOM     27  H42 UNL     1       6.482  10.014  10.472  1.00  0.00     0.174 HD
ATOM     28  H41 UNL     1       6.548   8.400  10.805  1.00  0.00     0.174 HD
ENDBRANCH  22  26
ENDBRANCH  18  19
ENDBRANCH  16  17
ENDBRANCH   8  16
BRANCH   4  29
HETATM   29  O3  UNL     1       1.967   4.125  13.502  1.00  0.00    -0.386 OA
ATOM     30  H3  UNL     1       2.693   3.561  13.260  1.00  0.00     0.210 HD
ENDBRANCH   4  29
ENDBRANCH   1   4
TORSDOF 8
ENDMDL
MODEL 5
REMARK VINA RESULT: -7.046714756      3.792      9.009
REMARK  8 active torsions:
REMARK  status: ('A' for Active; 'I' for Inactive)
REMARK    1  A    between atoms: C2_2  and  O1_3 
REMARK    2  A    between atoms: O1_3  and  C3_4 
REMARK       I    between atoms: C3_4  and  N1_6 
REMARK    3  A    between atoms: C5_8  and  O3_9 
REMARK    4  A    between atoms: C5_8  and  C6_11 
REMARK    5  A    between atoms: C11_17  and  C12_18 
REMARK    6  A    between atoms: C12_18  and  C13_19 
REMARK    7  A    between atoms: C14_20  and  C15_21 
REMARK    8  A    between atoms: C17_25  and  N4_26 
ROOT
HETATM    1  C6  UNL     1       0.224   2.845  12.677  1.00  0.00     0.164 C 
HETATM    2  C7  UNL     1       1.233   1.992  13.279  1.00  0.00     0.062 C 
HETATM    3  N2  UNL     1       2.028   1.295  13.781  1.00  0.00    -0.197 NA
ENDROOT
BRANCH   1   4
HETATM    4  C5  UNL     1       0.668   4.256  12.442  1.00  0.00     0.095 C 
HETATM    5  C4  UNL     1      -0.423   5.241  12.760  1.00  0.00     0.168 C 
HETATM    6  N1  UNL     1      -0.651   6.023  11.592  1.00  0.00    -0.319 N 
HETATM    7  C3  UNL     1      -1.792   6.791  11.307  1.00  0.00     0.363 C 
HETATM    8  C11 UNL     1       0.505   5.884  10.752  1.00  0.00     0.103 C 
HETATM    9  O2  UNL     1      -2.752   6.841  12.122  1.00  0.00    -0.238 OA
HETATM   10  C8  UNL     1       1.094   4.557  11.022  1.00  0.00     0.007 C 
HETATM   11  C9  UNL     1       0.452   3.536  10.057  1.00  0.00     0.020 C 
HETATM   12  C10 UNL     1       2.559   4.421  10.835  1.00  0.00     0.020 C 
BRANCH   7  13
HETATM   13  O1  UNL     1      -1.887   7.507  10.128  1.00  0.00    -0.304 OA
BRANCH  13  14
HETATM   14  C2  UNL     1      -2.545   8.760  10.038  1.00  0.00     0.176 C 
HETATM   15  C1  UNL     1      -1.521   9.834   9.756  1.00  0.00     0.034 C 
ENDBRANCH  13  14
ENDBRANCH   7  13
BRANCH   8  16
HETATM   16  C12 UNL     1       1.406   7.085  10.774  1.00  0.00     0.053 C 
BRANCH  16  17
HETATM   17  C13 UNL     1       1.582   7.785   9.522  1.00  0.00    -0.022 C 
HETATM   18  C14 UNL     1       2.497   8.598   9.136  1.00  0.00     0.027 C 
BRANCH  18  19
HETATM   19  C15 UNL     1       3.683   9.135   9.742  1.00  0.00     0.064 A 
HETATM   20  C16 UNL     1       4.980   8.647   9.484  1.00  0.00     0.136 A 
HETATM   21  N3  UNL     1       5.874   9.339  10.204  1.00  0.00    -0.200 N 
HETATM   22  C17 UNL     1       5.219  10.241  10.905  1.00  0.00     0.676 A 
ATOM     23  H3  UNL     1       6.884   9.193  10.209  1.00  0.00     0.183 HD
HETATM   24  N5  UNL     1       3.898  10.111  10.621  1.00  0.00    -0.191 N 
ATOM     25  H5  UNL     1       3.163  10.688  11.030  1.00  0.00     0.184 HD
BRANCH  22  26
HETATM   26  N4  UNL     1       5.745  11.095  11.718  1.00  0.00    -0.234 N 
ATOM     27  H42 UNL     1       6.606  11.620  11.568  1.00  0.00     0.174 HD
ATOM     28  H41 UNL     1       5.368  11.364  12.628  1.00  0.00     0.174 HD
ENDBRANCH  22  26
ENDBRANCH  18  19
ENDBRANCH  16  17
ENDBRANCH   8  16
BRANCH   4  29
HETATM   29  O3  UNL     1       1.711   4.497  13.360  1.00  0.00    -0.386 OA
ATOM     30  H3  UNL     1       2.058   5.358  13.159  1.00  0.00     0.210 HD
ENDBRANCH   4  29
ENDBRANCH   1   4
TORSDOF 8
ENDMDL
