MODEL 1
REMARK VINA RESULT: -8.287418073      0.000      0.000
REMARK  8 active torsions:
REMARK  status: ('A' for Active; 'I' for Inactive)
REMARK    1  A    between atoms: C2_2  and  C3_3 
REMARK    2  A    between atoms: C6_10  and  C7_11 
REMARK    3  A    between atoms: C7_11  and  C8_12 
REMARK    4  A    between atoms: C8_12  and  N3_15 
REMARK    5  A    between atoms: N3_15  and  C11_17 
REMARK    6  A    between atoms: C11_17  and  O1_18 
REMARK    7  A    between atoms: C12_20  and  N4_22 
REMARK       I    between atoms: N4_22  and  C14_24 
REMARK    8  A    between atoms: C14_24  and  C15_26 
ROOT
HETATM    1  C11 UNL     1     -19.368  -6.498  13.282  1.00  0.00     0.159 C 
HETATM    2  C12 UNL     1     -18.747  -7.407  12.456  1.00  0.00     0.059 C 
HETATM    3  C13 UNL     1     -18.289  -8.481  13.847  1.00  0.00     0.072 C 
ENDROOT
BRANCH   1   4
HETATM    4  N3  UNL     1     -20.478  -5.691  12.959  1.00  0.00    -0.357 N 
ATOM      5  H3  UNL     1     -21.442  -6.006  13.068  1.00  0.00     0.162 HD
BRANCH   4   6
HETATM    6  C8  UNL     1     -20.113  -4.298  12.429  1.00  0.00     0.044 C 
HETATM    7  C9  UNL     1     -21.293  -3.364  12.148  1.00  0.00     0.042 C 
HETATM    8  C10 UNL     1     -19.931  -4.844  10.883  1.00  0.00     0.042 C 
BRANCH   6   9
HETATM    9  C7  UNL     1     -18.870  -3.711  12.688  1.00  0.00     0.020 C 
BRANCH   9  10
HETATM   10  C6  UNL     1     -18.925  -2.578  13.634  1.00  0.00     0.026 A 
HETATM   11  C3  UNL     1     -18.303  -1.368  13.298  1.00  0.00     0.038 A 
HETATM   12  N1  UNL     1     -18.361  -0.612  14.382  1.00  0.00    -0.301 N 
HETATM   13  N2  UNL     1     -18.992  -1.266  15.364  1.00  0.00    -0.284 N 
ATOM     14  H1  UNL     1     -17.980   0.332  14.457  1.00  0.00     0.187 HD
HETATM   15  C4  UNL     1     -19.225  -0.883  16.767  1.00  0.00     0.179 C 
HETATM   16  C5  UNL     1     -19.349  -2.505  14.880  1.00  0.00     0.132 A 
HETATM   17 CL1  UNL     1     -20.382  -3.604  15.850  1.00  0.00    -0.062 Cl
BRANCH  11  18
HETATM   18  C2  UNL     1     -17.878  -0.870  11.903  1.00  0.00     0.055 C 
HETATM   19  C1  UNL     1     -19.159  -0.604  11.106  1.00  0.00     0.011 C 
ENDBRANCH  11  18
ENDBRANCH   9  10
ENDBRANCH   6   9
ENDBRANCH   4   6
ENDBRANCH   1   4
BRANCH   1  20
HETATM   20  O1  UNL     1     -18.930  -6.428  14.556  1.00  0.00    -0.345 OA
ATOM     21  H1  UNL     1     -18.626  -7.241  14.942  1.00  0.00     0.219 HD
ENDBRANCH   1  20
BRANCH   2  22
HETATM   22  N4  UNL     1     -18.163  -8.357  11.580  1.00  0.00    -0.327 N 
HETATM   23  C14 UNL     1     -17.065  -7.750  10.810  1.00  0.00     0.231 C 
HETATM   24  O2  UNL     1     -16.514  -6.857  11.253  1.00  0.00    -0.272 OA
ATOM     25  H4  UNL     1     -18.463  -9.329  11.495  1.00  0.00     0.168 HD
BRANCH  23  26
HETATM   26  C15 UNL     1     -16.964  -8.517   9.482  1.00  0.00     0.046 C 
HETATM   27  C16 UNL     1     -17.253  -7.788   8.266  1.00  0.00     0.024 C 
HETATM   28  C17 UNL     1     -16.956  -8.568   7.042  1.00  0.00    -0.009 C 
HETATM   29  C18 UNL     1     -15.453  -8.817   6.905  1.00  0.00     0.037 C 
HETATM   30  C22 UNL     1     -17.658  -9.927   7.029  1.00  0.00     0.037 C 
HETATM   31  C19 UNL     1     -15.145  -9.649   8.163  1.00  0.00     0.123 C 
HETATM   32  C20 UNL     1     -15.313  -8.748   9.315  1.00  0.00     0.051 C 
HETATM   33  O3  UNL     1     -15.830 -10.835   8.206  1.00  0.00    -0.381 OA
HETATM   34  C21 UNL     1     -17.210 -10.641   8.273  1.00  0.00     0.123 C 
HETATM   35  C23 UNL     1     -17.605  -9.887   9.454  1.00  0.00     0.051 C 
ENDBRANCH  23  26
ENDBRANCH   2  22
TORSDOF 8
ENDMDL
MODEL 2
REMARK VINA RESULT: -8.191343615      1.688      2.543
REMARK  8 active torsions:
REMARK  status: ('A' for Active; 'I' for Inactive)
REMARK    1  A    between atoms: C2_2  and  C3_3 
REMARK    2  A    between atoms: C6_10  and  C7_11 
REMARK    3  A    between atoms: C7_11  and  C8_12 
REMARK    4  A    between atoms: C8_12  and  N3_15 
REMARK    5  A    between atoms: N3_15  and  C11_17 
REMARK    6  A    between atoms: C11_17  and  O1_18 
REMARK    7  A    between atoms: C12_20  and  N4_22 
REMARK       I    between atoms: N4_22  and  C14_24 
REMARK    8  A    between atoms: C14_24  and  C15_26 
ROOT
HETATM    1  C11 UNL     1     -18.158  -5.793  13.145  1.00  0.00     0.159 C 
HETATM    2  C12 UNL     1     -17.993  -6.865  12.298  1.00  0.00     0.059 C 
HETATM    3  C13 UNL     1     -18.643  -8.038  13.523  1.00  0.00     0.072 C 
ENDROOT
BRANCH   1   4
HETATM    4  N3  UNL     1     -18.449  -4.466  12.773  1.00  0.00    -0.357 N 
ATOM      5  H3  UNL     1     -17.798  -3.882  12.247  1.00  0.00     0.162 HD
BRANCH   4   6
HETATM    6  C8  UNL     1     -19.830  -3.972  13.225  1.00  0.00     0.044 C 
HETATM    7  C9  UNL     1     -20.927  -5.037  13.294  1.00  0.00     0.042 C 
HETATM    8  C10 UNL     1     -20.209  -3.406  11.723  1.00  0.00     0.042 C 
BRANCH   6   9
HETATM    9  C7  UNL     1     -19.983  -2.832  14.022  1.00  0.00     0.020 C 
BRANCH   9  10
HETATM   10  C6  UNL     1     -19.299  -2.916  15.329  1.00  0.00     0.026 A 
HETATM   11  C3  UNL     1     -20.052  -3.142  16.488  1.00  0.00     0.038 A 
HETATM   12  N1  UNL     1     -19.216  -2.995  17.504  1.00  0.00    -0.301 N 
HETATM   13  N2  UNL     1     -17.991  -2.707  17.050  1.00  0.00    -0.284 N 
ATOM     14  H1  UNL     1     -19.470  -3.087  18.487  1.00  0.00     0.187 HD
HETATM   15  C4  UNL     1     -16.758  -2.373  17.784  1.00  0.00     0.179 C 
HETATM   16  C5  UNL     1     -18.051  -2.665  15.675  1.00  0.00     0.132 A 
HETATM   17 CL1  UNL     1     -16.559  -2.491  14.697  1.00  0.00    -0.062 Cl
BRANCH  11  18
HETATM   18  C2  UNL     1     -21.477  -3.716  16.602  1.00  0.00     0.055 C 
HETATM   19  C1  UNL     1     -22.038  -3.278  17.959  1.00  0.00     0.011 C 
ENDBRANCH  11  18
ENDBRANCH   9  10
ENDBRANCH   6   9
ENDBRANCH   4   6
ENDBRANCH   1   4
BRANCH   1  20
HETATM   20  O1  UNL     1     -18.122  -6.048  14.469  1.00  0.00    -0.345 OA
ATOM     21  H1  UNL     1     -18.401  -6.915  14.739  1.00  0.00     0.219 HD
ENDBRANCH   1  20
BRANCH   2  22
HETATM   22  N4  UNL     1     -17.868  -7.946  11.387  1.00  0.00    -0.327 N 
HETATM   23  C14 UNL     1     -16.551  -7.922  10.730  1.00  0.00     0.231 C 
HETATM   24  O2  UNL     1     -15.679  -7.429  11.269  1.00  0.00    -0.272 OA
ATOM     25  H4  UNL     1     -18.591  -8.644  11.212  1.00  0.00     0.168 HD
BRANCH  23  26
HETATM   26  C15 UNL     1     -16.719  -8.589   9.355  1.00  0.00     0.046 C 
HETATM   27  C16 UNL     1     -17.221  -7.771   8.272  1.00  0.00     0.024 C 
HETATM   28  C17 UNL     1     -17.177  -8.460   6.961  1.00  0.00    -0.009 C 
HETATM   29  C18 UNL     1     -15.731  -8.705   6.522  1.00  0.00     0.037 C 
HETATM   30  C22 UNL     1     -17.892  -9.812   6.986  1.00  0.00     0.037 C 
HETATM   31  C19 UNL     1     -15.205  -9.628   7.634  1.00  0.00     0.123 C 
HETATM   32  C20 UNL     1     -15.134  -8.814   8.859  1.00  0.00     0.051 C 
HETATM   33  O3  UNL     1     -15.891 -10.811   7.723  1.00  0.00    -0.381 OA
HETATM   34  C21 UNL     1     -17.229 -10.617   8.066  1.00  0.00     0.123 C 
HETATM   35  C23 UNL     1     -17.378  -9.951   9.352  1.00  0.00     0.051 C 
ENDBRANCH  23  26
ENDBRANCH   2  22
TORSDOF 8
ENDMDL
MODEL 3
REMARK VINA RESULT: -8.167510329      2.053      3.268
REMARK  8 active torsions:
REMARK  status: ('A' for Active; 'I' for Inactive)
REMARK    1  A    between atoms: C2_2  and  C3_3 
REMARK    2  A    between atoms: C6_10  and  C7_11 
REMARK    3  A    between atoms: C7_11  and  C8_12 
REMARK    4  A    between atoms: C8_12  and  N3_15 
REMARK    5  A    between atoms: N3_15  and  C11_17 
REMARK    6  A    between atoms: C11_17  and  O1_18 
REMARK    7  A    between atoms: C12_20  and  N4_22 
REMARK       I    between atoms: N4_22  and  C14_24 
REMARK    8  A    between atoms: C14_24  and  C15_26 
ROOT
HETATM    1  C11 UNL     1     -17.812  -8.527  13.815  1.00  0.00     0.159 C 
HETATM    2  C12 UNL     1     -17.275  -8.297  12.569  1.00  0.00     0.059 C 
HETATM    3  C13 UNL     1     -15.841  -9.360  12.900  1.00  0.00     0.072 C 
ENDROOT
BRANCH   1   4
HETATM    4  N3  UNL     1     -19.181  -8.555  14.147  1.00  0.00    -0.357 N 
ATOM      5  H3  UNL     1     -19.713  -9.422  14.230  1.00  0.00     0.162 HD
BRANCH   4   6
HETATM    6  C8  UNL     1     -19.805  -7.171  14.374  1.00  0.00     0.044 C 
HETATM    7  C9  UNL     1     -19.038  -6.245  15.321  1.00  0.00     0.042 C 
HETATM    8  C10 UNL     1     -20.872  -7.745  15.493  1.00  0.00     0.042 C 
BRANCH   6   9
HETATM    9  C7  UNL     1     -20.650  -6.578  13.430  1.00  0.00     0.020 C 
BRANCH   9  10
HETATM   10  C6  UNL     1     -20.464  -5.119  13.289  1.00  0.00     0.026 A 
HETATM   11  C3  UNL     1     -21.498  -4.252  13.666  1.00  0.00     0.038 A 
HETATM   12  N1  UNL     1     -21.128  -3.045  13.272  1.00  0.00    -0.301 N 
HETATM   13  N2  UNL     1     -19.924  -3.103  12.689  1.00  0.00    -0.284 N 
ATOM     14  H1  UNL     1     -21.678  -2.195  13.395  1.00  0.00     0.187 HD
HETATM   15  C4  UNL     1     -19.140  -2.052  12.019  1.00  0.00     0.179 C 
HETATM   16  C5  UNL     1     -19.511  -4.416  12.709  1.00  0.00     0.132 A 
HETATM   17 CL1  UNL     1     -17.857  -4.864  12.182  1.00  0.00    -0.062 Cl
BRANCH  11  18
HETATM   18  C2  UNL     1     -22.696  -4.544  14.590  1.00  0.00     0.055 C 
HETATM   19  C1  UNL     1     -22.233  -4.294  16.029  1.00  0.00     0.011 C 
ENDBRANCH  11  18
ENDBRANCH   9  10
ENDBRANCH   6   9
ENDBRANCH   4   6
ENDBRANCH   1   4
BRANCH   1  20
HETATM   20  O1  UNL     1     -16.951  -8.841  14.804  1.00  0.00    -0.345 OA
ATOM     21  H1  UNL     1     -16.253  -8.218  14.969  1.00  0.00     0.219 HD
ENDBRANCH   1  20
BRANCH   2  22
HETATM   22  N4  UNL     1     -16.771  -8.090  11.259  1.00  0.00    -0.327 N 
HETATM   23  C14 UNL     1     -17.870  -8.022  10.283  1.00  0.00     0.231 C 
HETATM   24  O2  UNL     1     -18.898  -7.687  10.638  1.00  0.00    -0.272 OA
ATOM     25  H4  UNL     1     -15.781  -8.000  11.026  1.00  0.00     0.168 HD
BRANCH  23  26
HETATM   26  C15 UNL     1     -17.308  -8.499   8.933  1.00  0.00     0.046 C 
HETATM   27  C16 UNL     1     -17.306  -7.552   7.839  1.00  0.00     0.024 C 
HETATM   28  C17 UNL     1     -16.587  -8.054   6.645  1.00  0.00    -0.009 C 
HETATM   29  C18 UNL     1     -15.090  -8.201   6.931  1.00  0.00     0.037 C 
HETATM   30  C22 UNL     1     -17.108  -9.412   6.175  1.00  0.00     0.037 C 
HETATM   31  C19 UNL     1     -15.076  -9.256   8.052  1.00  0.00     0.123 C 
HETATM   32  C20 UNL     1     -15.665  -8.616   9.240  1.00  0.00     0.051 C 
HETATM   33  O3  UNL     1     -15.616 -10.455   7.670  1.00  0.00    -0.381 OA
HETATM   34  C21 UNL     1     -16.968 -10.342   7.347  1.00  0.00     0.123 C 
HETATM   35  C23 UNL     1     -17.766  -9.863   8.466  1.00  0.00     0.051 C 
ENDBRANCH  23  26
ENDBRANCH   2  22
TORSDOF 8
ENDMDL
MODEL 4
REMARK VINA RESULT: -8.147970757      1.338      1.600
REMARK  8 active torsions:
REMARK  status: ('A' for Active; 'I' for Inactive)
REMARK    1  A    between atoms: C2_2  and  C3_3 
REMARK    2  A    between atoms: C6_10  and  C7_11 
REMARK    3  A    between atoms: C7_11  and  C8_12 
REMARK    4  A    between atoms: C8_12  and  N3_15 
REMARK    5  A    between atoms: N3_15  and  C11_17 
REMARK    6  A    between atoms: C11_17  and  O1_18 
REMARK    7  A    between atoms: C12_20  and  N4_22 
REMARK       I    between atoms: N4_22  and  C14_24 
REMARK    8  A    between atoms: C14_24  and  C15_26 
ROOT
HETATM    1  C11 UNL     1     -18.363  -5.590  12.821  1.00  0.00     0.159 C 
HETATM    2  C12 UNL     1     -18.149  -6.709  12.047  1.00  0.00     0.059 C 
HETATM    3  C13 UNL     1     -18.482  -7.832  13.436  1.00  0.00     0.072 C 
ENDROOT
BRANCH   1   4
HETATM    4  N3  UNL     1     -18.878  -4.354  12.383  1.00  0.00    -0.357 N 
ATOM      5  H3  UNL     1     -18.470  -3.825  11.612  1.00  0.00     0.162 HD
BRANCH   4   6
HETATM    6  C8  UNL     1     -20.105  -3.869  13.167  1.00  0.00     0.044 C 
HETATM    7  C9  UNL     1     -21.054  -4.964  13.659  1.00  0.00     0.042 C 
HETATM    8  C10 UNL     1     -20.938  -3.500  11.792  1.00  0.00     0.042 C 
BRANCH   6   9
HETATM    9  C7  UNL     1     -20.108  -2.651  13.856  1.00  0.00     0.020 C 
BRANCH   9  10
HETATM   10  C6  UNL     1     -19.186  -2.610  15.009  1.00  0.00     0.026 A 
HETATM   11  C3  UNL     1     -17.838  -2.289  14.803  1.00  0.00     0.038 A 
HETATM   12  N1  UNL     1     -17.229  -2.498  15.959  1.00  0.00    -0.301 N 
HETATM   13  N2  UNL     1     -18.114  -2.913  16.873  1.00  0.00    -0.284 N 
ATOM     14  H1  UNL     1     -16.233  -2.362  16.127  1.00  0.00     0.187 HD
HETATM   15  C4  UNL     1     -17.909  -3.352  18.264  1.00  0.00     0.179 C 
HETATM   16  C5  UNL     1     -19.348  -2.975  16.266  1.00  0.00     0.132 A 
HETATM   17 CL1  UNL     1     -20.824  -3.314  17.224  1.00  0.00    -0.062 Cl
BRANCH  11  18
HETATM   18  C2  UNL     1     -17.202  -1.575  13.594  1.00  0.00     0.055 C 
HETATM   19  C1  UNL     1     -16.037  -2.446  13.113  1.00  0.00     0.011 C 
ENDBRANCH  11  18
ENDBRANCH   9  10
ENDBRANCH   6   9
ENDBRANCH   4   6
ENDBRANCH   1   4
BRANCH   1  20
HETATM   20  O1  UNL     1     -18.137  -5.709  14.145  1.00  0.00    -0.345 OA
ATOM     21  H1  UNL     1     -17.420  -6.277  14.401  1.00  0.00     0.219 HD
ENDBRANCH   1  20
BRANCH   2  22
HETATM   22  N4  UNL     1     -17.981  -7.847  11.218  1.00  0.00    -0.327 N 
HETATM   23  C14 UNL     1     -16.653  -7.836  10.582  1.00  0.00     0.231 C 
HETATM   24  O2  UNL     1     -15.803  -7.285  11.101  1.00  0.00    -0.272 OA
ATOM     25  H4  UNL     1     -18.684  -8.574  11.080  1.00  0.00     0.168 HD
BRANCH  23  26
HETATM   26  C15 UNL     1     -16.779  -8.603   9.255  1.00  0.00     0.046 C 
HETATM   27  C16 UNL     1     -17.240  -7.865   8.099  1.00  0.00     0.024 C 
HETATM   28  C17 UNL     1     -17.157  -8.649   6.845  1.00  0.00    -0.009 C 
HETATM   29  C18 UNL     1     -15.699  -8.930   6.473  1.00  0.00     0.037 C 
HETATM   30  C22 UNL     1     -17.880  -9.992   6.945  1.00  0.00     0.037 C 
HETATM   31  C19 UNL     1     -15.215  -9.771   7.668  1.00  0.00     0.123 C 
HETATM   32  C20 UNL     1     -15.180  -8.869   8.831  1.00  0.00     0.051 C 
HETATM   33  O3  UNL     1     -15.911 -10.942   7.820  1.00  0.00    -0.381 OA
HETATM   34  C21 UNL     1     -17.258 -10.718   8.103  1.00  0.00     0.123 C 
HETATM   35  C23 UNL     1     -17.446  -9.959   9.331  1.00  0.00     0.051 C 
ENDBRANCH  23  26
ENDBRANCH   2  22
TORSDOF 8
ENDMDL
MODEL 5
REMARK VINA RESULT: -8.023777730      1.737      2.694
REMARK  8 active torsions:
REMARK  status: ('A' for Active; 'I' for Inactive)
REMARK    1  A    between atoms: C2_2  and  C3_3 
REMARK    2  A    between atoms: C6_10  and  C7_11 
REMARK    3  A    between atoms: C7_11  and  C8_12 
REMARK    4  A    between atoms: C8_12  and  N3_15 
REMARK    5  A    between atoms: N3_15  and  C11_17 
REMARK    6  A    between atoms: C11_17  and  O1_18 
REMARK    7  A    between atoms: C12_20  and  N4_22 
REMARK       I    between atoms: N4_22  and  C14_24 
REMARK    8  A    between atoms: C14_24  and  C15_26 
ROOT
HETATM    1  C11 UNL     1     -18.789  -6.349  13.420  1.00  0.00     0.159 C 
HETATM    2  C12 UNL     1     -18.486  -7.330  12.503  1.00  0.00     0.059 C 
HETATM    3  C13 UNL     1     -20.168  -7.325  11.818  1.00  0.00     0.072 C 
ENDROOT
BRANCH   1   4
HETATM    4  N3  UNL     1     -17.909  -5.373  13.927  1.00  0.00    -0.357 N 
ATOM      5  H3  UNL     1     -17.135  -5.597  14.553  1.00  0.00     0.162 HD
BRANCH   4   6
HETATM    6  C8  UNL     1     -18.213  -3.943  13.459  1.00  0.00     0.044 C 
HETATM    7  C9  UNL     1     -18.990  -3.826  12.145  1.00  0.00     0.042 C 
HETATM    8  C10 UNL     1     -16.710  -3.750  12.808  1.00  0.00     0.042 C 
BRANCH   6   9
HETATM    9  C7  UNL     1     -18.292  -2.873  14.356  1.00  0.00     0.020 C 
BRANCH   9  10
HETATM   10  C6  UNL     1     -18.994  -3.193  15.615  1.00  0.00     0.026 A 
HETATM   11  C3  UNL     1     -18.292  -3.150  16.827  1.00  0.00     0.038 A 
HETATM   12  N1  UNL     1     -19.109  -3.644  17.743  1.00  0.00    -0.301 N 
HETATM   13  N2  UNL     1     -20.278  -3.977  17.182  1.00  0.00    -0.284 N 
ATOM     14  H1  UNL     1     -18.881  -3.754  18.731  1.00  0.00     0.187 HD
HETATM   15  C4  UNL     1     -21.459  -4.637  17.764  1.00  0.00     0.179 C 
HETATM   16  C5  UNL     1     -20.198  -3.684  15.839  1.00  0.00     0.132 A 
HETATM   17 CL1  UNL     1     -21.641  -3.820  14.784  1.00  0.00    -0.062 Cl
BRANCH  11  18
HETATM   18  C2  UNL     1     -16.963  -2.433  17.133  1.00  0.00     0.055 C 
HETATM   19  C1  UNL     1     -16.823  -2.365  18.657  1.00  0.00     0.011 C 
ENDBRANCH  11  18
ENDBRANCH   9  10
ENDBRANCH   6   9
ENDBRANCH   4   6
ENDBRANCH   1   4
BRANCH   1  20
HETATM   20  O1  UNL     1     -20.076  -6.254  13.811  1.00  0.00    -0.345 OA
ATOM     21  H1  UNL     1     -20.590  -7.053  13.768  1.00  0.00     0.219 HD
ENDBRANCH   1  20
BRANCH   2  22
HETATM   22  N4  UNL     1     -18.134  -8.301  11.530  1.00  0.00    -0.327 N 
HETATM   23  C14 UNL     1     -16.855  -7.954  10.889  1.00  0.00     0.231 C 
HETATM   24  O2  UNL     1     -16.107  -7.320  11.466  1.00  0.00    -0.272 OA
ATOM     25  H4  UNL     1     -18.691  -9.126  11.305  1.00  0.00     0.168 HD
BRANCH  23  26
HETATM   26  C15 UNL     1     -16.879  -8.557   9.474  1.00  0.00     0.046 C 
HETATM   27  C16 UNL     1     -17.277  -7.690   8.386  1.00  0.00     0.024 C 
HETATM   28  C17 UNL     1     -17.097  -8.316   7.056  1.00  0.00    -0.009 C 
HETATM   29  C18 UNL     1     -15.613  -8.535   6.752  1.00  0.00     0.037 C 
HETATM   30  C22 UNL     1     -17.800  -9.670   6.945  1.00  0.00     0.037 C 
HETATM   31  C19 UNL     1     -15.192  -9.508   7.868  1.00  0.00     0.123 C 
HETATM   32  C20 UNL     1     -15.251  -8.752   9.130  1.00  0.00     0.051 C 
HETATM   33  O3  UNL     1     -15.874 -10.696   7.832  1.00  0.00    -0.381 OA
HETATM   34  C21 UNL     1     -17.241 -10.523   8.048  1.00  0.00     0.123 C 
HETATM   35  C23 UNL     1     -17.523  -9.919   9.342  1.00  0.00     0.051 C 
ENDBRANCH  23  26
ENDBRANCH   2  22
TORSDOF 8
ENDMDL
