MODEL 1
REMARK VINA RESULT: -8.501752601      0.000      0.000
REMARK  7 active torsions:
REMARK  status: ('A' for Active; 'I' for Inactive)
REMARK    1  A    between atoms: C2_2  and  C3_3 
REMARK    2  A    between atoms: C2_2  and  C25_37 
REMARK    3  A    between atoms: C7_7  and  N1_8 
REMARK    4  A    between atoms: N3_13  and  C9_14 
REMARK    5  A    between atoms: C16_23  and  C17_24 
REMARK    6  A    between atoms: C20_29  and  C21_30 
REMARK    7  A    between atoms: C21_30  and  C22_31 
ROOT
HETATM    1  N1  UNL     1       5.193  14.717  28.137  1.00  0.00    -0.341 N 
ATOM      2  H1  UNL     1       4.407  15.331  27.927  1.00  0.00     0.167 HD
HETATM    3  C8  UNL     1       5.501  14.560  29.366  1.00  0.00     0.136 A 
HETATM    4  N2  UNL     1       6.472  13.825  29.935  1.00  0.00    -0.280 N 
ATOM      5  H2  UNL     1       7.142  13.250  29.425  1.00  0.00     0.189 HD
HETATM    6  N3  UNL     1       6.435  13.953  31.250  1.00  0.00    -0.269 N 
HETATM    7  C15 UNL     1       5.430  14.783  31.610  1.00  0.00     0.140 A 
HETATM    8  N4  UNL     1       4.975  15.234  32.794  1.00  0.00    -0.330 N 
ATOM      9  H4  UNL     1       5.412  14.948  33.670  1.00  0.00     0.168 HD
HETATM   10  C16 UNL     1       3.924  16.074  32.783  1.00  0.00     0.086 A 
HETATM   11  N5  UNL     1       3.331  16.465  31.642  1.00  0.00    -0.348 N 
ATOM     12  H5  UNL     1       2.536  17.103  31.676  1.00  0.00     0.167 HD
HETATM   13  C20 UNL     1       3.780  16.019  30.456  1.00  0.00     0.036 A 
HETATM   14  C23 UNL     1       4.837  15.170  30.409  1.00  0.00     0.078 A 
ENDROOT
BRANCH   1  15
HETATM   15  C7  UNL     1       5.846  14.113  27.046  1.00  0.00     0.034 A 
HETATM   16  C6  UNL     1       6.623  14.857  26.186  1.00  0.00     0.029 A 
HETATM   17  C5  UNL     1       7.251  14.246  25.127  1.00  0.00     0.003 A 
HETATM   18  C4  UNL     1       7.106  12.873  24.915  1.00  0.00     0.012 A 
HETATM   19  C3  UNL     1       6.339  12.097  25.751  1.00  0.00    -0.027 A 
HETATM   20  C24 UNL     1       5.726  12.754  26.805  1.00  0.00     0.041 A 
BRANCH  19  21
HETATM   21  C2  UNL     1       6.182  10.673  25.543  1.00  0.00    -0.034 C 
HETATM   22  C1  UNL     1       5.143  10.176  24.919  1.00  0.00     0.022 C 
BRANCH  21  23
HETATM   23  C25 UNL     1       7.197   9.694  26.028  1.00  0.00     0.057 C 
HETATM   24  C26 UNL     1       8.471   9.762  25.164  1.00  0.00     0.037 C 
HETATM   25  C27 UNL     1       6.719   8.265  25.879  1.00  0.00     0.037 C 
HETATM   26 CL1  UNL     1       7.765  10.063  27.675  1.00  0.00    -0.115 Cl
ENDBRANCH  21  23
ENDBRANCH  19  21
ENDBRANCH   1  15
BRANCH   6  27
HETATM   27  C9  UNL     1       7.339  13.297  32.188  1.00  0.00     0.110 C 
HETATM   28  C10 UNL     1       6.523  12.422  33.081  1.00  0.00     0.027 C 
HETATM   29  C11 UNL     1       6.875  12.659  34.544  1.00  0.00     0.002 C 
HETATM   30  C12 UNL     1       8.397  12.605  34.637  1.00  0.00     0.000 C 
HETATM   31  C13 UNL     1       8.955  13.861  34.017  1.00  0.00     0.002 C 
HETATM   32  C14 UNL     1       8.052  14.407  32.936  1.00  0.00     0.027 C 
ENDBRANCH   6  27
BRANCH  13  33
HETATM   33  C21 UNL     1       3.121  16.452  29.212  1.00  0.00     0.175 C 
BRANCH  33  34
HETATM   34  C22 UNL     1       3.547  17.867  28.824  1.00  0.00     0.393 C 
HETATM   35  F1  UNL     1       2.949  18.804  29.644  1.00  0.00    -0.171 F 
HETATM   36  F2  UNL     1       3.100  18.143  27.535  1.00  0.00    -0.171 F 
HETATM   37  F3  UNL     1       4.905  18.041  28.935  1.00  0.00    -0.171 F 
ENDBRANCH  33  34
ENDBRANCH  13  33
BRANCH  10  38
HETATM   38  C17 UNL     1       3.419  16.577  34.111  1.00  0.00     0.045 C 
HETATM   39  C18 UNL     1       1.962  16.267  34.290  1.00  0.00     0.017 C 
HETATM   40  C19 UNL     1       4.206  15.950  35.245  1.00  0.00     0.017 C 
ENDBRANCH  10  38
TORSDOF 7
ENDMDL
MODEL 2
REMARK VINA RESULT: -8.372105938      2.776      5.103
REMARK  7 active torsions:
REMARK  status: ('A' for Active; 'I' for Inactive)
REMARK    1  A    between atoms: C2_2  and  C3_3 
REMARK    2  A    between atoms: C2_2  and  C25_37 
REMARK    3  A    between atoms: C7_7  and  N1_8 
REMARK    4  A    between atoms: N3_13  and  C9_14 
REMARK    5  A    between atoms: C16_23  and  C17_24 
REMARK    6  A    between atoms: C20_29  and  C21_30 
REMARK    7  A    between atoms: C21_30  and  C22_31 
ROOT
HETATM    1  N1  UNL     1       6.333  13.604  28.370  1.00  0.00    -0.341 N 
ATOM      2  H1  UNL     1       6.828  13.040  29.059  1.00  0.00     0.167 HD
HETATM    3  C8  UNL     1       5.680  14.613  28.801  1.00  0.00     0.136 A 
HETATM    4  N2  UNL     1       4.944  15.522  28.139  1.00  0.00    -0.280 N 
ATOM      5  H2  UNL     1       4.798  15.531  27.130  1.00  0.00     0.189 HD
HETATM    6  N3  UNL     1       4.436  16.404  28.982  1.00  0.00    -0.269 N 
HETATM    7  C15 UNL     1       4.817  16.115  30.246  1.00  0.00     0.140 A 
HETATM    8  N4  UNL     1       4.581  16.685  31.443  1.00  0.00    -0.330 N 
ATOM      9  H4  UNL     1       4.001  17.520  31.524  1.00  0.00     0.168 HD
HETATM   10  C16 UNL     1       5.135  16.115  32.529  1.00  0.00     0.086 A 
HETATM   11  N5  UNL     1       5.903  15.015  32.448  1.00  0.00    -0.348 N 
ATOM     12  H5  UNL     1       6.305  14.614  33.295  1.00  0.00     0.167 HD
HETATM   13  C20 UNL     1       6.143  14.441  31.257  1.00  0.00     0.036 A 
HETATM   14  C23 UNL     1       5.609  14.973  30.130  1.00  0.00     0.078 A 
ENDROOT
BRANCH   1  15
HETATM   15  C7  UNL     1       6.429  13.205  27.023  1.00  0.00     0.034 A 
HETATM   16  C6  UNL     1       6.865  14.082  26.055  1.00  0.00     0.029 A 
HETATM   17  C5  UNL     1       6.950  13.670  24.746  1.00  0.00     0.003 A 
HETATM   18  C4  UNL     1       6.597  12.366  24.390  1.00  0.00     0.012 A 
HETATM   19  C3  UNL     1       6.158  11.463  25.328  1.00  0.00    -0.027 A 
HETATM   20  C24 UNL     1       6.088  11.920  26.634  1.00  0.00     0.041 A 
BRANCH  19  21
HETATM   21  C2  UNL     1       5.790  10.109  24.972  1.00  0.00    -0.034 C 
HETATM   22  C1  UNL     1       6.557   9.087  25.257  1.00  0.00     0.022 C 
BRANCH  21  23
HETATM   23  C25 UNL     1       4.516   9.805  24.260  1.00  0.00     0.057 C 
HETATM   24  C26 UNL     1       3.369  10.678  24.806  1.00  0.00     0.037 C 
HETATM   25  C27 UNL     1       4.056   8.384  24.507  1.00  0.00     0.037 C 
HETATM   26 CL1  UNL     1       4.590  10.213  22.527  1.00  0.00    -0.115 Cl
ENDBRANCH  21  23
ENDBRANCH  19  21
ENDBRANCH   1  15
BRANCH   6  27
HETATM   27  C9  UNL     1       3.587  17.533  28.614  1.00  0.00     0.110 C 
HETATM   28  C10 UNL     1       3.111  17.316  27.215  1.00  0.00     0.027 C 
HETATM   29  C11 UNL     1       3.328  18.562  26.368  1.00  0.00     0.002 C 
HETATM   30  C12 UNL     1       2.769  19.733  27.171  1.00  0.00     0.000 C 
HETATM   31  C13 UNL     1       3.711  20.016  28.315  1.00  0.00     0.002 C 
HETATM   32  C14 UNL     1       4.444  18.774  28.762  1.00  0.00     0.027 C 
ENDBRANCH   6  27
BRANCH  13  33
HETATM   33  C21 UNL     1       6.988  13.236  31.180  1.00  0.00     0.175 C 
BRANCH  33  34
HETATM   34  C22 UNL     1       6.221  11.994  31.629  1.00  0.00     0.393 C 
HETATM   35  F1  UNL     1       7.083  11.034  32.122  1.00  0.00    -0.171 F 
HETATM   36  F2  UNL     1       5.594  11.419  30.527  1.00  0.00    -0.171 F 
HETATM   37  F3  UNL     1       5.322  12.280  32.628  1.00  0.00    -0.171 F 
ENDBRANCH  33  34
ENDBRANCH  13  33
BRANCH  10  38
HETATM   38  C17 UNL     1       4.867  16.756  33.867  1.00  0.00     0.045 C 
HETATM   39  C18 UNL     1       3.397  16.968  34.082  1.00  0.00     0.017 C 
HETATM   40  C19 UNL     1       5.415  15.889  34.983  1.00  0.00     0.017 C 
ENDBRANCH  10  38
TORSDOF 7
ENDMDL
MODEL 3
REMARK VINA RESULT: -8.289862739      1.233      1.597
REMARK  7 active torsions:
REMARK  status: ('A' for Active; 'I' for Inactive)
REMARK    1  A    between atoms: C2_2  and  C3_3 
REMARK    2  A    between atoms: C2_2  and  C25_37 
REMARK    3  A    between atoms: C7_7  and  N1_8 
REMARK    4  A    between atoms: N3_13  and  C9_14 
REMARK    5  A    between atoms: C16_23  and  C17_24 
REMARK    6  A    between atoms: C20_29  and  C21_30 
REMARK    7  A    between atoms: C21_30  and  C22_31 
ROOT
HETATM    1  N1  UNL     1       5.320  14.394  27.647  1.00  0.00    -0.341 N 
ATOM      2  H1  UNL     1       4.563  15.017  27.368  1.00  0.00     0.167 HD
HETATM    3  C8  UNL     1       5.586  14.318  28.893  1.00  0.00     0.136 A 
HETATM    4  N2  UNL     1       6.513  13.595  29.545  1.00  0.00    -0.280 N 
ATOM      5  H2  UNL     1       7.177  12.962  29.099  1.00  0.00     0.189 HD
HETATM    6  N3  UNL     1       6.441  13.820  30.845  1.00  0.00    -0.269 N 
HETATM    7  C15 UNL     1       5.457  14.707  31.112  1.00  0.00     0.140 A 
HETATM    8  N4  UNL     1       4.983  15.258  32.245  1.00  0.00    -0.330 N 
ATOM      9  H4  UNL     1       5.384  15.024  33.153  1.00  0.00     0.168 HD
HETATM   10  C16 UNL     1       3.963  16.130  32.140  1.00  0.00     0.086 A 
HETATM   11  N5  UNL     1       3.418  16.455  30.955  1.00  0.00    -0.348 N 
ATOM     12  H5  UNL     1       2.646  17.120  30.917  1.00  0.00     0.167 HD
HETATM   13  C20 UNL     1       3.886  15.909  29.819  1.00  0.00     0.036 A 
HETATM   14  C23 UNL     1       4.913  15.024  29.868  1.00  0.00     0.078 A 
ENDROOT
BRANCH   1  15
HETATM   15  C7  UNL     1       5.984  13.690  26.624  1.00  0.00     0.034 A 
HETATM   16  C6  UNL     1       6.945  14.303  25.852  1.00  0.00     0.029 A 
HETATM   17  C5  UNL     1       7.579  13.597  24.858  1.00  0.00     0.003 A 
HETATM   18  C4  UNL     1       7.255  12.258  24.624  1.00  0.00     0.012 A 
HETATM   19  C3  UNL     1       6.301  11.612  25.374  1.00  0.00    -0.027 A 
HETATM   20  C24 UNL     1       5.688  12.362  26.364  1.00  0.00     0.041 A 
BRANCH  19  21
HETATM   21  C2  UNL     1       5.957  10.225  25.142  1.00  0.00    -0.034 C 
HETATM   22  C1  UNL     1       6.698   9.245  25.593  1.00  0.00     0.022 C 
BRANCH  21  23
HETATM   23  C25 UNL     1       4.738   9.839  24.374  1.00  0.00     0.057 C 
HETATM   24  C26 UNL     1       3.488  10.517  24.966  1.00  0.00     0.037 C 
HETATM   25  C27 UNL     1       4.449   8.356  24.485  1.00  0.00     0.037 C 
HETATM   26 CL1  UNL     1       4.788  10.406  22.687  1.00  0.00    -0.115 Cl
ENDBRANCH  21  23
ENDBRANCH  19  21
ENDBRANCH   1  15
BRANCH   6  27
HETATM   27  C9  UNL     1       7.294  13.205  31.857  1.00  0.00     0.110 C 
HETATM   28  C10 UNL     1       6.440  12.320  32.705  1.00  0.00     0.027 C 
HETATM   29  C11 UNL     1       6.679  12.590  34.184  1.00  0.00     0.002 C 
HETATM   30  C12 UNL     1       8.191  12.581  34.387  1.00  0.00     0.000 C 
HETATM   31  C13 UNL     1       8.758  13.844  33.786  1.00  0.00     0.002 C 
HETATM   32  C14 UNL     1       7.920  14.346  32.634  1.00  0.00     0.027 C 
ENDBRANCH   6  27
BRANCH  13  33
HETATM   33  C21 UNL     1       3.280  16.271  28.527  1.00  0.00     0.175 C 
BRANCH  33  34
HETATM   34  C22 UNL     1       3.759  17.643  28.056  1.00  0.00     0.393 C 
HETATM   35  F1  UNL     1       3.070  18.653  28.699  1.00  0.00    -0.171 F 
HETATM   36  F2  UNL     1       3.477  17.787  26.701  1.00  0.00    -0.171 F 
HETATM   37  F3  UNL     1       5.094  17.836  28.317  1.00  0.00    -0.171 F 
ENDBRANCH  33  34
ENDBRANCH  13  33
BRANCH  10  38
HETATM   38  C17 UNL     1       3.437  16.746  33.411  1.00  0.00     0.045 C 
HETATM   39  C18 UNL     1       1.939  16.834  33.391  1.00  0.00     0.017 C 
HETATM   40  C19 UNL     1       3.873  15.928  34.611  1.00  0.00     0.017 C 
ENDBRANCH  10  38
TORSDOF 7
ENDMDL
MODEL 4
REMARK VINA RESULT: -8.269524154      1.938      2.795
REMARK  7 active torsions:
REMARK  status: ('A' for Active; 'I' for Inactive)
REMARK    1  A    between atoms: C2_2  and  C3_3 
REMARK    2  A    between atoms: C2_2  and  C25_37 
REMARK    3  A    between atoms: C7_7  and  N1_8 
REMARK    4  A    between atoms: N3_13  and  C9_14 
REMARK    5  A    between atoms: C16_23  and  C17_24 
REMARK    6  A    between atoms: C20_29  and  C21_30 
REMARK    7  A    between atoms: C21_30  and  C22_31 
ROOT
HETATM    1  N1  UNL     1       5.629  16.188  26.546  1.00  0.00    -0.341 N 
ATOM      2  H1  UNL     1       5.251  17.068  26.197  1.00  0.00     0.167 HD
HETATM    3  C8  UNL     1       5.379  15.886  27.761  1.00  0.00     0.136 A 
HETATM    4  N2  UNL     1       5.738  14.812  28.484  1.00  0.00    -0.280 N 
ATOM      5  H2  UNL     1       6.299  14.035  28.134  1.00  0.00     0.189 HD
HETATM    6  N3  UNL     1       5.261  14.904  29.713  1.00  0.00    -0.269 N 
HETATM    7  C15 UNL     1       4.560  16.050  29.857  1.00  0.00     0.140 A 
HETATM    8  N4  UNL     1       3.888  16.608  30.881  1.00  0.00    -0.330 N 
ATOM      9  H4  UNL     1       3.835  16.147  31.790  1.00  0.00     0.168 HD
HETATM   10  C16 UNL     1       3.289  17.794  30.667  1.00  0.00     0.086 A 
HETATM   11  N5  UNL     1       3.345  18.421  29.479  1.00  0.00    -0.348 N 
ATOM     12  H5  UNL     1       2.877  19.319  29.357  1.00  0.00     0.167 HD
HETATM   13  C20 UNL     1       4.014  17.870  28.452  1.00  0.00     0.036 A 
HETATM   14  C23 UNL     1       4.636  16.676  28.613  1.00  0.00     0.078 A 
ENDROOT
BRANCH   1  15
HETATM   15  C7  UNL     1       6.382  15.409  25.647  1.00  0.00     0.034 A 
HETATM   16  C6  UNL     1       7.062  15.994  24.602  1.00  0.00     0.029 A 
HETATM   17  C5  UNL     1       7.790  15.214  23.736  1.00  0.00     0.003 A 
HETATM   18  C4  UNL     1       7.846  13.829  23.907  1.00  0.00     0.012 A 
HETATM   19  C3  UNL     1       7.180  13.209  24.938  1.00  0.00    -0.027 A 
HETATM   20  C24 UNL     1       6.459  14.033  25.786  1.00  0.00     0.041 A 
BRANCH  19  21
HETATM   21  C2  UNL     1       7.230  11.774  25.127  1.00  0.00    -0.034 C 
HETATM   22  C1  UNL     1       8.363  11.117  25.132  1.00  0.00     0.022 C 
BRANCH  21  23
HETATM   23  C25 UNL     1       5.993  10.967  25.325  1.00  0.00     0.057 C 
HETATM   24  C26 UNL     1       6.342   9.478  25.511  1.00  0.00     0.037 C 
HETATM   25  C27 UNL     1       5.100  10.992  24.102  1.00  0.00     0.037 C 
HETATM   26 CL1  UNL     1       5.127  11.404  26.819  1.00  0.00    -0.115 Cl
ENDBRANCH  21  23
ENDBRANCH  19  21
ENDBRANCH   1  15
BRANCH   6  27
HETATM   27  C9  UNL     1       5.454  13.917  30.770  1.00  0.00     0.110 C 
HETATM   28  C10 UNL     1       6.368  14.507  31.792  1.00  0.00     0.027 C 
HETATM   29  C11 UNL     1       7.495  13.542  32.137  1.00  0.00     0.002 C 
HETATM   30  C12 UNL     1       6.838  12.194  32.416  1.00  0.00     0.000 C 
HETATM   31  C13 UNL     1       6.374  11.611  31.105  1.00  0.00     0.002 C 
HETATM   32  C14 UNL     1       6.032  12.686  30.100  1.00  0.00     0.027 C 
ENDBRANCH   6  27
BRANCH  13  33
HETATM   33  C21 UNL     1       4.067  18.565  27.154  1.00  0.00     0.175 C 
BRANCH  33  34
HETATM   34  C22 UNL     1       5.064  19.722  27.187  1.00  0.00     0.393 C 
HETATM   35  F1  UNL     1       4.411  20.934  27.292  1.00  0.00    -0.171 F 
HETATM   36  F2  UNL     1       5.758  19.762  25.980  1.00  0.00    -0.171 F 
HETATM   37  F3  UNL     1       5.920  19.630  28.257  1.00  0.00    -0.171 F 
ENDBRANCH  33  34
ENDBRANCH  13  33
BRANCH  10  38
HETATM   38  C17 UNL     1       2.539  18.415  31.818  1.00  0.00     0.045 C 
HETATM   39  C18 UNL     1       2.063  19.796  31.473  1.00  0.00     0.017 C 
HETATM   40  C19 UNL     1       1.347  17.555  32.193  1.00  0.00     0.017 C 
ENDBRANCH  10  38
TORSDOF 7
ENDMDL
MODEL 5
REMARK VINA RESULT: -8.233635397      2.813      4.933
REMARK  7 active torsions:
REMARK  status: ('A' for Active; 'I' for Inactive)
REMARK    1  A    between atoms: C2_2  and  C3_3 
REMARK    2  A    between atoms: C2_2  and  C25_37 
REMARK    3  A    between atoms: C7_7  and  N1_8 
REMARK    4  A    between atoms: N3_13  and  C9_14 
REMARK    5  A    between atoms: C16_23  and  C17_24 
REMARK    6  A    between atoms: C20_29  and  C21_30 
REMARK    7  A    between atoms: C21_30  and  C22_31 
ROOT
HETATM    1  N1  UNL     1       6.241  14.268  30.337  1.00  0.00    -0.341 N 
ATOM      2  H1  UNL     1       7.009  13.848  30.859  1.00  0.00     0.167 HD
HETATM    3  C8  UNL     1       5.330  14.856  31.010  1.00  0.00     0.136 A 
HETATM    4  N2  UNL     1       4.216  15.489  30.603  1.00  0.00    -0.280 N 
ATOM      5  H2  UNL     1       3.928  15.594  29.631  1.00  0.00     0.189 HD
HETATM    6  N3  UNL     1       3.547  15.958  31.643  1.00  0.00    -0.269 N 
HETATM    7  C15 UNL     1       4.194  15.654  32.790  1.00  0.00     0.140 A 
HETATM    8  N4  UNL     1       3.944  15.893  34.091  1.00  0.00    -0.330 N 
ATOM      9  H4  UNL     1       3.113  16.407  34.382  1.00  0.00     0.168 HD
HETATM   10  C16 UNL     1       4.828  15.431  34.994  1.00  0.00     0.086 A 
HETATM   11  N5  UNL     1       5.931  14.752  34.636  1.00  0.00    -0.348 N 
ATOM     12  H5  UNL     1       6.577  14.418  35.351  1.00  0.00     0.167 HD
HETATM   13  C20 UNL     1       6.187  14.509  33.339  1.00  0.00     0.036 A 
HETATM   14  C23 UNL     1       5.329  14.952  32.386  1.00  0.00     0.078 A 
ENDROOT
BRANCH   1  15
HETATM   15  C7  UNL     1       6.276  14.151  28.935  1.00  0.00     0.034 A 
HETATM   16  C6  UNL     1       6.475  15.255  28.137  1.00  0.00     0.029 A 
HETATM   17  C5  UNL     1       6.505  15.117  26.770  1.00  0.00     0.003 A 
HETATM   18  C4  UNL     1       6.335  13.861  26.181  1.00  0.00     0.012 A 
HETATM   19  C3  UNL     1       6.134  12.735  26.945  1.00  0.00    -0.027 A 
HETATM   20  C24 UNL     1       6.112  12.921  28.318  1.00  0.00     0.041 A 
BRANCH  19  21
HETATM   21  C2  UNL     1       5.958  11.428  26.348  1.00  0.00    -0.034 C 
HETATM   22  C1  UNL     1       4.811  11.048  25.844  1.00  0.00     0.022 C 
BRANCH  21  23
HETATM   23  C25 UNL     1       7.076  10.444  26.275  1.00  0.00     0.057 C 
HETATM   24  C26 UNL     1       8.190  10.957  25.343  1.00  0.00     0.037 C 
HETATM   25  C27 UNL     1       6.636   9.136  25.650  1.00  0.00     0.037 C 
HETATM   26 CL1  UNL     1       7.886  10.217  27.845  1.00  0.00    -0.115 Cl
ENDBRANCH  21  23
ENDBRANCH  19  21
ENDBRANCH   1  15
BRANCH   6  27
HETATM   27  C9  UNL     1       2.292  16.699  31.575  1.00  0.00     0.110 C 
HETATM   28  C10 UNL     1       2.594  18.141  31.817  1.00  0.00     0.027 C 
HETATM   29  C11 UNL     1       1.659  18.723  32.868  1.00  0.00     0.002 C 
HETATM   30  C12 UNL     1       0.245  18.317  32.462  1.00  0.00     0.000 C 
HETATM   31  C13 UNL     1       0.078  16.843  32.736  1.00  0.00     0.002 C 
HETATM   32  C14 UNL     1       1.387  16.097  32.632  1.00  0.00     0.027 C 
ENDBRANCH   6  27
BRANCH  13  33
HETATM   33  C21 UNL     1       7.400  13.765  32.957  1.00  0.00     0.175 C 
BRANCH  33  34
HETATM   34  C22 UNL     1       7.311  12.303  33.392  1.00  0.00     0.393 C 
HETATM   35  F1  UNL     1       6.304  12.124  34.319  1.00  0.00    -0.171 F 
HETATM   36  F2  UNL     1       8.494  11.943  34.034  1.00  0.00    -0.171 F 
HETATM   37  F3  UNL     1       7.039  11.470  32.334  1.00  0.00    -0.171 F 
ENDBRANCH  33  34
ENDBRANCH  13  33
BRANCH  10  38
HETATM   38  C17 UNL     1       4.544  15.701  36.450  1.00  0.00     0.045 C 
HETATM   39  C18 UNL     1       3.068  15.745  36.716  1.00  0.00     0.017 C 
HETATM   40  C19 UNL     1       5.174  14.627  37.315  1.00  0.00     0.017 C 
ENDBRANCH  10  38
TORSDOF 7
ENDMDL
