MODEL 1
REMARK VINA RESULT: -6.284745267      0.000      0.000
REMARK  8 active torsions:
REMARK  status: ('A' for Active; 'I' for Inactive)
REMARK    1  A    between atoms: N1_1  and  C1_4 
REMARK    2  A    between atoms: N4_13  and  C6_14 
REMARK    3  A    between atoms: C6_14  and  C7_15 
REMARK    4  A    between atoms: C7_15  and  O1_16 
REMARK    5  A    between atoms: C8_19  and  N6_20 
REMARK    6  A    between atoms: N6_20  and  C9_22 
REMARK    7  A    between atoms: C9_22  and  C10_23 
REMARK    8  A    between atoms: C10_23  and  N7_24 
ROOT
HETATM    1  C1  UNL     1      -8.465  12.392  20.079  1.00  0.00     0.160 A 
HETATM    2  N2  UNL     1      -7.819  11.977  18.983  1.00  0.00    -0.281 N 
ATOM      3  H2  UNL     1      -8.060  11.076  18.570  1.00  0.00     0.188 HD
HETATM    4  N3  UNL     1      -6.883  12.706  18.434  1.00  0.00    -0.282 N 
ATOM      5  H3  UNL     1      -6.416  12.352  17.599  1.00  0.00     0.188 HD
HETATM    6  C2  UNL     1      -6.510  13.908  18.925  1.00  0.00     0.143 A 
HETATM    7  C3  UNL     1      -5.498  14.578  18.271  1.00  0.00     0.053 A 
HETATM    8  C4  UNL     1      -5.090  15.788  18.759  1.00  0.00     0.023 A 
HETATM    9  C5  UNL     1      -5.728  16.237  19.870  1.00  0.00     0.111 A 
HETATM   10  N4  UNL     1      -6.746  15.550  20.517  1.00  0.00    -0.291 N 
HETATM   11  N5  UNL     1      -7.144  14.384  20.052  1.00  0.00    -0.217 N 
HETATM   12  C8  UNL     1      -8.110  13.630  20.618  1.00  0.00     0.174 A 
ENDROOT
BRANCH  12  13
HETATM   13  N6  UNL     1      -8.694  14.013  21.640  1.00  0.00    -0.350 N 
ATOM     14  H6  UNL     1      -8.021  14.292  22.355  1.00  0.00     0.166 HD
BRANCH  13  15
HETATM   15  C9  UNL     1     -10.002  14.177  22.106  1.00  0.00     0.092 C 
BRANCH  15  16
HETATM   16  C10 UNL     1     -10.498  15.523  22.472  1.00  0.00     0.319 C 
BRANCH  16  17
HETATM   17  N7  UNL     1     -11.466  16.119  21.577  1.00  0.00     0.120 N 
HETATM   18  C11 UNL     1     -11.637  17.495  22.080  1.00  0.00     0.302 C 
HETATM   19  C12 UNL     1     -10.706  18.339  21.288  1.00  0.00     0.264 C 
HETATM   20  N8  UNL     1      -9.949  17.448  20.476  1.00  0.00    -0.047 N 
HETATM   21  C13 UNL     1     -10.828  16.310  20.286  1.00  0.00     0.503 C 
ATOM     22  H82 UNL     1      -9.606  17.861  19.609  1.00  0.00     0.279 HD
ATOM     23  H81 UNL     1      -9.032  17.211  20.856  1.00  0.00     0.279 HD
ENDBRANCH  16  17
ENDBRANCH  15  16
ENDBRANCH  13  15
ENDBRANCH  12  13
BRANCH   1  24
HETATM   24  N1  UNL     1      -9.385  11.637  20.601  1.00  0.00    -0.381 N 
ATOM     25  H12 UNL     1      -9.610  10.712  20.237  1.00  0.00     0.157 HD
ATOM     26  H11 UNL     1      -9.912  11.975  21.405  1.00  0.00     0.157 HD
ENDBRANCH   1  24
BRANCH  10  27
HETATM   27  C6  UNL     1      -7.293  16.160  21.679  1.00  0.00     0.175 C 
BRANCH  27  28
HETATM   28  C7  UNL     1      -6.538  17.465  21.869  1.00  0.00     0.185 C 
BRANCH  28  29
HETATM   29  O1  UNL     1      -7.346  18.563  21.508  1.00  0.00    -0.399 OA
ATOM     30  H1  UNL     1      -7.074  18.919  20.671  1.00  0.00     0.209 HD
ENDBRANCH  28  29
ENDBRANCH  27  28
ENDBRANCH  10  27
TORSDOF 8
ENDMDL
MODEL 2
REMARK VINA RESULT: -5.980369124      1.296      1.386
REMARK  8 active torsions:
REMARK  status: ('A' for Active; 'I' for Inactive)
REMARK    1  A    between atoms: N1_1  and  C1_4 
REMARK    2  A    between atoms: N4_13  and  C6_14 
REMARK    3  A    between atoms: C6_14  and  C7_15 
REMARK    4  A    between atoms: C7_15  and  O1_16 
REMARK    5  A    between atoms: C8_19  and  N6_20 
REMARK    6  A    between atoms: N6_20  and  C9_22 
REMARK    7  A    between atoms: C9_22  and  C10_23 
REMARK    8  A    between atoms: C10_23  and  N7_24 
ROOT
HETATM    1  C1  UNL     1      -8.575  12.194  19.937  1.00  0.00     0.160 A 
HETATM    2  N2  UNL     1      -7.746  12.071  18.894  1.00  0.00    -0.281 N 
ATOM      3  H2  UNL     1      -7.807  11.245  18.299  1.00  0.00     0.188 HD
HETATM    4  N3  UNL     1      -6.858  12.993  18.624  1.00  0.00    -0.282 N 
ATOM      5  H3  UNL     1      -6.246  12.861  17.820  1.00  0.00     0.188 HD
HETATM    6  C2  UNL     1      -6.719  14.113  19.367  1.00  0.00     0.143 A 
HETATM    7  C3  UNL     1      -5.735  15.006  18.997  1.00  0.00     0.053 A 
HETATM    8  C4  UNL     1      -5.563  16.138  19.743  1.00  0.00     0.023 A 
HETATM    9  C5  UNL     1      -6.390  16.291  20.809  1.00  0.00     0.111 A 
HETATM   10  N4  UNL     1      -7.377  15.383  21.168  1.00  0.00    -0.291 N 
HETATM   11  N5  UNL     1      -7.548  14.290  20.453  1.00  0.00    -0.217 N 
HETATM   12  C8  UNL     1      -8.464  13.337  20.730  1.00  0.00     0.174 A 
ENDROOT
BRANCH  12  13
HETATM   13  N6  UNL     1      -9.219  13.450  21.705  1.00  0.00    -0.350 N 
ATOM     14  H6  UNL     1      -8.733  13.197  22.566  1.00  0.00     0.166 HD
BRANCH  13  15
HETATM   15  C9  UNL     1     -10.539  13.820  21.977  1.00  0.00     0.092 C 
BRANCH  15  16
HETATM   16  C10 UNL     1     -10.853  15.209  22.384  1.00  0.00     0.319 C 
BRANCH  16  17
HETATM   17  N7  UNL     1     -11.737  15.952  21.511  1.00  0.00     0.120 N 
HETATM   18  C11 UNL     1     -11.721  17.325  22.051  1.00  0.00     0.302 C 
HETATM   19  C12 UNL     1     -10.689  18.058  21.275  1.00  0.00     0.264 C 
HETATM   20  N8  UNL     1     -10.060  17.096  20.434  1.00  0.00    -0.047 N 
HETATM   21  C13 UNL     1     -11.083  16.091  20.221  1.00  0.00     0.503 C 
ATOM     22  H82 UNL     1      -9.668  17.483  19.575  1.00  0.00     0.279 HD
ATOM     23  H81 UNL     1      -9.182  16.729  20.802  1.00  0.00     0.279 HD
ENDBRANCH  16  17
ENDBRANCH  15  16
ENDBRANCH  13  15
ENDBRANCH  12  13
BRANCH   1  24
HETATM   24  N1  UNL     1      -9.439  11.254  20.178  1.00  0.00    -0.381 N 
ATOM     25  H12 UNL     1     -10.304  11.420  20.690  1.00  0.00     0.157 HD
ATOM     26  H11 UNL     1      -9.253  10.307  19.849  1.00  0.00     0.157 HD
ENDBRANCH   1  24
BRANCH  10  27
HETATM   27  C6  UNL     1      -8.144  15.694  22.325  1.00  0.00     0.175 C 
BRANCH  27  28
HETATM   28  C7  UNL     1      -7.316  15.243  23.517  1.00  0.00     0.185 C 
BRANCH  28  29
HETATM   29  O1  UNL     1      -8.120  14.557  24.449  1.00  0.00    -0.399 OA
ATOM     30  H1  UNL     1      -7.664  13.797  24.790  1.00  0.00     0.209 HD
ENDBRANCH  28  29
ENDBRANCH  27  28
ENDBRANCH  10  27
TORSDOF 8
ENDMDL
MODEL 3
REMARK VINA RESULT: -5.515779248      1.502      5.165
REMARK  8 active torsions:
REMARK  status: ('A' for Active; 'I' for Inactive)
REMARK    1  A    between atoms: N1_1  and  C1_4 
REMARK    2  A    between atoms: N4_13  and  C6_14 
REMARK    3  A    between atoms: C6_14  and  C7_15 
REMARK    4  A    between atoms: C7_15  and  O1_16 
REMARK    5  A    between atoms: C8_19  and  N6_20 
REMARK    6  A    between atoms: N6_20  and  C9_22 
REMARK    7  A    between atoms: C9_22  and  C10_23 
REMARK    8  A    between atoms: C10_23  and  N7_24 
ROOT
HETATM    1  C1  UNL     1      -9.976  13.250  21.147  1.00  0.00     0.160 A 
HETATM    2  N2  UNL     1     -11.067  13.100  21.906  1.00  0.00    -0.281 N 
ATOM      3  H2  UNL     1     -11.401  12.161  22.126  1.00  0.00     0.188 HD
HETATM    4  N3  UNL     1     -11.715  14.136  22.371  1.00  0.00    -0.282 N 
ATOM      5  H3  UNL     1     -12.542  13.977  22.947  1.00  0.00     0.188 HD
HETATM    6  C2  UNL     1     -11.334  15.409  22.122  1.00  0.00     0.143 A 
HETATM    7  C3  UNL     1     -12.107  16.420  22.651  1.00  0.00     0.053 A 
HETATM    8  C4  UNL     1     -11.752  17.716  22.397  1.00  0.00     0.023 A 
HETATM    9  C5  UNL     1     -10.648  17.902  21.630  1.00  0.00     0.111 A 
HETATM   10  N4  UNL     1      -9.880  16.871  21.106  1.00  0.00    -0.291 N 
HETATM   11  N5  UNL     1     -10.216  15.620  21.345  1.00  0.00    -0.217 N 
HETATM   12  C8  UNL     1      -9.548  14.549  20.867  1.00  0.00     0.174 A 
ENDROOT
BRANCH  12  13
HETATM   13  N6  UNL     1      -8.547  14.695  20.152  1.00  0.00    -0.350 N 
ATOM     14  H6  UNL     1      -8.750  15.322  19.373  1.00  0.00     0.166 HD
BRANCH  13  15
HETATM   15  C9  UNL     1      -7.221  14.256  20.097  1.00  0.00     0.092 C 
BRANCH  15  16
HETATM   16  C10 UNL     1      -6.117  15.236  19.989  1.00  0.00     0.319 C 
BRANCH  16  17
HETATM   17  N7  UNL     1      -5.913  15.838  18.689  1.00  0.00     0.120 N 
HETATM   18  C11 UNL     1      -4.477  16.174  18.659  1.00  0.00     0.302 C 
HETATM   19  C12 UNL     1      -3.802  15.029  17.997  1.00  0.00     0.264 C 
HETATM   20  N8  UNL     1      -4.802  14.036  17.793  1.00  0.00    -0.047 N 
HETATM   21  C13 UNL     1      -6.034  14.793  17.686  1.00  0.00     0.503 C 
ATOM     22  H82 UNL     1      -4.622  13.416  17.004  1.00  0.00     0.279 HD
ATOM     23  H81 UNL     1      -4.819  13.307  18.506  1.00  0.00     0.279 HD
ENDBRANCH  16  17
ENDBRANCH  15  16
ENDBRANCH  13  15
ENDBRANCH  12  13
BRANCH   1  24
HETATM   24  N1  UNL     1      -9.363  12.197  20.698  1.00  0.00    -0.381 N 
ATOM     25  H12 UNL     1      -9.478  11.858  19.743  1.00  0.00     0.157 HD
ATOM     26  H11 UNL     1      -8.742  11.677  21.317  1.00  0.00     0.157 HD
ENDBRANCH   1  24
BRANCH  10  27
HETATM   27  C6  UNL     1      -8.763  17.245  20.308  1.00  0.00     0.175 C 
BRANCH  27  28
HETATM   28  C7  UNL     1      -7.874  18.098  21.197  1.00  0.00     0.185 C 
BRANCH  28  29
HETATM   29  O1  UNL     1      -7.653  19.362  20.613  1.00  0.00    -0.399 OA
ATOM     30  H1  UNL     1      -6.783  19.680  20.821  1.00  0.00     0.209 HD
ENDBRANCH  28  29
ENDBRANCH  27  28
ENDBRANCH  10  27
TORSDOF 8
ENDMDL
MODEL 4
REMARK VINA RESULT: -5.386185447      2.688      3.849
REMARK  8 active torsions:
REMARK  status: ('A' for Active; 'I' for Inactive)
REMARK    1  A    between atoms: N1_1  and  C1_4 
REMARK    2  A    between atoms: N4_13  and  C6_14 
REMARK    3  A    between atoms: C6_14  and  C7_15 
REMARK    4  A    between atoms: C7_15  and  O1_16 
REMARK    5  A    between atoms: C8_19  and  N6_20 
REMARK    6  A    between atoms: N6_20  and  C9_22 
REMARK    7  A    between atoms: C9_22  and  C10_23 
REMARK    8  A    between atoms: C10_23  and  N7_24 
ROOT
HETATM    1  C1  UNL     1      -8.703  13.136  20.921  1.00  0.00     0.160 A 
HETATM    2  N2  UNL     1      -8.266  12.397  19.894  1.00  0.00    -0.281 N 
ATOM      3  H2  UNL     1      -8.683  11.482  19.722  1.00  0.00     0.188 HD
HETATM    4  N3  UNL     1      -7.315  12.829  19.108  1.00  0.00    -0.282 N 
ATOM      5  H3  UNL     1      -7.012  12.235  18.336  1.00  0.00     0.188 HD
HETATM    6  C2  UNL     1      -6.716  14.029  19.275  1.00  0.00     0.143 A 
HETATM    7  C3  UNL     1      -5.712  14.368  18.393  1.00  0.00     0.053 A 
HETATM    8  C4  UNL     1      -5.079  15.570  18.552  1.00  0.00     0.023 A 
HETATM    9  C5  UNL     1      -5.500  16.343  19.586  1.00  0.00     0.111 A 
HETATM   10  N4  UNL     1      -6.514  15.986  20.464  1.00  0.00    -0.291 N 
HETATM   11  N5  UNL     1      -7.129  14.830  20.317  1.00  0.00    -0.217 N 
HETATM   12  C8  UNL     1      -8.111  14.383  21.128  1.00  0.00     0.174 A 
ENDROOT
BRANCH  12  13
HETATM   13  N6  UNL     1      -8.500  15.065  22.085  1.00  0.00    -0.350 N 
ATOM     14  H6  UNL     1      -8.986  15.901  21.757  1.00  0.00     0.166 HD
BRANCH  13  15
HETATM   15  C9  UNL     1      -8.472  15.031  23.482  1.00  0.00     0.092 C 
BRANCH  15  16
HETATM   16  C10 UNL     1      -7.271  14.532  24.190  1.00  0.00     0.319 C 
BRANCH  16  17
HETATM   17  N7  UNL     1      -7.266  14.673  25.630  1.00  0.00     0.120 N 
HETATM   18  C11 UNL     1      -7.319  13.289  26.137  1.00  0.00     0.302 C 
HETATM   19  C12 UNL     1      -5.910  12.890  26.387  1.00  0.00     0.264 C 
HETATM   20  N8  UNL     1      -5.099  13.957  25.906  1.00  0.00    -0.047 N 
HETATM   21  C13 UNL     1      -5.946  15.128  26.033  1.00  0.00     0.503 C 
ATOM     22  H82 UNL     1      -4.197  14.041  26.374  1.00  0.00     0.279 HD
ATOM     23  H81 UNL     1      -4.726  13.810  24.968  1.00  0.00     0.279 HD
ENDBRANCH  16  17
ENDBRANCH  15  16
ENDBRANCH  13  15
ENDBRANCH  12  13
BRANCH   1  24
HETATM   24  N1  UNL     1      -9.645  12.671  21.685  1.00  0.00    -0.381 N 
ATOM     25  H12 UNL     1     -10.634  12.843  21.506  1.00  0.00     0.157 HD
ATOM     26  H11 UNL     1      -9.397  12.114  22.502  1.00  0.00     0.157 HD
ENDBRANCH   1  24
BRANCH  10  27
HETATM   27  C6  UNL     1      -6.818  16.910  21.502  1.00  0.00     0.175 C 
BRANCH  27  28
HETATM   28  C7  UNL     1      -7.559  18.061  20.843  1.00  0.00     0.185 C 
BRANCH  28  29
HETATM   29  O1  UNL     1      -8.945  17.803  20.807  1.00  0.00    -0.399 OA
ATOM     30  H1  UNL     1      -9.429  18.598  20.620  1.00  0.00     0.209 HD
ENDBRANCH  28  29
ENDBRANCH  27  28
ENDBRANCH  10  27
TORSDOF 8
ENDMDL
MODEL 5
REMARK VINA RESULT: -5.086463181      1.709      3.498
REMARK  8 active torsions:
REMARK  status: ('A' for Active; 'I' for Inactive)
REMARK    1  A    between atoms: N1_1  and  C1_4 
REMARK    2  A    between atoms: N4_13  and  C6_14 
REMARK    3  A    between atoms: C6_14  and  C7_15 
REMARK    4  A    between atoms: C7_15  and  O1_16 
REMARK    5  A    between atoms: C8_19  and  N6_20 
REMARK    6  A    between atoms: N6_20  and  C9_22 
REMARK    7  A    between atoms: C9_22  and  C10_23 
REMARK    8  A    between atoms: C10_23  and  N7_24 
ROOT
HETATM    1  C1  UNL     1      -5.853  15.211  18.950  1.00  0.00     0.160 A 
HETATM    2  N2  UNL     1      -5.899  14.141  18.147  1.00  0.00    -0.281 N 
ATOM      3  H2  UNL     1      -5.301  14.107  17.322  1.00  0.00     0.188 HD
HETATM    4  N3  UNL     1      -6.699  13.139  18.403  1.00  0.00    -0.282 N 
ATOM      5  H3  UNL     1      -6.702  12.342  17.765  1.00  0.00     0.188 HD
HETATM    6  C2  UNL     1      -7.520  13.113  19.475  1.00  0.00     0.143 A 
HETATM    7  C3  UNL     1      -8.332  12.010  19.631  1.00  0.00     0.053 A 
HETATM    8  C4  UNL     1      -9.185  11.969  20.698  1.00  0.00     0.023 A 
HETATM    9  C5  UNL     1      -9.161  13.040  21.533  1.00  0.00     0.111 A 
HETATM   10  N4  UNL     1      -8.336  14.143  21.362  1.00  0.00    -0.291 N 
HETATM   11  N5  UNL     1      -7.512  14.190  20.335  1.00  0.00    -0.217 N 
HETATM   12  C8  UNL     1      -6.686  15.224  20.070  1.00  0.00     0.174 A 
ENDROOT
BRANCH  12  13
HETATM   13  N6  UNL     1      -6.659  16.217  20.809  1.00  0.00    -0.350 N 
ATOM     14  H6  UNL     1      -6.121  16.022  21.654  1.00  0.00     0.166 HD
BRANCH  13  15
HETATM   15  C9  UNL     1      -7.146  17.527  20.829  1.00  0.00     0.092 C 
BRANCH  15  16
HETATM   16  C10 UNL     1      -8.452  17.825  21.461  1.00  0.00     0.319 C 
BRANCH  16  17
HETATM   17  N7  UNL     1      -9.524  18.217  20.571  1.00  0.00     0.120 N 
HETATM   18  C11 UNL     1     -10.049  16.943  20.043  1.00  0.00     0.302 C 
HETATM   19  C12 UNL     1     -11.195  16.579  20.915  1.00  0.00     0.264 C 
HETATM   20  N8  UNL     1     -11.218  17.538  21.968  1.00  0.00    -0.047 N 
HETATM   21  C13 UNL     1     -10.620  18.721  21.381  1.00  0.00     0.503 C 
ATOM     22  H82 UNL     1     -12.141  17.693  22.373  1.00  0.00     0.279 HD
ATOM     23  H81 UNL     1     -10.770  17.225  22.829  1.00  0.00     0.279 HD
ENDBRANCH  16  17
ENDBRANCH  15  16
ENDBRANCH  13  15
ENDBRANCH  12  13
BRANCH   1  24
HETATM   24  N1  UNL     1      -5.052  16.191  18.660  1.00  0.00    -0.381 N 
ATOM     25  H12 UNL     1      -4.998  16.602  17.729  1.00  0.00     0.157 HD
ATOM     26  H11 UNL     1      -4.443  16.570  19.385  1.00  0.00     0.157 HD
ENDBRANCH   1  24
BRANCH  10  27
HETATM   27  C6  UNL     1      -8.453  15.185  22.323  1.00  0.00     0.175 C 
BRANCH  27  28
HETATM   28  C7  UNL     1      -7.572  14.783  23.494  1.00  0.00     0.185 C 
BRANCH  28  29
HETATM   29  O1  UNL     1      -8.343  14.617  24.662  1.00  0.00    -0.399 OA
ATOM     30  H1  UNL     1      -9.248  14.854  24.503  1.00  0.00     0.209 HD
ENDBRANCH  28  29
ENDBRANCH  27  28
ENDBRANCH  10  27
TORSDOF 8
ENDMDL
