MODEL 1
REMARK VINA RESULT: -6.948085894      0.000      0.000
REMARK  6 active torsions:
REMARK  status: ('A' for Active; 'I' for Inactive)
REMARK       I    between atoms: C1_4  and  N3_6 
REMARK    1  A    between atoms: N3_6  and  C2_8 
REMARK    2  A    between atoms: C3_11  and  S1_12 
REMARK    3  A    between atoms: C4_18  and  N6_19 
REMARK    4  A    between atoms: N6_19  and  C5_21 
REMARK    5  A    between atoms: C5_21  and  C6_22 
REMARK    6  A    between atoms: C6_22  and  N7_23 
ROOT
HETATM    1  C2  UNL     1      -6.400  13.934  19.051  1.00  0.00     0.701 A 
HETATM    2  N4  UNL     1      -7.481  13.138  19.096  1.00  0.00    -0.162 N 
ATOM      3  H4  UNL     1      -7.588  12.393  18.408  1.00  0.00     0.186 HD
HETATM    4  C3  UNL     1      -8.432  13.315  20.047  1.00  0.00     0.254 A 
HETATM    5  N5  UNL     1      -8.230  14.314  20.922  1.00  0.00    -0.162 N 
ATOM      6  H5  UNL     1      -8.935  14.462  21.644  1.00  0.00     0.186 HD
HETATM    7  C4  UNL     1      -7.164  15.131  20.911  1.00  0.00     0.694 A 
HETATM    8  N9  UNL     1      -6.226  14.926  19.941  1.00  0.00    -0.022 N 
ATOM      9  H9  UNL     1      -5.400  15.522  19.892  1.00  0.00     0.203 HD
ENDROOT
BRANCH   7  10
HETATM   10  N6  UNL     1      -7.009  16.082  21.773  1.00  0.00    -0.224 N 
ATOM     11  H6  UNL     1      -6.943  15.882  22.771  1.00  0.00     0.177 HD
BRANCH  10  12
HETATM   12  C5  UNL     1      -6.933  17.425  21.281  1.00  0.00     0.157 C 
BRANCH  12  13
HETATM   13  C6  UNL     1      -8.068  17.766  20.336  1.00  0.00     0.140 C 
BRANCH  13  14
HETATM   14  N7  UNL     1      -9.344  17.800  21.009  1.00  0.00    -0.386 N 
HETATM   15  C7  UNL     1     -10.324  17.119  20.564  1.00  0.00     0.185 C 
HETATM   16  N8  UNL     1     -10.182  16.320  19.410  1.00  0.00    -0.097 NA
ATOM     17  H7  UNL     1      -9.461  18.373  21.845  1.00  0.00     0.159 HD
ENDBRANCH  13  14
ENDBRANCH  12  13
ENDBRANCH  10  12
ENDBRANCH   7  10
BRANCH   4  18
HETATM   18  S1  UNL     1      -9.850  12.293  20.129  1.00  0.00     0.173 S 
HETATM   19  O1  UNL     1     -10.803  12.748  19.075  1.00  0.00    -0.589 OA
HETATM   20  O2  UNL     1     -10.519  12.381  21.469  1.00  0.00    -0.589 OA
HETATM   21  O3  UNL     1      -9.337  10.709  19.865  1.00  0.00    -0.589 OA
ENDBRANCH   4  18
BRANCH   1  22
HETATM   22  N3  UNL     1      -5.518  13.736  18.133  1.00  0.00    -0.163 N 
HETATM   23  C1  UNL     1      -4.341  14.514  18.033  1.00  0.00     0.200 C 
HETATM   24  N1  UNL     1      -3.262  14.000  17.561  1.00  0.00    -0.373 N 
HETATM   25  N2  UNL     1      -4.316  15.868  18.444  1.00  0.00    -0.063 NA
ATOM     26  H12 UNL     1      -2.412  14.560  17.488  1.00  0.00     0.158 HD
ATOM     27  H11 UNL     1      -3.280  13.023  17.265  1.00  0.00     0.158 HD
ATOM     28  H3  UNL     1      -5.673  12.991  17.454  1.00  0.00     0.187 HD
ENDBRANCH   1  22
TORSDOF 6
ENDMDL
MODEL 2
REMARK VINA RESULT: -6.912583197      3.337      4.448
REMARK  6 active torsions:
REMARK  status: ('A' for Active; 'I' for Inactive)
REMARK       I    between atoms: C1_4  and  N3_6 
REMARK    1  A    between atoms: N3_6  and  C2_8 
REMARK    2  A    between atoms: C3_11  and  S1_12 
REMARK    3  A    between atoms: C4_18  and  N6_19 
REMARK    4  A    between atoms: N6_19  and  C5_21 
REMARK    5  A    between atoms: C5_21  and  C6_22 
REMARK    6  A    between atoms: C6_22  and  N7_23 
ROOT
HETATM    1  C2  UNL     1      -8.098  12.615  20.380  1.00  0.00     0.701 A 
HETATM    2  N4  UNL     1      -7.281  13.318  19.578  1.00  0.00    -0.162 N 
ATOM      3  H4  UNL     1      -6.837  12.858  18.784  1.00  0.00     0.186 HD
HETATM    4  C3  UNL     1      -7.041  14.632  19.814  1.00  0.00     0.254 A 
HETATM    5  N5  UNL     1      -7.659  15.175  20.876  1.00  0.00    -0.162 N 
ATOM      6  H5  UNL     1      -7.490  16.162  21.070  1.00  0.00     0.186 HD
HETATM    7  C4  UNL     1      -8.482  14.508  21.702  1.00  0.00     0.694 A 
HETATM    8  N9  UNL     1      -8.701  13.187  21.437  1.00  0.00    -0.022 N 
ATOM      9  H9  UNL     1      -9.318  12.639  22.036  1.00  0.00     0.203 HD
ENDROOT
BRANCH   7  10
HETATM   10  N6  UNL     1      -9.055  15.070  22.714  1.00  0.00    -0.224 N 
ATOM     11  H6  UNL     1      -8.515  15.603  23.396  1.00  0.00     0.177 HD
BRANCH  10  12
HETATM   12  C5  UNL     1     -10.473  14.921  22.848  1.00  0.00     0.157 C 
BRANCH  12  13
HETATM   13  C6  UNL     1     -11.235  15.501  21.673  1.00  0.00     0.140 C 
BRANCH  13  14
HETATM   14  N7  UNL     1     -10.933  16.897  21.465  1.00  0.00    -0.386 N 
HETATM   15  C7  UNL     1     -10.436  17.289  20.359  1.00  0.00     0.185 C 
HETATM   16  N8  UNL     1     -10.174  16.371  19.321  1.00  0.00    -0.097 NA
ATOM     17  H7  UNL     1     -11.119  17.572  22.207  1.00  0.00     0.159 HD
ENDBRANCH  13  14
ENDBRANCH  12  13
ENDBRANCH  10  12
ENDBRANCH   7  10
BRANCH   4  18
HETATM   18  S1  UNL     1      -5.982  15.571  18.786  1.00  0.00     0.173 S 
HETATM   19  O1  UNL     1      -5.575  14.707  17.640  1.00  0.00    -0.589 OA
HETATM   20  O2  UNL     1      -4.755  16.024  19.521  1.00  0.00    -0.589 OA
HETATM   21  O3  UNL     1      -6.854  16.919  18.273  1.00  0.00    -0.589 OA
ENDBRANCH   4  18
BRANCH   1  22
HETATM   22  N3  UNL     1      -8.302  11.369  20.125  1.00  0.00    -0.163 N 
HETATM   23  C1  UNL     1      -9.276  10.934  19.197  1.00  0.00     0.200 C 
HETATM   24  N1  UNL     1      -9.100   9.848  18.532  1.00  0.00    -0.373 N 
HETATM   25  N2  UNL     1     -10.462  11.673  18.974  1.00  0.00    -0.063 NA
ATOM     26  H12 UNL     1      -9.803   9.534  17.862  1.00  0.00     0.158 HD
ATOM     27  H11 UNL     1      -8.245   9.315  18.693  1.00  0.00     0.158 HD
ATOM     28  H3  UNL     1      -7.740  10.669  20.610  1.00  0.00     0.187 HD
ENDBRANCH   1  22
TORSDOF 6
ENDMDL
MODEL 3
REMARK VINA RESULT: -6.775667291      3.347      4.426
REMARK  6 active torsions:
REMARK  status: ('A' for Active; 'I' for Inactive)
REMARK       I    between atoms: C1_4  and  N3_6 
REMARK    1  A    between atoms: N3_6  and  C2_8 
REMARK    2  A    between atoms: C3_11  and  S1_12 
REMARK    3  A    between atoms: C4_18  and  N6_19 
REMARK    4  A    between atoms: N6_19  and  C5_21 
REMARK    5  A    between atoms: C5_21  and  C6_22 
REMARK    6  A    between atoms: C6_22  and  N7_23 
ROOT
HETATM    1  C2  UNL     1      -8.117  12.625  20.396  1.00  0.00     0.701 A 
HETATM    2  N4  UNL     1      -7.304  13.363  19.623  1.00  0.00    -0.162 N 
ATOM      3  H4  UNL     1      -6.820  12.925  18.839  1.00  0.00     0.186 HD
HETATM    4  C3  UNL     1      -7.119  14.683  19.873  1.00  0.00     0.254 A 
HETATM    5  N5  UNL     1      -7.786  15.196  20.920  1.00  0.00    -0.162 N 
ATOM      6  H5  UNL     1      -7.660  16.187  21.124  1.00  0.00     0.186 HD
HETATM    7  C4  UNL     1      -8.607  14.494  21.717  1.00  0.00     0.694 A 
HETATM    8  N9  UNL     1      -8.771  13.168  21.438  1.00  0.00    -0.022 N 
ATOM      9  H9  UNL     1      -9.384  12.593  22.016  1.00  0.00     0.203 HD
ENDROOT
BRANCH   7  10
HETATM   10  N6  UNL     1      -9.229  15.028  22.716  1.00  0.00    -0.224 N 
ATOM     11  H6  UNL     1      -8.725  15.553  23.430  1.00  0.00     0.177 HD
BRANCH  10  12
HETATM   12  C5  UNL     1     -10.650  14.858  22.788  1.00  0.00     0.157 C 
BRANCH  12  13
HETATM   13  C6  UNL     1     -11.381  15.572  21.669  1.00  0.00     0.140 C 
BRANCH  13  14
HETATM   14  N7  UNL     1     -10.948  16.941  21.523  1.00  0.00    -0.386 N 
HETATM   15  C7  UNL     1     -10.431  17.339  20.429  1.00  0.00     0.185 C 
HETATM   16  N8  UNL     1     -10.274  16.452  19.342  1.00  0.00    -0.097 NA
ATOM     17  H7  UNL     1     -11.056  17.593  22.301  1.00  0.00     0.159 HD
ENDBRANCH  13  14
ENDBRANCH  12  13
ENDBRANCH  10  12
ENDBRANCH   7  10
BRANCH   4  18
HETATM   18  S1  UNL     1      -6.066  15.667  18.881  1.00  0.00     0.173 S 
HETATM   19  O1  UNL     1      -4.945  16.146  19.740  1.00  0.00    -0.589 OA
HETATM   20  O2  UNL     1      -6.790  16.850  18.309  1.00  0.00    -0.589 OA
HETATM   21  O3  UNL     1      -5.514  14.691  17.622  1.00  0.00    -0.589 OA
ENDBRANCH   4  18
BRANCH   1  22
HETATM   22  N3  UNL     1      -8.268  11.374  20.128  1.00  0.00    -0.163 N 
HETATM   23  C1  UNL     1      -9.206  10.910  19.178  1.00  0.00     0.200 C 
HETATM   24  N1  UNL     1      -8.976   9.837  18.509  1.00  0.00    -0.373 N 
HETATM   25  N2  UNL     1     -10.415  11.605  18.936  1.00  0.00    -0.063 NA
ATOM     26  H12 UNL     1      -9.652   9.502  17.823  1.00  0.00     0.158 HD
ATOM     27  H11 UNL     1      -8.104   9.336  18.683  1.00  0.00     0.158 HD
ATOM     28  H3  UNL     1      -7.689  10.693  20.620  1.00  0.00     0.187 HD
ENDBRANCH   1  22
TORSDOF 6
ENDMDL
MODEL 4
REMARK VINA RESULT: -6.592949134      3.467      4.533
REMARK  6 active torsions:
REMARK  status: ('A' for Active; 'I' for Inactive)
REMARK       I    between atoms: C1_4  and  N3_6 
REMARK    1  A    between atoms: N3_6  and  C2_8 
REMARK    2  A    between atoms: C3_11  and  S1_12 
REMARK    3  A    between atoms: C4_18  and  N6_19 
REMARK    4  A    between atoms: N6_19  and  C5_21 
REMARK    5  A    between atoms: C5_21  and  C6_22 
REMARK    6  A    between atoms: C6_22  and  N7_23 
ROOT
HETATM    1  C2  UNL     1      -7.528  12.941  20.017  1.00  0.00     0.701 A 
HETATM    2  N4  UNL     1      -6.505  13.232  19.196  1.00  0.00    -0.162 N 
ATOM      3  H4  UNL     1      -6.093  12.495  18.624  1.00  0.00     0.186 HD
HETATM    4  C3  UNL     1      -6.015  14.495  19.119  1.00  0.00     0.254 A 
HETATM    5  N5  UNL     1      -6.604  15.416  19.899  1.00  0.00    -0.162 N 
ATOM      6  H5  UNL     1      -6.250  16.372  19.855  1.00  0.00     0.186 HD
HETATM    7  C4  UNL     1      -7.628  15.168  20.732  1.00  0.00     0.694 A 
HETATM    8  N9  UNL     1      -8.096  13.887  20.786  1.00  0.00    -0.022 N 
ATOM      9  H9  UNL     1      -8.871  13.649  21.404  1.00  0.00     0.203 HD
ENDROOT
BRANCH   7  10
HETATM   10  N6  UNL     1      -8.165  16.086  21.466  1.00  0.00    -0.224 N 
ATOM     11  H6  UNL     1      -8.076  16.066  22.482  1.00  0.00     0.177 HD
BRANCH  10  12
HETATM   12  C5  UNL     1      -8.890  17.131  20.808  1.00  0.00     0.157 C 
BRANCH  12  13
HETATM   13  C6  UNL     1     -10.291  16.711  20.413  1.00  0.00     0.140 C 
BRANCH  13  14
HETATM   14  N7  UNL     1     -11.233  16.873  21.495  1.00  0.00    -0.386 N 
HETATM   15  C7  UNL     1     -11.587  15.870  22.196  1.00  0.00     0.185 C 
HETATM   16  N8  UNL     1     -11.067  14.585  21.929  1.00  0.00    -0.097 NA
ATOM     17  H7  UNL     1     -11.616  17.796  21.699  1.00  0.00     0.159 HD
ENDBRANCH  13  14
ENDBRANCH  12  13
ENDBRANCH  10  12
ENDBRANCH   7  10
BRANCH   4  18
HETATM   18  S1  UNL     1      -4.685  14.901  18.058  1.00  0.00     0.173 S 
HETATM   19  O1  UNL     1      -5.259  15.442  16.792  1.00  0.00    -0.589 OA
HETATM   20  O2  UNL     1      -3.841  13.701  17.744  1.00  0.00    -0.589 OA
HETATM   21  O3  UNL     1      -3.744  16.049  18.858  1.00  0.00    -0.589 OA
ENDBRANCH   4  18
BRANCH   1  22
HETATM   22  N3  UNL     1      -7.966  11.731  20.063  1.00  0.00    -0.163 N 
HETATM   23  C1  UNL     1      -9.216  11.356  19.520  1.00  0.00     0.200 C 
HETATM   24  N1  UNL     1      -9.391  10.173  19.049  1.00  0.00    -0.373 N 
HETATM   25  N2  UNL     1     -10.303  12.262  19.479  1.00  0.00    -0.063 NA
ATOM     26  H12 UNL     1     -10.293   9.902  18.657  1.00  0.00     0.158 HD
ATOM     27  H11 UNL     1      -8.608   9.520  19.079  1.00  0.00     0.158 HD
ATOM     28  H3  UNL     1      -7.390  11.016  20.508  1.00  0.00     0.187 HD
ENDBRANCH   1  22
TORSDOF 6
ENDMDL
MODEL 5
REMARK VINA RESULT: -6.389202028      3.042      3.980
REMARK  6 active torsions:
REMARK  status: ('A' for Active; 'I' for Inactive)
REMARK       I    between atoms: C1_4  and  N3_6 
REMARK    1  A    between atoms: N3_6  and  C2_8 
REMARK    2  A    between atoms: C3_11  and  S1_12 
REMARK    3  A    between atoms: C4_18  and  N6_19 
REMARK    4  A    between atoms: N6_19  and  C5_21 
REMARK    5  A    between atoms: C5_21  and  C6_22 
REMARK    6  A    between atoms: C6_22  and  N7_23 
ROOT
HETATM    1  C2  UNL     1      -6.021  14.162  18.766  1.00  0.00     0.701 A 
HETATM    2  N4  UNL     1      -6.244  15.433  19.140  1.00  0.00    -0.162 N 
ATOM      3  H4  UNL     1      -5.714  16.187  18.702  1.00  0.00     0.186 HD
HETATM    4  C3  UNL     1      -7.164  15.724  20.093  1.00  0.00     0.254 A 
HETATM    5  N5  UNL     1      -7.824  14.685  20.628  1.00  0.00    -0.162 N 
ATOM      6  H5  UNL     1      -8.521  14.884  21.347  1.00  0.00     0.186 HD
HETATM    7  C4  UNL     1      -7.633  13.401  20.284  1.00  0.00     0.694 A 
HETATM    8  N9  UNL     1      -6.699  13.143  19.322  1.00  0.00    -0.022 N 
ATOM      9  H9  UNL     1      -6.518  12.183  19.027  1.00  0.00     0.203 HD
ENDROOT
BRANCH   7  10
HETATM   10  N6  UNL     1      -8.291  12.430  20.826  1.00  0.00    -0.224 N 
ATOM     11  H6  UNL     1      -8.191  12.216  21.818  1.00  0.00     0.177 HD
BRANCH  10  12
HETATM   12  C5  UNL     1      -9.167  11.666  19.989  1.00  0.00     0.157 C 
BRANCH  12  13
HETATM   13  C6  UNL     1     -10.393  12.446  19.560  1.00  0.00     0.140 C 
BRANCH  13  14
HETATM   14  N7  UNL     1     -11.089  13.026  20.682  1.00  0.00    -0.386 N 
HETATM   15  C7  UNL     1     -11.250  14.288  20.757  1.00  0.00     0.185 C 
HETATM   16  N8  UNL     1     -10.753  15.139  19.747  1.00  0.00    -0.097 NA
ATOM     17  H7  UNL     1     -11.455  12.423  21.420  1.00  0.00     0.159 HD
ENDBRANCH  13  14
ENDBRANCH  12  13
ENDBRANCH  10  12
ENDBRANCH   7  10
BRANCH   4  18
HETATM   18  S1  UNL     1      -7.473  17.371  20.598  1.00  0.00     0.173 S 
HETATM   19  O1  UNL     1      -7.150  18.269  19.451  1.00  0.00    -0.589 OA
HETATM   20  O2  UNL     1      -6.630  17.756  21.778  1.00  0.00    -0.589 OA
HETATM   21  O3  UNL     1      -9.101  17.462  21.023  1.00  0.00    -0.589 OA
ENDBRANCH   4  18
BRANCH   1  22
HETATM   22  N3  UNL     1      -5.140  13.924  17.858  1.00  0.00    -0.163 N 
HETATM   23  C1  UNL     1      -3.890  14.583  17.823  1.00  0.00     0.200 C 
HETATM   24  N1  UNL     1      -2.854  13.988  17.347  1.00  0.00    -0.373 N 
HETATM   25  N2  UNL     1      -3.741  15.906  18.306  1.00  0.00    -0.063 NA
ATOM     26  H12 UNL     1      -1.952  14.464  17.323  1.00  0.00     0.158 HD
ATOM     27  H11 UNL     1      -2.961  13.035  17.000  1.00  0.00     0.158 HD
ATOM     28  H3  UNL     1      -5.350  13.233  17.137  1.00  0.00     0.187 HD
ENDBRANCH   1  22
TORSDOF 6
ENDMDL
