MODEL 1
REMARK VINA RESULT: -6.709452711      0.000      0.000
REMARK  6 active torsions:
REMARK  status: ('A' for Active; 'I' for Inactive)
REMARK    1  A    between atoms: N1_2  and  N2_3 
REMARK    2  A    between atoms: N1_2  and  C2_11 
REMARK    3  A    between atoms: N2_3  and  S1_5 
REMARK    4  A    between atoms: S1_5  and  N3_6 
REMARK    5  A    between atoms: C5_14  and  S2_15 
REMARK    6  A    between atoms: S2_15  and  N4_16 
ROOT
HETATM    1  C2  UNL     1     -10.010  14.723  21.331  1.00  0.00     0.123 A 
HETATM    2  C3  UNL     1     -10.664  15.931  21.410  1.00  0.00     0.053 A 
HETATM    3  C4  UNL     1      -9.812  16.971  21.087  1.00  0.00     0.047 A 
HETATM    4  C5  UNL     1      -8.596  16.355  20.804  1.00  0.00     0.150 A 
HETATM    5  N5  UNL     1      -8.744  15.040  20.955  1.00  0.00    -0.331 N 
ATOM      6  H5  UNL     1      -8.001  14.358  20.808  1.00  0.00     0.168 HD
ENDROOT
BRANCH   1   7
HETATM    7  N1  UNL     1     -10.563  13.446  21.569  1.00  0.00    -0.270 N 
HETATM    8  C1  UNL     1     -11.988  13.435  21.973  1.00  0.00     0.180 C 
BRANCH   7   9
HETATM    9  N2  UNL     1      -9.954  12.223  21.483  1.00  0.00    -0.207 N 
ATOM     10  H2  UNL     1      -9.858  11.620  22.300  1.00  0.00     0.202 HD
BRANCH   9  11
HETATM   11  S1  UNL     1      -9.364  11.752  19.968  1.00  0.00     0.330 S 
HETATM   12  O1  UNL     1      -7.987  12.384  19.815  1.00  0.00    -0.181 OA
HETATM   13  O2  UNL     1      -9.268  10.279  19.785  1.00  0.00    -0.181 OA
BRANCH  11  14
HETATM   14  N3  UNL     1     -10.397  12.348  18.701  1.00  0.00    -0.310 N 
ATOM     15  H32 UNL     1     -11.301  11.939  18.463  1.00  0.00     0.170 HD
ATOM     16  H31 UNL     1      -9.970  13.153  18.241  1.00  0.00     0.170 HD
ENDBRANCH  11  14
ENDBRANCH   9  11
ENDBRANCH   7   9
ENDBRANCH   1   7
BRANCH   4  17
HETATM   17  S2  UNL     1      -7.168  17.279  20.324  1.00  0.00     0.272 S 
HETATM   18  O3  UNL     1      -7.082  17.376  18.811  1.00  0.00    -0.199 OA
HETATM   19  O4  UNL     1      -5.947  16.650  20.922  1.00  0.00    -0.199 OA
BRANCH  17  20
HETATM   20  N4  UNL     1      -7.331  18.881  20.923  1.00  0.00    -0.323 N 
ATOM     21  H42 UNL     1      -8.159  19.467  20.812  1.00  0.00     0.169 HD
ATOM     22  H41 UNL     1      -6.466  19.137  21.400  1.00  0.00     0.169 HD
ENDBRANCH  17  20
ENDBRANCH   4  17
TORSDOF 6
ENDMDL
MODEL 2
REMARK VINA RESULT: -6.614874433      2.562      5.075
REMARK  6 active torsions:
REMARK  status: ('A' for Active; 'I' for Inactive)
REMARK    1  A    between atoms: N1_2  and  N2_3 
REMARK    2  A    between atoms: N1_2  and  C2_11 
REMARK    3  A    between atoms: N2_3  and  S1_5 
REMARK    4  A    between atoms: S1_5  and  N3_6 
REMARK    5  A    between atoms: C5_14  and  S2_15 
REMARK    6  A    between atoms: S2_15  and  N4_16 
ROOT
HETATM    1  C2  UNL     1      -8.881  16.605  20.476  1.00  0.00     0.123 A 
HETATM    2  C3  UNL     1      -9.829  17.151  21.311  1.00  0.00     0.053 A 
HETATM    3  C4  UNL     1     -10.793  16.214  21.636  1.00  0.00     0.047 A 
HETATM    4  C5  UNL     1     -10.401  15.059  20.964  1.00  0.00     0.150 A 
HETATM    5  N5  UNL     1      -9.280  15.320  20.295  1.00  0.00    -0.331 N 
ATOM      6  H5  UNL     1      -8.783  14.640  19.719  1.00  0.00     0.168 HD
ENDROOT
BRANCH   1   7
HETATM    7  N1  UNL     1      -7.739  17.254  19.957  1.00  0.00    -0.270 N 
HETATM    8  C1  UNL     1      -7.336  18.492  20.662  1.00  0.00     0.180 C 
BRANCH   7   9
HETATM    9  N2  UNL     1      -6.966  16.892  18.887  1.00  0.00    -0.207 N 
ATOM     10  H2  UNL     1      -7.016  17.398  18.002  1.00  0.00     0.202 HD
BRANCH   9  11
HETATM   11  S1  UNL     1      -5.925  15.574  19.089  1.00  0.00     0.330 S 
HETATM   12  O1  UNL     1      -4.515  16.138  19.199  1.00  0.00    -0.181 OA
HETATM   13  O2  UNL     1      -6.229  14.736  20.280  1.00  0.00    -0.181 OA
BRANCH  11  14
HETATM   14  N3  UNL     1      -6.000  14.521  17.705  1.00  0.00    -0.310 N 
ATOM     15  H32 UNL     1      -6.022  14.850  16.739  1.00  0.00     0.170 HD
ATOM     16  H31 UNL     1      -6.018  13.545  18.000  1.00  0.00     0.170 HD
ENDBRANCH  11  14
ENDBRANCH   9  11
ENDBRANCH   7   9
ENDBRANCH   1   7
BRANCH   4  17
HETATM   17  S2  UNL     1     -11.323  13.556  21.072  1.00  0.00     0.272 S 
HETATM   18  O3  UNL     1     -12.165  13.359  19.824  1.00  0.00    -0.199 OA
HETATM   19  O4  UNL     1     -12.153  13.571  22.319  1.00  0.00    -0.199 OA
BRANCH  17  20
HETATM   20  N4  UNL     1     -10.216  12.243  21.145  1.00  0.00    -0.323 N 
ATOM     21  H42 UNL     1      -9.302  12.273  21.597  1.00  0.00     0.169 HD
ATOM     22  H41 UNL     1     -10.631  11.444  20.665  1.00  0.00     0.169 HD
ENDBRANCH  17  20
ENDBRANCH   4  17
TORSDOF 6
ENDMDL
MODEL 3
REMARK VINA RESULT: -6.548704307      1.736      2.076
REMARK  6 active torsions:
REMARK  status: ('A' for Active; 'I' for Inactive)
REMARK    1  A    between atoms: N1_2  and  N2_3 
REMARK    2  A    between atoms: N1_2  and  C2_11 
REMARK    3  A    between atoms: N2_3  and  S1_5 
REMARK    4  A    between atoms: S1_5  and  N3_6 
REMARK    5  A    between atoms: C5_14  and  S2_15 
REMARK    6  A    between atoms: S2_15  and  N4_16 
ROOT
HETATM    1  C2  UNL     1      -9.013  14.166  21.267  1.00  0.00     0.123 A 
HETATM    2  C3  UNL     1      -8.283  14.847  22.214  1.00  0.00     0.053 A 
HETATM    3  C4  UNL     1      -7.267  15.573  21.621  1.00  0.00     0.047 A 
HETATM    4  C5  UNL     1      -7.397  15.313  20.260  1.00  0.00     0.150 A 
HETATM    5  N5  UNL     1      -8.427  14.487  20.085  1.00  0.00    -0.331 N 
ATOM      6  H5  UNL     1      -8.736  14.139  19.177  1.00  0.00     0.168 HD
ENDROOT
BRANCH   1   7
HETATM    7  N1  UNL     1     -10.137  13.343  21.497  1.00  0.00    -0.270 N 
HETATM    8  C1  UNL     1     -11.354  14.044  21.965  1.00  0.00     0.180 C 
BRANCH   7   9
HETATM    9  N2  UNL     1     -10.242  11.985  21.353  1.00  0.00    -0.207 N 
ATOM     10  H2  UNL     1     -10.778  11.422  22.013  1.00  0.00     0.202 HD
BRANCH   9  11
HETATM   11  S1  UNL     1      -9.448  11.278  20.036  1.00  0.00     0.330 S 
HETATM   12  O1  UNL     1      -7.991  11.712  20.115  1.00  0.00    -0.181 OA
HETATM   13  O2  UNL     1      -9.533   9.793  20.001  1.00  0.00    -0.181 OA
BRANCH  11  14
HETATM   14  N3  UNL     1     -10.123  11.853  18.538  1.00  0.00    -0.310 N 
ATOM     15  H32 UNL     1     -10.376  12.826  18.364  1.00  0.00     0.170 HD
ATOM     16  H31 UNL     1     -10.225  11.085  17.875  1.00  0.00     0.170 HD
ENDBRANCH  11  14
ENDBRANCH   9  11
ENDBRANCH   7   9
ENDBRANCH   1   7
BRANCH   4  17
HETATM   17  S2  UNL     1      -6.314  16.030  19.062  1.00  0.00     0.272 S 
HETATM   18  O3  UNL     1      -4.961  16.330  19.682  1.00  0.00    -0.199 OA
HETATM   19  O4  UNL     1      -6.956  17.254  18.483  1.00  0.00    -0.199 OA
BRANCH  17  20
HETATM   20  N4  UNL     1      -6.051  14.883  17.810  1.00  0.00    -0.323 N 
ATOM     21  H42 UNL     1      -5.373  14.122  17.846  1.00  0.00     0.169 HD
ATOM     22  H41 UNL     1      -6.684  15.097  17.039  1.00  0.00     0.169 HD
ENDBRANCH  17  20
ENDBRANCH   4  17
TORSDOF 6
ENDMDL
MODEL 4
REMARK VINA RESULT: -6.452390337      2.468      5.149
REMARK  6 active torsions:
REMARK  status: ('A' for Active; 'I' for Inactive)
REMARK    1  A    between atoms: N1_2  and  N2_3 
REMARK    2  A    between atoms: N1_2  and  C2_11 
REMARK    3  A    between atoms: N2_3  and  S1_5 
REMARK    4  A    between atoms: S1_5  and  N3_6 
REMARK    5  A    between atoms: C5_14  and  S2_15 
REMARK    6  A    between atoms: S2_15  and  N4_16 
ROOT
HETATM    1  C2  UNL     1      -8.567  16.383  21.057  1.00  0.00     0.123 A 
HETATM    2  C3  UNL     1      -9.706  17.075  21.399  1.00  0.00     0.053 A 
HETATM    3  C4  UNL     1     -10.794  16.224  21.471  1.00  0.00     0.047 A 
HETATM    4  C5  UNL     1     -10.279  14.969  21.157  1.00  0.00     0.150 A 
HETATM    5  N5  UNL     1      -8.975  15.095  20.920  1.00  0.00    -0.331 N 
ATOM      6  H5  UNL     1      -8.360  14.322  20.667  1.00  0.00     0.168 HD
ENDROOT
BRANCH   1   7
HETATM    7  N1  UNL     1      -7.267  16.915  20.912  1.00  0.00    -0.270 N 
HETATM    8  C1  UNL     1      -7.164  18.386  21.039  1.00  0.00     0.180 C 
BRANCH   7   9
HETATM    9  N2  UNL     1      -6.097  16.250  20.662  1.00  0.00    -0.207 N 
ATOM     10  H2  UNL     1      -5.425  16.061  21.406  1.00  0.00     0.202 HD
BRANCH   9  11
HETATM   11  S1  UNL     1      -5.809  15.752  19.070  1.00  0.00     0.330 S 
HETATM   12  O1  UNL     1      -6.728  16.576  18.178  1.00  0.00    -0.181 OA
HETATM   13  O2  UNL     1      -4.398  15.913  18.629  1.00  0.00    -0.181 OA
BRANCH  11  14
HETATM   14  N3  UNL     1      -6.205  14.068  18.878  1.00  0.00    -0.310 N 
ATOM     15  H32 UNL     1      -6.753  13.696  18.101  1.00  0.00     0.170 HD
ATOM     16  H31 UNL     1      -5.815  13.520  19.645  1.00  0.00     0.170 HD
ENDBRANCH  11  14
ENDBRANCH   9  11
ENDBRANCH   7   9
ENDBRANCH   1   7
BRANCH   4  17
HETATM   17  S2  UNL     1     -11.295  13.524  21.121  1.00  0.00     0.272 S 
HETATM   18  O3  UNL     1     -12.076  13.455  19.822  1.00  0.00    -0.199 OA
HETATM   19  O4  UNL     1     -12.190  13.518  22.323  1.00  0.00    -0.199 OA
BRANCH  17  20
HETATM   20  N4  UNL     1     -10.274  12.141  21.170  1.00  0.00    -0.323 N 
ATOM     21  H42 UNL     1      -9.687  11.820  20.400  1.00  0.00     0.169 HD
ATOM     22  H41 UNL     1     -10.361  11.708  22.089  1.00  0.00     0.169 HD
ENDBRANCH  17  20
ENDBRANCH   4  17
TORSDOF 6
ENDMDL
MODEL 5
REMARK VINA RESULT: -6.307590503      2.376      5.337
REMARK  6 active torsions:
REMARK  status: ('A' for Active; 'I' for Inactive)
REMARK    1  A    between atoms: N1_2  and  N2_3 
REMARK    2  A    between atoms: N1_2  and  C2_11 
REMARK    3  A    between atoms: N2_3  and  S1_5 
REMARK    4  A    between atoms: S1_5  and  N3_6 
REMARK    5  A    between atoms: C5_14  and  S2_15 
REMARK    6  A    between atoms: S2_15  and  N4_16 
ROOT
HETATM    1  C2  UNL     1      -7.667  15.482  21.434  1.00  0.00     0.123 A 
HETATM    2  C3  UNL     1      -7.988  15.116  22.721  1.00  0.00     0.053 A 
HETATM    3  C4  UNL     1      -8.999  14.173  22.726  1.00  0.00     0.047 A 
HETATM    4  C5  UNL     1      -9.295  13.969  21.381  1.00  0.00     0.150 A 
HETATM    5  N5  UNL     1      -8.499  14.749  20.651  1.00  0.00    -0.331 N 
ATOM      6  H5  UNL     1      -8.513  14.790  19.631  1.00  0.00     0.168 HD
ENDROOT
BRANCH   1   7
HETATM    7  N1  UNL     1      -6.670  16.401  21.040  1.00  0.00    -0.270 N 
HETATM    8  C1  UNL     1      -6.994  17.828  21.271  1.00  0.00     0.180 C 
BRANCH   7   9
HETATM    9  N2  UNL     1      -5.453  16.145  20.468  1.00  0.00    -0.207 N 
ATOM     10  H2  UNL     1      -4.589  16.214  21.006  1.00  0.00     0.202 HD
BRANCH   9  11
HETATM   11  S1  UNL     1      -5.438  15.711  18.833  1.00  0.00     0.330 S 
HETATM   12  O1  UNL     1      -6.488  16.568  18.138  1.00  0.00    -0.181 OA
HETATM   13  O2  UNL     1      -4.119  15.890  18.168  1.00  0.00    -0.181 OA
BRANCH  11  14
HETATM   14  N3  UNL     1      -5.870  14.035  18.644  1.00  0.00    -0.310 N 
ATOM     15  H32 UNL     1      -5.267  13.257  18.913  1.00  0.00     0.170 HD
ATOM     16  H31 UNL     1      -6.800  13.950  18.232  1.00  0.00     0.170 HD
ENDBRANCH  11  14
ENDBRANCH   9  11
ENDBRANCH   7   9
ENDBRANCH   1   7
BRANCH   4  17
HETATM   17  S2  UNL     1     -10.539  12.828  20.859  1.00  0.00     0.272 S 
HETATM   18  O3  UNL     1      -9.906  11.529  20.394  1.00  0.00    -0.199 OA
HETATM   19  O4  UNL     1     -11.379  13.463  19.794  1.00  0.00    -0.199 OA
BRANCH  17  20
HETATM   20  N4  UNL     1     -11.530  12.449  22.211  1.00  0.00    -0.323 N 
ATOM     21  H42 UNL     1     -11.866  11.515  22.447  1.00  0.00     0.169 HD
ATOM     22  H41 UNL     1     -11.720  13.310  22.724  1.00  0.00     0.169 HD
ENDBRANCH  17  20
ENDBRANCH   4  17
TORSDOF 6
ENDMDL
