MODEL 1
REMARK VINA RESULT: -5.651970454      0.000      0.000
REMARK  6 active torsions:
REMARK  status: ('A' for Active; 'I' for Inactive)
REMARK    1  A    between atoms: C2_2  and  C3_3 
REMARK    2  A    between atoms: C3_3  and  N1_4 
REMARK    3  A    between atoms: N1_4  and  C4_7 
REMARK    4  A    between atoms: C8_11  and  N2_12 
REMARK    5  A    between atoms: N2_12  and  C9_14 
REMARK    6  A    between atoms: C9_14  and  C10_15 
ROOT
HETATM    1  C4  UNL     1     -21.627   2.024  -9.819  1.00  0.00     0.216 C 
HETATM    2  C5  UNL     1     -21.907   3.008  -8.713  1.00  0.00     0.070 C 
HETATM    3  C6  UNL     1     -22.922   2.287  -7.868  1.00  0.00     0.227 C 
HETATM    4  C7  UNL     1     -24.161   3.103  -7.606  1.00  0.00     0.062 C 
HETATM    5  C8  UNL     1     -25.317   2.141  -7.759  1.00  0.00     0.111 C 
HETATM    6  C12 UNL     1     -24.720   0.922  -8.455  1.00  0.00     0.297 C 
HETATM    7  N3  UNL     1     -23.317   1.090  -8.540  1.00  0.00     0.097 N 
HETATM    8  C13 UNL     1     -22.936   1.283  -9.930  1.00  0.00     0.305 C 
ENDROOT
BRANCH   1   9
HETATM    9  N1  UNL     1     -21.373   2.685 -11.084  1.00  0.00    -0.066 N 
ATOM     10  H12 UNL     1     -20.757   3.489 -10.967  1.00  0.00     0.278 HD
ATOM     11  H11 UNL     1     -22.205   3.170 -11.424  1.00  0.00     0.278 HD
BRANCH   9  12
HETATM   12  C3  UNL     1     -20.856   1.761 -12.078  1.00  0.00     0.259 C 
BRANCH  12  13
HETATM   13  C2  UNL     1     -19.508   1.330 -11.634  1.00  0.00    -0.010 C 
HETATM   14  C1  UNL     1     -18.408   2.048 -11.825  1.00  0.00     0.008 C 
ENDBRANCH  12  13
ENDBRANCH   9  12
ENDBRANCH   1   9
BRANCH   5  15
HETATM   15  N2  UNL     1     -25.852   1.830  -6.498  1.00  0.00    -0.396 N 
ATOM     16  H2  UNL     1     -26.170   2.597  -5.905  1.00  0.00     0.159 HD
BRANCH  15  17
HETATM   17  C9  UNL     1     -25.970   0.535  -6.016  1.00  0.00     0.055 C 
BRANCH  17  18
HETATM   18  C10 UNL     1     -25.053   0.076  -4.914  1.00  0.00     0.039 C 
HETATM   19  C11 UNL     1     -24.019   1.035  -4.469  1.00  0.00     0.010 C 
ENDBRANCH  17  18
ENDBRANCH  15  17
ENDBRANCH   5  15
TORSDOF 6
ENDMDL
MODEL 2
REMARK VINA RESULT: -5.639938644      1.574      6.324
REMARK  6 active torsions:
REMARK  status: ('A' for Active; 'I' for Inactive)
REMARK    1  A    between atoms: C2_2  and  C3_3 
REMARK    2  A    between atoms: C3_3  and  N1_4 
REMARK    3  A    between atoms: N1_4  and  C4_7 
REMARK    4  A    between atoms: C8_11  and  N2_12 
REMARK    5  A    between atoms: N2_12  and  C9_14 
REMARK    6  A    between atoms: C9_14  and  C10_15 
ROOT
HETATM    1  C4  UNL     1     -26.380   1.296  -6.791  1.00  0.00     0.216 C 
HETATM    2  C5  UNL     1     -25.185   2.177  -6.534  1.00  0.00     0.070 C 
HETATM    3  C6  UNL     1     -24.603   2.366  -7.908  1.00  0.00     0.227 C 
HETATM    4  C7  UNL     1     -23.136   2.032  -7.981  1.00  0.00     0.062 C 
HETATM    5  C8  UNL     1     -22.959   1.271  -9.275  1.00  0.00     0.111 C 
HETATM    6  C12 UNL     1     -24.374   0.888  -9.698  1.00  0.00     0.297 C 
HETATM    7  N3  UNL     1     -25.294   1.516  -8.825  1.00  0.00     0.097 N 
HETATM    8  C13 UNL     1     -25.945   0.509  -8.002  1.00  0.00     0.305 C 
ENDROOT
BRANCH   1   9
HETATM    9  N1  UNL     1     -26.611   0.363  -5.705  1.00  0.00    -0.066 N 
ATOM     10  H12 UNL     1     -27.116  -0.463  -6.026  1.00  0.00     0.278 HD
ATOM     11  H11 UNL     1     -27.300   0.724  -5.045  1.00  0.00     0.278 HD
BRANCH   9  12
HETATM   12  C3  UNL     1     -25.374   0.002  -5.036  1.00  0.00     0.259 C 
BRANCH  12  13
HETATM   13  C2  UNL     1     -25.703  -1.003  -3.995  1.00  0.00    -0.010 C 
HETATM   14  C1  UNL     1     -26.922  -1.491  -3.805  1.00  0.00     0.008 C 
ENDBRANCH  12  13
ENDBRANCH   9  12
ENDBRANCH   1   9
BRANCH   5  15
HETATM   15  N2  UNL     1     -22.317   2.084 -10.225  1.00  0.00    -0.396 N 
ATOM     16  H2  UNL     1     -22.885   2.509 -10.958  1.00  0.00     0.159 HD
BRANCH  15  17
HETATM   17  C9  UNL     1     -20.954   2.338 -10.218  1.00  0.00     0.055 C 
BRANCH  17  18
HETATM   18  C10 UNL     1     -20.467   3.720  -9.871  1.00  0.00     0.039 C 
HETATM   19  C11 UNL     1     -19.999   3.927  -8.484  1.00  0.00     0.010 C 
ENDBRANCH  17  18
ENDBRANCH  15  17
ENDBRANCH   5  15
TORSDOF 6
ENDMDL
MODEL 3
REMARK VINA RESULT: -5.635020478      1.333      6.483
REMARK  6 active torsions:
REMARK  status: ('A' for Active; 'I' for Inactive)
REMARK    1  A    between atoms: C2_2  and  C3_3 
REMARK    2  A    between atoms: C3_3  and  N1_4 
REMARK    3  A    between atoms: N1_4  and  C4_7 
REMARK    4  A    between atoms: C8_11  and  N2_12 
REMARK    5  A    between atoms: N2_12  and  C9_14 
REMARK    6  A    between atoms: C9_14  and  C10_15 
ROOT
HETATM    1  C4  UNL     1     -26.316   1.327  -6.855  1.00  0.00     0.216 C 
HETATM    2  C5  UNL     1     -25.084   2.167  -6.639  1.00  0.00     0.070 C 
HETATM    3  C6  UNL     1     -24.523   2.308  -8.028  1.00  0.00     0.227 C 
HETATM    4  C7  UNL     1     -23.071   1.917  -8.122  1.00  0.00     0.062 C 
HETATM    5  C8  UNL     1     -22.948   1.125  -9.403  1.00  0.00     0.111 C 
HETATM    6  C12 UNL     1     -24.385   0.787  -9.791  1.00  0.00     0.297 C 
HETATM    7  N3  UNL     1     -25.263   1.466  -8.914  1.00  0.00     0.097 N 
HETATM    8  C13 UNL     1     -25.935   0.501  -8.058  1.00  0.00     0.305 C 
ENDROOT
BRANCH   1   9
HETATM    9  N1  UNL     1     -26.560   0.425  -5.747  1.00  0.00    -0.066 N 
ATOM     10  H12 UNL     1     -27.076  -0.402  -6.047  1.00  0.00     0.278 HD
ATOM     11  H11 UNL     1     -27.244   0.812  -5.096  1.00  0.00     0.278 HD
BRANCH   9  12
HETATM   12  C3  UNL     1     -25.328   0.063  -5.068  1.00  0.00     0.259 C 
BRANCH  12  13
HETATM   13  C2  UNL     1     -25.662  -0.954  -4.041  1.00  0.00    -0.010 C 
HETATM   14  C1  UNL     1     -26.883  -1.438  -3.857  1.00  0.00     0.008 C 
ENDBRANCH  12  13
ENDBRANCH   9  12
ENDBRANCH   1   9
BRANCH   5  15
HETATM   15  N2  UNL     1     -22.296   1.894 -10.382  1.00  0.00    -0.396 N 
ATOM     16  H2  UNL     1     -22.855   2.287 -11.139  1.00  0.00     0.159 HD
BRANCH  15  17
HETATM   17  C9  UNL     1     -20.933   2.147 -10.372  1.00  0.00     0.055 C 
BRANCH  17  18
HETATM   18  C10 UNL     1     -19.977   1.032 -10.705  1.00  0.00     0.039 C 
HETATM   19  C11 UNL     1     -18.761   1.405 -11.459  1.00  0.00     0.010 C 
ENDBRANCH  17  18
ENDBRANCH  15  17
ENDBRANCH   5  15
TORSDOF 6
ENDMDL
MODEL 4
REMARK VINA RESULT: -5.566214087      1.915      2.891
REMARK  6 active torsions:
REMARK  status: ('A' for Active; 'I' for Inactive)
REMARK    1  A    between atoms: C2_2  and  C3_3 
REMARK    2  A    between atoms: C3_3  and  N1_4 
REMARK    3  A    between atoms: N1_4  and  C4_7 
REMARK    4  A    between atoms: C8_11  and  N2_12 
REMARK    5  A    between atoms: N2_12  and  C9_14 
REMARK    6  A    between atoms: C9_14  and  C10_15 
ROOT
HETATM    1  C4  UNL     1     -22.345   3.172  -7.115  1.00  0.00     0.216 C 
HETATM    2  C5  UNL     1     -23.650   3.338  -7.849  1.00  0.00     0.070 C 
HETATM    3  C6  UNL     1     -24.663   2.837  -6.857  1.00  0.00     0.227 C 
HETATM    4  C7  UNL     1     -25.580   1.786  -7.425  1.00  0.00     0.062 C 
HETATM    5  C8  UNL     1     -25.716   0.740  -6.342  1.00  0.00     0.111 C 
HETATM    6  C12 UNL     1     -24.593   1.052  -5.357  1.00  0.00     0.297 C 
HETATM    7  N3  UNL     1     -23.975   2.265  -5.742  1.00  0.00     0.097 N 
HETATM    8  C13 UNL     1     -22.628   1.993  -6.218  1.00  0.00     0.305 C 
ENDROOT
BRANCH   1   9
HETATM    9  N1  UNL     1     -21.261   2.810  -8.007  1.00  0.00    -0.066 N 
ATOM     10  H12 UNL     1     -21.612   2.503  -8.915  1.00  0.00     0.278 HD
ATOM     11  H11 UNL     1     -20.808   1.944  -7.711  1.00  0.00     0.278 HD
BRANCH   9  12
HETATM   12  C3  UNL     1     -20.299   3.889  -8.149  1.00  0.00     0.259 C 
BRANCH  12  13
HETATM   13  C2  UNL     1     -19.492   3.616  -9.364  1.00  0.00    -0.010 C 
HETATM   14  C1  UNL     1     -19.549   2.477 -10.042  1.00  0.00     0.008 C 
ENDBRANCH  12  13
ENDBRANCH   9  12
ENDBRANCH   1   9
BRANCH   5  15
HETATM   15  N2  UNL     1     -26.987   0.826  -5.750  1.00  0.00    -0.396 N 
ATOM     16  H2  UNL     1     -27.401   1.751  -5.625  1.00  0.00     0.159 HD
BRANCH  15  17
HETATM   17  C9  UNL     1     -27.710  -0.278  -5.326  1.00  0.00     0.055 C 
BRANCH  17  18
HETATM   18  C10 UNL     1     -27.506  -0.796  -3.927  1.00  0.00     0.039 C 
HETATM   19  C11 UNL     1     -26.506  -1.872  -3.758  1.00  0.00     0.010 C 
ENDBRANCH  17  18
ENDBRANCH  15  17
ENDBRANCH   5  15
TORSDOF 6
ENDMDL
MODEL 5
REMARK VINA RESULT: -5.506094316      1.272      1.929
REMARK  6 active torsions:
REMARK  status: ('A' for Active; 'I' for Inactive)
REMARK    1  A    between atoms: C2_2  and  C3_3 
REMARK    2  A    between atoms: C3_3  and  N1_4 
REMARK    3  A    between atoms: N1_4  and  C4_7 
REMARK    4  A    between atoms: C8_11  and  N2_12 
REMARK    5  A    between atoms: N2_12  and  C9_14 
REMARK    6  A    between atoms: C9_14  and  C10_15 
ROOT
HETATM    1  C4  UNL     1     -21.935   2.100  -9.738  1.00  0.00     0.216 C 
HETATM    2  C5  UNL     1     -22.847   0.907  -9.618  1.00  0.00     0.070 C 
HETATM    3  C6  UNL     1     -23.895   1.379  -8.647  1.00  0.00     0.227 C 
HETATM    4  C7  UNL     1     -24.093   0.440  -7.486  1.00  0.00     0.062 C 
HETATM    5  C8  UNL     1     -24.224   1.325  -6.268  1.00  0.00     0.111 C 
HETATM    6  C12 UNL     1     -23.731   2.694  -6.728  1.00  0.00     0.297 C 
HETATM    7  N3  UNL     1     -23.503   2.649  -8.124  1.00  0.00     0.097 N 
HETATM    8  C13 UNL     1     -22.075   2.750  -8.384  1.00  0.00     0.305 C 
ENDROOT
BRANCH   1   9
HETATM    9  N1  UNL     1     -20.549   1.709  -9.909  1.00  0.00    -0.066 N 
ATOM     10  H12 UNL     1     -20.082   1.587  -9.010  1.00  0.00     0.278 HD
ATOM     11  H11 UNL     1     -19.988   2.479 -10.276  1.00  0.00     0.278 HD
BRANCH   9  12
HETATM   12  C3  UNL     1     -20.424   0.522 -10.736  1.00  0.00     0.259 C 
BRANCH  12  13
HETATM   13  C2  UNL     1     -19.101   0.574 -11.404  1.00  0.00    -0.010 C 
HETATM   14  C1  UNL     1     -18.462   1.705 -11.677  1.00  0.00     0.008 C 
ENDBRANCH  12  13
ENDBRANCH   9  12
ENDBRANCH   1   9
BRANCH   5  15
HETATM   15  N2  UNL     1     -25.560   1.353  -5.837  1.00  0.00    -0.396 N 
ATOM     16  H2  UNL     1     -26.036   2.255  -5.796  1.00  0.00     0.159 HD
BRANCH  15  17
HETATM   17  C9  UNL     1     -26.268   0.220  -5.464  1.00  0.00     0.055 C 
BRANCH  17  18
HETATM   18  C10 UNL     1     -25.762  -0.617  -4.320  1.00  0.00     0.039 C 
HETATM   19  C11 UNL     1     -26.710  -1.596  -3.746  1.00  0.00     0.010 C 
ENDBRANCH  17  18
ENDBRANCH  15  17
ENDBRANCH   5  15
TORSDOF 6
ENDMDL
