MODEL 1
REMARK VINA RESULT: -7.005698064      0.000      0.000
REMARK  8 active torsions:
REMARK  status: ('A' for Active; 'I' for Inactive)
REMARK    1  A    between atoms: O1_2  and  C2_3 
REMARK    2  A    between atoms: C2_3  and  C3_4 
REMARK    3  A    between atoms: C3_4  and  O2_5 
REMARK    4  A    between atoms: O2_5  and  C4_6 
REMARK    5  A    between atoms: C10_12  and  N1_13 
REMARK    6  A    between atoms: C11_18  and  N3_19 
REMARK    7  A    between atoms: N3_19  and  N4_21 
REMARK    8  A    between atoms: N6_26  and  O3_27 
ROOT
HETATM    1  C4  UNL     1     -10.071  14.596  22.201  1.00  0.00     0.069 A 
HETATM    2  C5  UNL     1     -10.371  13.349  21.628  1.00  0.00     0.039 A 
HETATM    3  C6  UNL     1      -9.547  12.767  20.699  1.00  0.00     0.037 A 
HETATM    4  C7  UNL     1      -8.385  13.362  20.272  1.00  0.00     0.096 A 
HETATM    5  C8  UNL     1      -8.066  14.584  20.815  1.00  0.00     0.042 A 
HETATM    6  C9  UNL     1      -8.902  15.177  21.759  1.00  0.00     0.054 A 
HETATM    7  C10 UNL     1      -6.950  15.332  20.516  1.00  0.00     0.127 C 
HETATM    8  N2  UNL     1      -5.933  15.087  19.644  1.00  0.00    -0.173 N 
ATOM      9  H2  UNL     1      -5.150  15.740  19.649  1.00  0.00     0.186 HD
HETATM   10  C11 UNL     1      -5.869  14.060  18.778  1.00  0.00     0.714 C 
HETATM   11  N5  UNL     1      -6.569  12.918  18.744  1.00  0.00    -0.104 N 
ATOM     12  H5  UNL     1      -6.171  12.172  18.174  1.00  0.00     0.208 HD
HETATM   13  N6  UNL     1      -7.726  12.625  19.360  1.00  0.00    -0.148 N 
ENDROOT
BRANCH   1  14
HETATM   14  O2  UNL     1     -10.938  15.110  23.113  1.00  0.00    -0.349 OA
BRANCH  14  15
HETATM   15  C3  UNL     1     -11.810  16.158  23.034  1.00  0.00     0.201 C 
BRANCH  15  16
HETATM   16  C2  UNL     1     -11.537  17.030  21.856  1.00  0.00     0.193 C 
BRANCH  16  17
HETATM   17  O1  UNL     1     -10.726  18.113  22.099  1.00  0.00    -0.394 OA
HETATM   18  C1  UNL     1      -9.859  18.362  21.066  1.00  0.00     0.201 C 
ENDBRANCH  16  17
ENDBRANCH  15  16
ENDBRANCH  14  15
ENDBRANCH   1  14
BRANCH   7  19
HETATM   19  N1  UNL     1      -6.869  16.433  21.171  1.00  0.00    -0.384 N 
ATOM     20  H12 UNL     1      -5.928  16.716  21.447  1.00  0.00     0.157 HD
ATOM     21  H11 UNL     1      -7.768  16.886  21.333  1.00  0.00     0.157 HD
ENDBRANCH   7  19
BRANCH  13  22
HETATM   22  O3  UNL     1      -8.281  11.548  19.075  1.00  0.00    -0.267 OA
ATOM     23  H3  UNL     1      -7.941  10.796  19.547  1.00  0.00     0.247 HD
ENDBRANCH  13  22
BRANCH  10  24
HETATM   24  N3  UNL     1      -4.975  14.234  17.834  1.00  0.00    -0.137 N 
ATOM     25  H3  UNL     1      -4.881  13.528  17.104  1.00  0.00     0.205 HD
BRANCH  24  26
HETATM   26  N4  UNL     1      -4.158  15.352  17.803  1.00  0.00    -0.331 N 
ATOM     27  H42 UNL     1      -4.550  16.243  18.105  1.00  0.00     0.177 HD
ATOM     28  H41 UNL     1      -3.189  15.298  17.488  1.00  0.00     0.177 HD
ENDBRANCH  24  26
ENDBRANCH  10  24
TORSDOF 8
ENDMDL
MODEL 2
REMARK VINA RESULT: -6.255616272      2.207      3.999
REMARK  8 active torsions:
REMARK  status: ('A' for Active; 'I' for Inactive)
REMARK    1  A    between atoms: O1_2  and  C2_3 
REMARK    2  A    between atoms: C2_3  and  C3_4 
REMARK    3  A    between atoms: C3_4  and  O2_5 
REMARK    4  A    between atoms: O2_5  and  C4_6 
REMARK    5  A    between atoms: C10_12  and  N1_13 
REMARK    6  A    between atoms: C11_18  and  N3_19 
REMARK    7  A    between atoms: N3_19  and  N4_21 
REMARK    8  A    between atoms: N6_26  and  O3_27 
ROOT
HETATM    1  C4  UNL     1      -7.287  15.833  21.441  1.00  0.00     0.069 A 
HETATM    2  C5  UNL     1      -8.423  15.654  22.249  1.00  0.00     0.039 A 
HETATM    3  C6  UNL     1      -9.229  14.552  22.123  1.00  0.00     0.037 A 
HETATM    4  C7  UNL     1      -8.980  13.560  21.206  1.00  0.00     0.096 A 
HETATM    5  C8  UNL     1      -7.876  13.709  20.401  1.00  0.00     0.042 A 
HETATM    6  C9  UNL     1      -7.055  14.827  20.527  1.00  0.00     0.054 A 
HETATM    7  C10 UNL     1      -7.463  12.826  19.428  1.00  0.00     0.127 C 
HETATM    8  N2  UNL     1      -8.012  11.651  19.016  1.00  0.00    -0.173 N 
ATOM      9  H2  UNL     1      -7.484  11.105  18.336  1.00  0.00     0.186 HD
HETATM   10  C11 UNL     1      -9.189  11.145  19.425  1.00  0.00     0.714 C 
HETATM   11  N5  UNL     1      -9.940  11.464  20.489  1.00  0.00    -0.104 N 
ATOM     12  H5  UNL     1     -10.642  10.775  20.757  1.00  0.00     0.208 HD
HETATM   13  N6  UNL     1      -9.890  12.571  21.247  1.00  0.00    -0.148 N 
ENDROOT
BRANCH   1  14
HETATM   14  O2  UNL     1      -6.538  16.952  21.623  1.00  0.00    -0.349 OA
BRANCH  14  15
HETATM   15  C3  UNL     1      -6.771  18.255  21.286  1.00  0.00     0.201 C 
BRANCH  15  16
HETATM   16  C2  UNL     1      -8.045  18.422  20.530  1.00  0.00     0.193 C 
BRANCH  16  17
HETATM   17  O1  UNL     1      -9.085  18.973  21.241  1.00  0.00    -0.394 OA
HETATM   18  C1  UNL     1     -10.233  18.227  21.155  1.00  0.00     0.201 C 
ENDBRANCH  16  17
ENDBRANCH  15  16
ENDBRANCH  14  15
ENDBRANCH   1  14
BRANCH   7  19
HETATM   19  N1  UNL     1      -6.388  13.181  18.824  1.00  0.00    -0.384 N 
ATOM     20  H12 UNL     1      -6.519  13.676  17.941  1.00  0.00     0.157 HD
ATOM     21  H11 UNL     1      -5.532  12.918  19.311  1.00  0.00     0.157 HD
ENDBRANCH   7  19
BRANCH  13  22
HETATM   22  O3  UNL     1     -10.782  12.731  22.102  1.00  0.00    -0.267 OA
ATOM     23  H3  UNL     1     -11.655  12.833  21.742  1.00  0.00     0.247 HD
ENDBRANCH  13  22
BRANCH  10  24
HETATM   24  N3  UNL     1      -9.645  10.195  18.644  1.00  0.00    -0.137 N 
ATOM     25  H3  UNL     1      -9.137   9.313  18.586  1.00  0.00     0.205 HD
BRANCH  24  26
HETATM   26  N4  UNL     1     -10.799  10.360  17.896  1.00  0.00    -0.331 N 
ATOM     27  H42 UNL     1     -11.416  11.139  18.128  1.00  0.00     0.177 HD
ATOM     28  H41 UNL     1     -11.038   9.728  17.132  1.00  0.00     0.177 HD
ENDBRANCH  24  26
ENDBRANCH  10  24
TORSDOF 8
ENDMDL
MODEL 3
REMARK VINA RESULT: -6.115301835      2.395      4.251
REMARK  8 active torsions:
REMARK  status: ('A' for Active; 'I' for Inactive)
REMARK    1  A    between atoms: O1_2  and  C2_3 
REMARK    2  A    between atoms: C2_3  and  C3_4 
REMARK    3  A    between atoms: C3_4  and  O2_5 
REMARK    4  A    between atoms: O2_5  and  C4_6 
REMARK    5  A    between atoms: C10_12  and  N1_13 
REMARK    6  A    between atoms: C11_18  and  N3_19 
REMARK    7  A    between atoms: N3_19  and  N4_21 
REMARK    8  A    between atoms: N6_26  and  O3_27 
ROOT
HETATM    1  C4  UNL     1     -10.520  13.155  21.509  1.00  0.00     0.069 A 
HETATM    2  C5  UNL     1     -10.792  14.509  21.764  1.00  0.00     0.039 A 
HETATM    3  C6  UNL     1      -9.961  15.506  21.321  1.00  0.00     0.037 A 
HETATM    4  C7  UNL     1      -8.818  15.245  20.606  1.00  0.00     0.096 A 
HETATM    5  C8  UNL     1      -8.525  13.929  20.342  1.00  0.00     0.042 A 
HETATM    6  C9  UNL     1      -9.368  12.915  20.791  1.00  0.00     0.054 A 
HETATM    7  C10 UNL     1      -7.431  13.471  19.643  1.00  0.00     0.127 C 
HETATM    8  N2  UNL     1      -6.400  14.154  19.075  1.00  0.00    -0.173 N 
ATOM      9  H2  UNL     1      -5.737  13.616  18.519  1.00  0.00     0.186 HD
HETATM   10  C11 UNL     1      -6.178  15.476  19.182  1.00  0.00     0.714 C 
HETATM   11  N5  UNL     1      -7.000  16.458  19.578  1.00  0.00    -0.104 N 
ATOM     12  H5  UNL     1      -6.717  17.403  19.320  1.00  0.00     0.208 HD
HETATM   13  N6  UNL     1      -8.148  16.362  20.269  1.00  0.00    -0.148 N 
ENDROOT
BRANCH   1  14
HETATM   14  O2  UNL     1     -11.389  12.223  21.983  1.00  0.00    -0.349 OA
BRANCH  14  15
HETATM   15  C3  UNL     1     -12.276  12.267  23.020  1.00  0.00     0.201 C 
BRANCH  15  16
HETATM   16  C2  UNL     1     -12.775  10.911  23.391  1.00  0.00     0.193 C 
BRANCH  16  17
HETATM   17  O1  UNL     1     -12.978  10.706  24.735  1.00  0.00    -0.394 OA
HETATM   18  C1  UNL     1     -12.982   9.375  25.068  1.00  0.00     0.201 C 
ENDBRANCH  16  17
ENDBRANCH  15  16
ENDBRANCH  14  15
ENDBRANCH   1  14
BRANCH   7  19
HETATM   19  N1  UNL     1      -7.391  12.194  19.515  1.00  0.00    -0.384 N 
ATOM     20  H12 UNL     1      -8.267  11.703  19.691  1.00  0.00     0.157 HD
ATOM     21  H11 UNL     1      -6.474  11.833  19.251  1.00  0.00     0.157 HD
ENDBRANCH   7  19
BRANCH  13  22
HETATM   22  O3  UNL     1      -8.682  17.417  20.659  1.00  0.00    -0.267 OA
ATOM     23  H3  UNL     1      -8.457  18.182  20.144  1.00  0.00     0.247 HD
ENDBRANCH  13  22
BRANCH  10  24
HETATM   24  N3  UNL     1      -4.961  15.827  18.839  1.00  0.00    -0.137 N 
ATOM     25  H3  UNL     1      -4.503  16.587  19.342  1.00  0.00     0.205 HD
BRANCH  24  26
HETATM   26  N4  UNL     1      -4.283  15.191  17.812  1.00  0.00    -0.331 N 
ATOM     27  H42 UNL     1      -3.615  14.461  18.057  1.00  0.00     0.177 HD
ATOM     28  H41 UNL     1      -4.439  15.437  16.835  1.00  0.00     0.177 HD
ENDBRANCH  24  26
ENDBRANCH  10  24
TORSDOF 8
ENDMDL
MODEL 4
REMARK VINA RESULT: -6.022335669      2.140      3.974
REMARK  8 active torsions:
REMARK  status: ('A' for Active; 'I' for Inactive)
REMARK    1  A    between atoms: O1_2  and  C2_3 
REMARK    2  A    between atoms: C2_3  and  C3_4 
REMARK    3  A    between atoms: C3_4  and  O2_5 
REMARK    4  A    between atoms: O2_5  and  C4_6 
REMARK    5  A    between atoms: C10_12  and  N1_13 
REMARK    6  A    between atoms: C11_18  and  N3_19 
REMARK    7  A    between atoms: N3_19  and  N4_21 
REMARK    8  A    between atoms: N6_26  and  O3_27 
ROOT
HETATM    1  C4  UNL     1      -9.762  17.110  21.214  1.00  0.00     0.069 A 
HETATM    2  C5  UNL     1     -10.825  16.546  21.941  1.00  0.00     0.039 A 
HETATM    3  C6  UNL     1     -11.029  15.191  21.981  1.00  0.00     0.037 A 
HETATM    4  C7  UNL     1     -10.214  14.305  21.320  1.00  0.00     0.096 A 
HETATM    5  C8  UNL     1      -9.167  14.828  20.600  1.00  0.00     0.042 A 
HETATM    6  C9  UNL     1      -8.958  16.204  20.557  1.00  0.00     0.054 A 
HETATM    7  C10 UNL     1      -8.247  14.105  19.874  1.00  0.00     0.127 C 
HETATM    8  N2  UNL     1      -8.143  12.762  19.674  1.00  0.00    -0.173 N 
ATOM      9  H2  UNL     1      -7.320  12.431  19.172  1.00  0.00     0.186 HD
HETATM   10  C11 UNL     1      -9.028  11.835  20.079  1.00  0.00     0.714 C 
HETATM   11  N5  UNL     1     -10.015  11.922  20.982  1.00  0.00    -0.104 N 
ATOM     12  H5  UNL     1     -10.377  11.034  21.329  1.00  0.00     0.208 HD
HETATM   13  N6  UNL     1     -10.589  13.024  21.491  1.00  0.00    -0.148 N 
ENDROOT
BRANCH   1  14
HETATM   14  O2  UNL     1      -9.626  18.463  21.218  1.00  0.00    -0.349 OA
BRANCH  14  15
HETATM   15  C3  UNL     1      -8.557  19.260  20.925  1.00  0.00     0.201 C 
BRANCH  15  16
HETATM   16  C2  UNL     1      -7.329  18.468  20.628  1.00  0.00     0.193 C 
BRANCH  16  17
HETATM   17  O1  UNL     1      -6.477  18.280  21.691  1.00  0.00    -0.394 OA
HETATM   18  C1  UNL     1      -5.940  17.018  21.716  1.00  0.00     0.201 C 
ENDBRANCH  16  17
ENDBRANCH  15  16
ENDBRANCH  14  15
ENDBRANCH   1  14
BRANCH   7  19
HETATM   19  N1  UNL     1      -7.351  14.825  19.303  1.00  0.00    -0.384 N 
ATOM     20  H12 UNL     1      -7.086  15.676  19.797  1.00  0.00     0.157 HD
ATOM     21  H11 UNL     1      -7.018  14.445  18.416  1.00  0.00     0.157 HD
ENDBRANCH   7  19
BRANCH  13  22
HETATM   22  O3  UNL     1     -11.593  12.877  22.213  1.00  0.00    -0.267 OA
ATOM     23  H3  UNL     1     -12.361  13.349  21.914  1.00  0.00     0.247 HD
ENDBRANCH  13  22
BRANCH  10  24
HETATM   24  N3  UNL     1      -8.877  10.678  19.479  1.00  0.00    -0.137 N 
ATOM     25  H3  UNL     1      -8.022  10.145  19.636  1.00  0.00     0.205 HD
BRANCH  24  26
HETATM   26  N4  UNL     1      -9.850  10.161  18.639  1.00  0.00    -0.331 N 
ATOM     27  H42 UNL     1      -9.587   9.407  18.005  1.00  0.00     0.177 HD
ATOM     28  H41 UNL     1     -10.807  10.516  18.645  1.00  0.00     0.177 HD
ENDBRANCH  24  26
ENDBRANCH  10  24
TORSDOF 8
ENDMDL
MODEL 5
REMARK VINA RESULT: -5.953946569      2.182      3.978
REMARK  8 active torsions:
REMARK  status: ('A' for Active; 'I' for Inactive)
REMARK    1  A    between atoms: O1_2  and  C2_3 
REMARK    2  A    between atoms: C2_3  and  C3_4 
REMARK    3  A    between atoms: C3_4  and  O2_5 
REMARK    4  A    between atoms: O2_5  and  C4_6 
REMARK    5  A    between atoms: C10_12  and  N1_13 
REMARK    6  A    between atoms: C11_18  and  N3_19 
REMARK    7  A    between atoms: N3_19  and  N4_21 
REMARK    8  A    between atoms: N6_26  and  O3_27 
ROOT
HETATM    1  C4  UNL     1      -6.744  16.725  21.016  1.00  0.00     0.069 A 
HETATM    2  C5  UNL     1      -5.852  16.364  19.992  1.00  0.00     0.039 A 
HETATM    3  C6  UNL     1      -5.956  15.162  19.339  1.00  0.00     0.037 A 
HETATM    4  C7  UNL     1      -6.931  14.243  19.641  1.00  0.00     0.096 A 
HETATM    5  C8  UNL     1      -7.817  14.570  20.639  1.00  0.00     0.042 A 
HETATM    6  C9  UNL     1      -7.713  15.789  21.304  1.00  0.00     0.054 A 
HETATM    7  C10 UNL     1      -8.857  13.784  21.083  1.00  0.00     0.127 C 
HETATM    8  N2  UNL     1      -9.253  12.543  20.688  1.00  0.00    -0.173 N 
ATOM      9  H2  UNL     1     -10.116  12.181  21.091  1.00  0.00     0.186 HD
HETATM   10  C11 UNL     1      -8.606  11.751  19.814  1.00  0.00     0.714 C 
HETATM   11  N5  UNL     1      -7.648  12.051  18.926  1.00  0.00    -0.104 N 
ATOM     12  H5  UNL     1      -7.501  11.366  18.185  1.00  0.00     0.208 HD
HETATM   13  N6  UNL     1      -6.855  13.134  18.884  1.00  0.00    -0.148 N 
ENDROOT
BRANCH   1  14
HETATM   14  O2  UNL     1      -6.575  17.932  21.619  1.00  0.00    -0.349 OA
BRANCH  14  15
HETATM   15  C3  UNL     1      -7.087  19.163  21.325  1.00  0.00     0.201 C 
BRANCH  15  16
HETATM   16  C2  UNL     1      -8.389  19.075  20.604  1.00  0.00     0.193 C 
BRANCH  16  17
HETATM   17  O1  UNL     1      -9.498  18.937  21.406  1.00  0.00    -0.394 OA
HETATM   18  C1  UNL     1     -10.246  17.834  21.082  1.00  0.00     0.201 C 
ENDBRANCH  16  17
ENDBRANCH  15  16
ENDBRANCH  14  15
ENDBRANCH   1  14
BRANCH   7  19
HETATM   19  N1  UNL     1      -9.555  14.321  22.016  1.00  0.00    -0.384 N 
ATOM     20  H12 UNL     1      -9.534  15.340  22.055  1.00  0.00     0.157 HD
ATOM     21  H11 UNL     1     -10.047  13.648  22.605  1.00  0.00     0.157 HD
ENDBRANCH   7  19
BRANCH  13  22
HETATM   22  O3  UNL     1      -5.928  13.144  18.053  1.00  0.00    -0.267 OA
ATOM     23  H3  UNL     1      -5.777  12.309  17.627  1.00  0.00     0.247 HD
ENDBRANCH  13  22
BRANCH  10  24
HETATM   24  N3  UNL     1      -8.996  10.500  19.862  1.00  0.00    -0.137 N 
ATOM     25  H3  UNL     1      -8.763   9.937  20.680  1.00  0.00     0.205 HD
BRANCH  24  26
HETATM   26  N4  UNL     1      -9.718   9.923  18.829  1.00  0.00    -0.331 N 
ATOM     27  H42 UNL     1     -10.109   8.993  18.977  1.00  0.00     0.177 HD
ATOM     28  H41 UNL     1      -9.860  10.403  17.941  1.00  0.00     0.177 HD
ENDBRANCH  24  26
ENDBRANCH  10  24
TORSDOF 8
ENDMDL
