MODEL 1
REMARK VINA RESULT: -8.275358242      0.000      0.000
REMARK  4 active torsions:
REMARK  status: ('A' for Active; 'I' for Inactive)
REMARK    1  A    between atoms: C4_8  and  N2_9 
REMARK    2  A    between atoms: N2_9  and  N3_11 
REMARK    3  A    between atoms: N3_11  and  S1_13 
REMARK    4  A    between atoms: S1_13  and  C5_16 
ROOT
HETATM    1  N2  UNL     1      -7.952  13.133  20.486  1.00  0.00    -0.300 N 
ATOM      2  H2  UNL     1      -7.437  12.430  19.957  1.00  0.00     0.186 HD
ENDROOT
BRANCH   1   3
HETATM    3  C4  UNL     1      -7.578  14.503  20.382  1.00  0.00     0.143 C 
HETATM    4  C3  UNL     1      -6.543  14.856  19.634  1.00  0.00     0.122 A 
HETATM    5  C2  UNL     1      -6.042  16.209  19.431  1.00  0.00     0.277 A 
HETATM    6  N4  UNL     1      -5.691  13.987  18.864  1.00  0.00    -0.303 N 
HETATM    7  N1  UNL     1      -4.927  16.101  18.561  1.00  0.00    -0.274 N 
HETATM    8  O2  UNL     1      -6.524  17.273  19.942  1.00  0.00    -0.266 OA
HETATM    9  C1  UNL     1      -4.695  14.749  18.202  1.00  0.00     0.327 A 
ATOM     10  H1  UNL     1      -4.368  16.890  18.236  1.00  0.00     0.173 HD
HETATM   11  O1  UNL     1      -3.770  14.342  17.438  1.00  0.00    -0.247 OA
ATOM     12  H4  UNL     1      -5.789  12.974  18.804  1.00  0.00     0.171 HD
ENDBRANCH   1   3
BRANCH   1  13
HETATM   13  N3  UNL     1      -8.973  12.754  21.273  1.00  0.00    -0.223 N 
ATOM     14  H3  UNL     1      -8.817  12.110  22.049  1.00  0.00     0.200 HD
BRANCH  13  15
HETATM   15  S1  UNL     1     -10.506  13.354  20.961  1.00  0.00     0.276 S 
HETATM   16  O3  UNL     1     -11.513  12.629  21.830  1.00  0.00    -0.199 OA
HETATM   17  O4  UNL     1     -10.916  13.087  19.525  1.00  0.00    -0.199 OA
BRANCH  15  18
HETATM   18  C5  UNL     1     -10.674  15.045  21.254  1.00  0.00     0.081 A 
HETATM   19  C6  UNL     1     -11.297  15.539  22.381  1.00  0.00     0.025 A 
HETATM   20  C7  UNL     1     -11.403  16.917  22.563  1.00  0.00     0.002 A 
HETATM   21  C8  UNL     1     -10.895  17.808  21.636  1.00  0.00     0.000 A 
HETATM   22  C9  UNL     1     -10.275  17.316  20.514  1.00  0.00     0.002 A 
HETATM   23  C10 UNL     1     -10.173  15.945  20.338  1.00  0.00     0.025 A 
ENDBRANCH  15  18
ENDBRANCH  13  15
ENDBRANCH   1  13
TORSDOF 4
ENDMDL
MODEL 2
REMARK VINA RESULT: -8.267254227      0.072      1.090
REMARK  4 active torsions:
REMARK  status: ('A' for Active; 'I' for Inactive)
REMARK    1  A    between atoms: C4_8  and  N2_9 
REMARK    2  A    between atoms: N2_9  and  N3_11 
REMARK    3  A    between atoms: N3_11  and  S1_13 
REMARK    4  A    between atoms: S1_13  and  C5_16 
ROOT
HETATM    1  N2  UNL     1      -7.876  13.109  20.522  1.00  0.00    -0.300 N 
ATOM      2  H2  UNL     1      -7.340  12.409  20.010  1.00  0.00     0.186 HD
ENDROOT
BRANCH   1   3
HETATM    3  C4  UNL     1      -7.523  14.483  20.411  1.00  0.00     0.143 C 
HETATM    4  C3  UNL     1      -6.500  14.848  19.653  1.00  0.00     0.122 A 
HETATM    5  C2  UNL     1      -6.020  16.208  19.441  1.00  0.00     0.277 A 
HETATM    6  N4  UNL     1      -5.643  13.990  18.877  1.00  0.00    -0.303 N 
HETATM    7  N1  UNL     1      -4.913  16.114  18.560  1.00  0.00    -0.274 N 
HETATM    8  O2  UNL     1      -6.512  17.267  19.954  1.00  0.00    -0.266 OA
HETATM    9  C1  UNL     1      -4.664  14.765  18.203  1.00  0.00     0.327 A 
ATOM     10  H1  UNL     1      -4.368  16.910  18.228  1.00  0.00     0.173 HD
HETATM   11  O1  UNL     1      -3.740  14.368  17.431  1.00  0.00    -0.247 OA
ATOM     12  H4  UNL     1      -5.727  12.975  18.820  1.00  0.00     0.171 HD
ENDBRANCH   1   3
BRANCH   1  13
HETATM   13  N3  UNL     1      -8.906  12.721  21.293  1.00  0.00    -0.223 N 
ATOM     14  H3  UNL     1      -8.756  12.080  22.073  1.00  0.00     0.200 HD
BRANCH  13  15
HETATM   15  S1  UNL     1     -10.440  13.304  20.955  1.00  0.00     0.276 S 
HETATM   16  O3  UNL     1     -11.447  12.607  21.846  1.00  0.00    -0.199 OA
HETATM   17  O4  UNL     1     -10.844  12.984  19.528  1.00  0.00    -0.199 OA
BRANCH  15  18
HETATM   18  C5  UNL     1     -10.614  15.004  21.186  1.00  0.00     0.081 A 
HETATM   19  C6  UNL     1     -10.135  15.924  20.276  1.00  0.00     0.025 A 
HETATM   20  C7  UNL     1     -10.305  17.286  20.518  1.00  0.00     0.002 A 
HETATM   21  C8  UNL     1     -10.947  17.742  21.655  1.00  0.00     0.000 A 
HETATM   22  C9  UNL     1     -11.424  16.826  22.560  1.00  0.00     0.002 A 
HETATM   23  C10 UNL     1     -11.251  15.473  22.315  1.00  0.00     0.025 A 
ENDBRANCH  15  18
ENDBRANCH  13  15
ENDBRANCH   1  13
TORSDOF 4
ENDMDL
MODEL 3
REMARK VINA RESULT: -8.050074961      1.029      2.228
REMARK  4 active torsions:
REMARK  status: ('A' for Active; 'I' for Inactive)
REMARK    1  A    between atoms: C4_8  and  N2_9 
REMARK    2  A    between atoms: N2_9  and  N3_11 
REMARK    3  A    between atoms: N3_11  and  S1_13 
REMARK    4  A    between atoms: S1_13  and  C5_16 
ROOT
HETATM    1  N2  UNL     1      -7.919  12.204  20.206  1.00  0.00    -0.300 N 
ATOM      2  H2  UNL     1      -8.020  11.194  20.110  1.00  0.00     0.186 HD
ENDROOT
BRANCH   1   3
HETATM    3  C4  UNL     1      -7.074  12.914  19.307  1.00  0.00     0.143 C 
HETATM    4  C3  UNL     1      -6.660  14.136  19.607  1.00  0.00     0.122 A 
HETATM    5  C2  UNL     1      -5.798  14.983  18.793  1.00  0.00     0.277 A 
HETATM    6  N4  UNL     1      -6.969  14.892  20.794  1.00  0.00    -0.303 N 
HETATM    7  N1  UNL     1      -5.626  16.194  19.512  1.00  0.00    -0.274 N 
HETATM    8  O2  UNL     1      -5.302  14.680  17.658  1.00  0.00    -0.266 OA
HETATM    9  C1  UNL     1      -6.334  16.159  20.739  1.00  0.00     0.327 A 
ATOM     10  H1  UNL     1      -5.066  16.984  19.188  1.00  0.00     0.173 HD
HETATM   11  O1  UNL     1      -6.369  17.095  21.592  1.00  0.00    -0.247 OA
ATOM     12  H4  UNL     1      -7.557  14.565  21.560  1.00  0.00     0.171 HD
ENDBRANCH   1   3
BRANCH   1  13
HETATM   13  N3  UNL     1      -8.586  12.847  21.180  1.00  0.00    -0.223 N 
ATOM     14  H3  UNL     1      -8.131  13.051  22.070  1.00  0.00     0.200 HD
BRANCH  13  15
HETATM   15  S1  UNL     1     -10.175  13.306  20.911  1.00  0.00     0.276 S 
HETATM   16  O3  UNL     1     -11.083  12.537  21.849  1.00  0.00    -0.199 OA
HETATM   17  O4  UNL     1     -10.617  12.948  19.505  1.00  0.00    -0.199 OA
BRANCH  15  18
HETATM   18  C5  UNL     1     -10.471  14.988  21.148  1.00  0.00     0.081 A 
HETATM   19  C6  UNL     1      -9.986  15.950  20.286  1.00  0.00     0.025 A 
HETATM   20  C7  UNL     1     -10.258  17.295  20.530  1.00  0.00     0.002 A 
HETATM   21  C8  UNL     1     -11.009  17.693  21.621  1.00  0.00     0.000 A 
HETATM   22  C9  UNL     1     -11.492  16.735  22.478  1.00  0.00     0.002 A 
HETATM   23  C10 UNL     1     -11.218  15.399  22.232  1.00  0.00     0.025 A 
ENDBRANCH  15  18
ENDBRANCH  13  15
ENDBRANCH   1  13
TORSDOF 4
ENDMDL
MODEL 4
REMARK VINA RESULT: -8.049776979      1.024      1.943
REMARK  4 active torsions:
REMARK  status: ('A' for Active; 'I' for Inactive)
REMARK    1  A    between atoms: C4_8  and  N2_9 
REMARK    2  A    between atoms: N2_9  and  N3_11 
REMARK    3  A    between atoms: N3_11  and  S1_13 
REMARK    4  A    between atoms: S1_13  and  C5_16 
ROOT
HETATM    1  N2  UNL     1      -7.953  12.214  20.223  1.00  0.00    -0.300 N 
ATOM      2  H2  UNL     1      -8.061  11.205  20.130  1.00  0.00     0.186 HD
ENDROOT
BRANCH   1   3
HETATM    3  C4  UNL     1      -7.106  12.916  19.319  1.00  0.00     0.143 C 
HETATM    4  C3  UNL     1      -6.684  14.136  19.614  1.00  0.00     0.122 A 
HETATM    5  C2  UNL     1      -5.819  14.976  18.794  1.00  0.00     0.277 A 
HETATM    6  N4  UNL     1      -6.982  14.898  20.799  1.00  0.00    -0.303 N 
HETATM    7  N1  UNL     1      -5.636  16.187  19.508  1.00  0.00    -0.274 N 
HETATM    8  O2  UNL     1      -5.330  14.666  17.658  1.00  0.00    -0.266 OA
HETATM    9  C1  UNL     1      -6.340  16.160  20.738  1.00  0.00     0.327 A 
ATOM     10  H1  UNL     1      -5.073  16.972  19.180  1.00  0.00     0.173 HD
HETATM   11  O1  UNL     1      -6.366  17.099  21.589  1.00  0.00    -0.247 OA
ATOM     12  H4  UNL     1      -7.569  14.576  21.569  1.00  0.00     0.171 HD
ENDBRANCH   1   3
BRANCH   1  13
HETATM   13  N3  UNL     1      -8.609  12.863  21.199  1.00  0.00    -0.223 N 
ATOM     14  H3  UNL     1      -8.146  13.076  22.083  1.00  0.00     0.200 HD
BRANCH  13  15
HETATM   15  S1  UNL     1     -10.202  13.319  20.944  1.00  0.00     0.276 S 
HETATM   16  O3  UNL     1     -11.103  12.518  21.861  1.00  0.00    -0.199 OA
HETATM   17  O4  UNL     1     -10.643  12.995  19.529  1.00  0.00    -0.199 OA
BRANCH  15  18
HETATM   18  C5  UNL     1     -10.510  14.991  21.227  1.00  0.00     0.081 A 
HETATM   19  C6  UNL     1     -11.261  15.432  22.297  1.00  0.00     0.025 A 
HETATM   20  C7  UNL     1     -11.477  16.798  22.473  1.00  0.00     0.002 A 
HETATM   21  C8  UNL     1     -10.953  17.729  21.596  1.00  0.00     0.000 A 
HETATM   22  C9  UNL     1     -10.205  17.291  20.530  1.00  0.00     0.002 A 
HETATM   23  C10 UNL     1      -9.995  15.932  20.360  1.00  0.00     0.025 A 
ENDBRANCH  15  18
ENDBRANCH  13  15
ENDBRANCH   1  13
TORSDOF 4
ENDMDL
MODEL 5
REMARK VINA RESULT: -8.036358566      2.599      3.615
REMARK  4 active torsions:
REMARK  status: ('A' for Active; 'I' for Inactive)
REMARK    1  A    between atoms: C4_8  and  N2_9 
REMARK    2  A    between atoms: N2_9  and  N3_11 
REMARK    3  A    between atoms: N3_11  and  S1_13 
REMARK    4  A    between atoms: S1_13  and  C5_16 
ROOT
HETATM    1  N2  UNL     1      -7.363  17.042  21.075  1.00  0.00    -0.300 N 
ATOM      2  H2  UNL     1      -7.207  16.654  22.005  1.00  0.00     0.186 HD
ENDROOT
BRANCH   1   3
HETATM    3  C4  UNL     1      -6.556  16.604  19.987  1.00  0.00     0.143 C 
HETATM    4  C3  UNL     1      -6.568  15.332  19.619  1.00  0.00     0.122 A 
HETATM    5  C2  UNL     1      -5.800  14.737  18.532  1.00  0.00     0.277 A 
HETATM    6  N4  UNL     1      -7.335  14.264  20.206  1.00  0.00    -0.303 N 
HETATM    7  N1  UNL     1      -6.132  13.358  18.511  1.00  0.00    -0.274 N 
HETATM    8  O2  UNL     1      -4.992  15.350  17.760  1.00  0.00    -0.266 OA
HETATM    9  C1  UNL     1      -7.069  13.047  19.528  1.00  0.00     0.327 A 
ATOM     10  H1  UNL     1      -5.747  12.681  17.851  1.00  0.00     0.173 HD
HETATM   11  O1  UNL     1      -7.551  11.898  19.754  1.00  0.00    -0.247 OA
ATOM     12  H4  UNL     1      -7.974  14.367  20.994  1.00  0.00     0.171 HD
ENDBRANCH   1   3
BRANCH   1  13
HETATM   13  N3  UNL     1      -8.328  17.958  20.893  1.00  0.00    -0.223 N 
ATOM     14  H3  UNL     1      -8.088  18.933  20.711  1.00  0.00     0.200 HD
BRANCH  13  15
HETATM   15  S1  UNL     1      -9.932  17.477  20.969  1.00  0.00     0.276 S 
HETATM   16  O3  UNL     1     -10.640  17.898  19.697  1.00  0.00    -0.199 OA
HETATM   17  O4  UNL     1     -10.657  18.171  22.106  1.00  0.00    -0.199 OA
BRANCH  15  18
HETATM   18  C5  UNL     1     -10.149  15.777  21.159  1.00  0.00     0.081 A 
HETATM   19  C6  UNL     1      -9.934  15.138  22.362  1.00  0.00     0.025 A 
HETATM   20  C7  UNL     1     -10.126  13.760  22.455  1.00  0.00     0.002 A 
HETATM   21  C8  UNL     1     -10.529  13.013  21.363  1.00  0.00     0.000 A 
HETATM   22  C9  UNL     1     -10.743  13.651  20.166  1.00  0.00     0.002 A 
HETATM   23  C10 UNL     1     -10.550  15.020  20.079  1.00  0.00     0.025 A 
ENDBRANCH  15  18
ENDBRANCH  13  15
ENDBRANCH   1  13
TORSDOF 4
ENDMDL
