MODEL 1
REMARK VINA RESULT: -6.954720346      0.000      0.000
REMARK  3 active torsions:
REMARK  status: ('A' for Active; 'I' for Inactive)
REMARK    1  A    between atoms: C4_4  and  C5_5 
REMARK    2  A    between atoms: N1_7  and  C7_8 
REMARK    3  A    between atoms: C10_13  and  N3_14 
ROOT
HETATM    1  C7  UNL     1      -0.007   8.454  22.524  1.00  0.00     0.120 A 
HETATM    2  C8  UNL     1      -1.369   8.294  22.580  1.00  0.00     0.066 A 
HETATM    3  C9  UNL     1      -2.068   8.802  23.669  1.00  0.00     0.110 A 
HETATM    4  N2  UNL     1      -1.388   9.428  24.625  1.00  0.00    -0.202 N 
ATOM      5  H2  UNL     1      -1.907   9.798  25.422  1.00  0.00     0.183 HD
HETATM    6  C10 UNL     1      -0.056   9.602  24.603  1.00  0.00     0.681 A 
HETATM    7  N5  UNL     1       0.594   9.101  23.537  1.00  0.00    -0.177 N 
ATOM      8  H5  UNL     1       1.606   9.219  23.495  1.00  0.00     0.186 HD
ENDROOT
BRANCH   1   9
HETATM    9  N1  UNL     1       0.776   7.953  21.431  1.00  0.00    -0.363 N 
HETATM   10  C6  UNL     1       1.570   8.843  20.603  1.00  0.00     0.162 C 
HETATM   11  C5  UNL     1       1.905   8.207  19.306  1.00  0.00     0.236 C 
HETATM   12  N6  UNL     1       0.779   7.388  18.878  1.00  0.00    -0.064 N 
HETATM   13  C16 UNL     1       0.597   6.238  19.716  1.00  0.00     0.253 C 
ATOM     14  H62 UNL     1      -0.076   7.939  18.817  1.00  0.00     0.278 HD
ATOM     15  H61 UNL     1       0.869   7.120  17.898  1.00  0.00     0.278 HD
HETATM   16  C15 UNL     1       0.772   6.546  21.160  1.00  0.00     0.152 C 
BRANCH  11  17
HETATM   17  C4  UNL     1       3.182   7.515  19.207  1.00  0.00    -0.026 A 
HETATM   18  C3  UNL     1       3.966   7.324  20.357  1.00  0.00     0.009 A 
HETATM   19  C2  UNL     1       5.177   6.676  20.317  1.00  0.00     0.001 A 
HETATM   20  C1  UNL     1       5.674   6.181  19.132  1.00  0.00     0.000 A 
HETATM   21  C18 UNL     1       4.934   6.349  17.985  1.00  0.00     0.001 A 
HETATM   22  C17 UNL     1       3.701   7.014  18.047  1.00  0.00     0.009 A 
ENDBRANCH  11  17
ENDBRANCH   1   9
BRANCH   6  23
HETATM   23  N3  UNL     1       0.612  10.281  25.655  1.00  0.00    -0.214 N 
HETATM   24  C11 UNL     1       1.507  11.352  25.320  1.00  0.00     0.168 C 
HETATM   25  C12 UNL     1       2.408  11.743  26.464  1.00  0.00     0.252 C 
HETATM   26  N4  UNL     1       2.651  10.633  27.365  1.00  0.00    -0.072 N 
HETATM   27  C13 UNL     1       1.392  10.270  27.984  1.00  0.00     0.252 C 
ATOM     28  H42 UNL     1       3.104   9.844  26.904  1.00  0.00     0.277 HD
ATOM     29  H41 UNL     1       3.382  10.833  28.048  1.00  0.00     0.277 HD
HETATM   30  C14 UNL     1       0.347   9.848  27.009  1.00  0.00     0.168 C 
ENDBRANCH   6  23
TORSDOF 3
ENDMDL
MODEL 2
REMARK VINA RESULT: -6.948117335      3.869      6.099
REMARK  3 active torsions:
REMARK  status: ('A' for Active; 'I' for Inactive)
REMARK    1  A    between atoms: C4_4  and  C5_5 
REMARK    2  A    between atoms: N1_7  and  C7_8 
REMARK    3  A    between atoms: C10_13  and  N3_14 
ROOT
HETATM    1  C7  UNL     1      -1.488   8.003  19.544  1.00  0.00     0.120 A 
HETATM    2  C8  UNL     1      -2.259   6.873  19.443  1.00  0.00     0.066 A 
HETATM    3  C9  UNL     1      -3.601   6.994  19.098  1.00  0.00     0.110 A 
HETATM    4  N2  UNL     1      -4.092   8.210  18.877  1.00  0.00    -0.202 N 
ATOM      5  H2  UNL     1      -5.077   8.292  18.625  1.00  0.00     0.183 HD
HETATM    6  C10 UNL     1      -3.366   9.337  18.967  1.00  0.00     0.681 A 
HETATM    7  N5  UNL     1      -2.073   9.189  19.302  1.00  0.00    -0.177 N 
ATOM      8  H5  UNL     1      -1.499  10.029  19.377  1.00  0.00     0.186 HD
ENDROOT
BRANCH   1   9
HETATM    9  N1  UNL     1      -0.099   7.950  19.897  1.00  0.00    -0.363 N 
HETATM   10  C6  UNL     1       0.557   6.688  20.190  1.00  0.00     0.162 C 
HETATM   11  C5  UNL     1       1.808   6.902  20.955  1.00  0.00     0.236 C 
HETATM   12  N6  UNL     1       1.616   8.020  21.870  1.00  0.00    -0.064 N 
HETATM   13  C16 UNL     1       1.492   9.270  21.178  1.00  0.00     0.253 C 
ATOM     14  H62 UNL     1       0.821   7.859  22.487  1.00  0.00     0.278 HD
ATOM     15  H61 UNL     1       2.358   8.057  22.569  1.00  0.00     0.278 HD
HETATM   16  C15 UNL     1       0.651   9.169  19.956  1.00  0.00     0.152 C 
BRANCH  11  17
HETATM   17  C4  UNL     1       3.051   6.991  20.202  1.00  0.00    -0.026 A 
HETATM   18  C3  UNL     1       3.042   6.787  18.812  1.00  0.00     0.009 A 
HETATM   19  C2  UNL     1       4.186   6.863  18.055  1.00  0.00     0.001 A 
HETATM   20  C1  UNL     1       5.401   7.146  18.638  1.00  0.00     0.000 A 
HETATM   21  C18 UNL     1       5.448   7.352  19.997  1.00  0.00     0.001 A 
HETATM   22  C17 UNL     1       4.270   7.270  20.751  1.00  0.00     0.009 A 
ENDBRANCH  11  17
ENDBRANCH   1   9
BRANCH   6  23
HETATM   23  N3  UNL     1      -3.951  10.606  18.717  1.00  0.00    -0.214 N 
HETATM   24  C11 UNL     1      -5.140  10.668  17.916  1.00  0.00     0.168 C 
HETATM   25  C12 UNL     1      -5.449  12.062  17.432  1.00  0.00     0.252 C 
HETATM   26  N4  UNL     1      -4.251  12.869  17.305  1.00  0.00    -0.072 N 
HETATM   27  C13 UNL     1      -3.685  13.046  18.626  1.00  0.00     0.252 C 
ATOM     28  H42 UNL     1      -3.584  12.480  16.640  1.00  0.00     0.277 HD
ATOM     29  H41 UNL     1      -4.422  13.754  16.828  1.00  0.00     0.277 HD
HETATM   30  C14 UNL     1      -3.306  11.767  19.291  1.00  0.00     0.168 C 
ENDBRANCH   6  23
TORSDOF 3
ENDMDL
MODEL 3
REMARK VINA RESULT: -6.908685613      0.703      1.120
REMARK  3 active torsions:
REMARK  status: ('A' for Active; 'I' for Inactive)
REMARK    1  A    between atoms: C4_4  and  C5_5 
REMARK    2  A    between atoms: N1_7  and  C7_8 
REMARK    3  A    between atoms: C10_13  and  N3_14 
ROOT
HETATM    1  C7  UNL     1       0.012   8.408  22.631  1.00  0.00     0.120 A 
HETATM    2  C8  UNL     1      -1.346   8.598  22.575  1.00  0.00     0.066 A 
HETATM    3  C9  UNL     1      -2.017   9.039  23.710  1.00  0.00     0.110 A 
HETATM    4  N2  UNL     1      -1.314   9.264  24.817  1.00  0.00    -0.202 N 
ATOM      5  H2  UNL     1      -1.813   9.587  25.646  1.00  0.00     0.183 HD
HETATM    6  C10 UNL     1       0.015   9.089  24.906  1.00  0.00     0.681 A 
HETATM    7  N5  UNL     1       0.637   8.662  23.794  1.00  0.00    -0.177 N 
ATOM      8  H5  UNL     1       1.646   8.520  23.834  1.00  0.00     0.186 HD
ENDROOT
BRANCH   1   9
HETATM    9  N1  UNL     1       0.766   7.952  21.499  1.00  0.00    -0.363 N 
HETATM   10  C6  UNL     1       1.582   8.866  20.719  1.00  0.00     0.162 C 
HETATM   11  C5  UNL     1       1.882   8.304  19.381  1.00  0.00     0.236 C 
HETATM   12  N6  UNL     1       0.724   7.551  18.915  1.00  0.00    -0.064 N 
HETATM   13  C16 UNL     1       0.511   6.357  19.680  1.00  0.00     0.253 C 
ATOM     14  H62 UNL     1      -0.113   8.134  18.900  1.00  0.00     0.278 HD
ATOM     15  H61 UNL     1       0.794   7.344  17.919  1.00  0.00     0.278 HD
HETATM   16  C15 UNL     1       0.711   6.567  21.139  1.00  0.00     0.152 C 
BRANCH  11  17
HETATM   17  C4  UNL     1       3.133   7.576  19.221  1.00  0.00    -0.026 A 
HETATM   18  C3  UNL     1       3.956   7.348  20.336  1.00  0.00     0.009 A 
HETATM   19  C2  UNL     1       5.144   6.665  20.241  1.00  0.00     0.001 A 
HETATM   20  C1  UNL     1       5.580   6.173  19.030  1.00  0.00     0.000 A 
HETATM   21  C18 UNL     1       4.800   6.378  17.916  1.00  0.00     0.001 A 
HETATM   22  C17 UNL     1       3.591   7.077  18.036  1.00  0.00     0.009 A 
ENDBRANCH  11  17
ENDBRANCH   1   9
BRANCH   6  23
HETATM   23  N3  UNL     1       0.708   9.347  26.118  1.00  0.00    -0.214 N 
HETATM   24  C11 UNL     1      -0.045   9.404  27.339  1.00  0.00     0.168 C 
HETATM   25  C12 UNL     1       0.726  10.028  28.474  1.00  0.00     0.252 C 
HETATM   26  N4  UNL     1       1.719  10.973  27.999  1.00  0.00    -0.072 N 
HETATM   27  C13 UNL     1       2.706  10.242  27.232  1.00  0.00     0.252 C 
ATOM     28  H42 UNL     1       1.308  11.746  27.477  1.00  0.00     0.277 HD
ATOM     29  H41 UNL     1       2.134  11.520  28.754  1.00  0.00     0.277 HD
HETATM   30  C14 UNL     1       2.139   9.539  26.046  1.00  0.00     0.168 C 
ENDBRANCH   6  23
TORSDOF 3
ENDMDL
MODEL 4
REMARK VINA RESULT: -6.684842726      4.654      8.160
REMARK  3 active torsions:
REMARK  status: ('A' for Active; 'I' for Inactive)
REMARK    1  A    between atoms: C4_4  and  C5_5 
REMARK    2  A    between atoms: N1_7  and  C7_8 
REMARK    3  A    between atoms: C10_13  and  N3_14 
ROOT
HETATM    1  C7  UNL     1      -1.097   6.652  18.687  1.00  0.00     0.120 A 
HETATM    2  C8  UNL     1      -1.329   5.371  18.251  1.00  0.00     0.066 A 
HETATM    3  C9  UNL     1      -0.250   4.520  18.038  1.00  0.00     0.110 A 
HETATM    4  N2  UNL     1       0.977   4.981  18.265  1.00  0.00    -0.202 N 
ATOM      5  H2  UNL     1       1.764   4.351  18.106  1.00  0.00     0.183 HD
HETATM    6  C10 UNL     1       1.240   6.227  18.691  1.00  0.00     0.681 A 
HETATM    7  N5  UNL     1       0.178   7.027  18.889  1.00  0.00    -0.177 N 
ATOM      8  H5  UNL     1       0.350   7.979  19.212  1.00  0.00     0.186 HD
ENDROOT
BRANCH   1   9
HETATM    9  N1  UNL     1      -2.162   7.582  18.925  1.00  0.00    -0.363 N 
HETATM   10  C6  UNL     1      -3.159   7.862  17.907  1.00  0.00     0.162 C 
HETATM   11  C5  UNL     1      -3.855   9.142  18.181  1.00  0.00     0.236 C 
HETATM   12  N6  UNL     1      -2.902  10.084  18.754  1.00  0.00    -0.064 N 
HETATM   13  C16 UNL     1      -2.489   9.701  20.073  1.00  0.00     0.253 C 
ATOM     14  H62 UNL     1      -2.100  10.216  18.139  1.00  0.00     0.278 HD
ATOM     15  H61 UNL     1      -3.271  11.035  18.744  1.00  0.00     0.278 HD
HETATM   16  C15 UNL     1      -2.240   8.240  20.195  1.00  0.00     0.152 C 
BRANCH  11  17
HETATM   17  C4  UNL     1      -5.109   9.082  18.920  1.00  0.00    -0.026 A 
HETATM   18  C3  UNL     1      -5.772  10.269  19.269  1.00  0.00     0.009 A 
HETATM   19  C2  UNL     1      -6.958  10.267  19.963  1.00  0.00     0.001 A 
HETATM   20  C1  UNL     1      -7.549   9.083  20.348  1.00  0.00     0.000 A 
HETATM   21  C18 UNL     1      -6.927   7.900  20.022  1.00  0.00     0.001 A 
HETATM   22  C17 UNL     1      -5.718   7.925  19.314  1.00  0.00     0.009 A 
ENDBRANCH  11  17
ENDBRANCH   1   9
BRANCH   6  23
HETATM   23  N3  UNL     1       2.574   6.658  18.916  1.00  0.00    -0.214 N 
HETATM   24  C11 UNL     1       3.514   6.570  17.834  1.00  0.00     0.168 C 
HETATM   25  C12 UNL     1       4.945   6.712  18.288  1.00  0.00     0.252 C 
HETATM   26  N4  UNL     1       5.124   6.269  19.657  1.00  0.00    -0.072 N 
HETATM   27  C13 UNL     1       4.367   7.152  20.520  1.00  0.00     0.252 C 
ATOM     28  H42 UNL     1       4.881   5.287  19.788  1.00  0.00     0.277 HD
ATOM     29  H41 UNL     1       6.107   6.205  19.924  1.00  0.00     0.277 HD
HETATM   30  C14 UNL     1       2.905   7.162  20.230  1.00  0.00     0.168 C 
ENDBRANCH   6  23
TORSDOF 3
ENDMDL
MODEL 5
REMARK VINA RESULT: -6.647581892      3.839      6.191
REMARK  3 active torsions:
REMARK  status: ('A' for Active; 'I' for Inactive)
REMARK    1  A    between atoms: C4_4  and  C5_5 
REMARK    2  A    between atoms: N1_7  and  C7_8 
REMARK    3  A    between atoms: C10_13  and  N3_14 
ROOT
HETATM    1  C7  UNL     1      -2.139   8.022  19.439  1.00  0.00     0.120 A 
HETATM    2  C8  UNL     1      -2.584   8.793  18.395  1.00  0.00     0.066 A 
HETATM    3  C9  UNL     1      -3.940   8.802  18.086  1.00  0.00     0.110 A 
HETATM    4  N2  UNL     1      -4.763   8.058  18.820  1.00  0.00    -0.202 N 
ATOM      5  H2  UNL     1      -5.756   8.069  18.588  1.00  0.00     0.183 HD
HETATM    6  C10 UNL     1      -4.362   7.292  19.848  1.00  0.00     0.681 A 
HETATM    7  N5  UNL     1      -3.046   7.303  20.123  1.00  0.00    -0.177 N 
ATOM      8  H5  UNL     1      -2.714   6.729  20.898  1.00  0.00     0.186 HD
ENDROOT
BRANCH   1   9
HETATM    9  N1  UNL     1      -0.755   7.964  19.809  1.00  0.00    -0.363 N 
HETATM   10  C6  UNL     1      -0.100   6.698  20.087  1.00  0.00     0.162 C 
HETATM   11  C5  UNL     1       1.141   6.900  20.872  1.00  0.00     0.236 C 
HETATM   12  N6  UNL     1       0.935   8.001  21.804  1.00  0.00    -0.064 N 
HETATM   13  C16 UNL     1       0.818   9.263  21.135  1.00  0.00     0.253 C 
ATOM     14  H62 UNL     1       0.132   7.827  22.408  1.00  0.00     0.278 HD
ATOM     15  H61 UNL     1       1.667   8.026  22.514  1.00  0.00     0.278 HD
HETATM   16  C15 UNL     1      -0.007   9.184  19.900  1.00  0.00     0.152 C 
BRANCH  11  17
HETATM   17  C4  UNL     1       2.393   7.005  20.136  1.00  0.00    -0.026 A 
HETATM   18  C3  UNL     1       3.603   7.153  20.833  1.00  0.00     0.009 A 
HETATM   19  C2  UNL     1       4.811   7.253  20.187  1.00  0.00     0.001 A 
HETATM   20  C1  UNL     1       4.882   7.213  18.811  1.00  0.00     0.000 A 
HETATM   21  C18 UNL     1       3.716   7.070  18.096  1.00  0.00     0.001 A 
HETATM   22  C17 UNL     1       2.494   6.969  18.775  1.00  0.00     0.009 A 
ENDBRANCH  11  17
ENDBRANCH   1   9
BRANCH   6  23
HETATM   23  N3  UNL     1      -5.292   6.520  20.593  1.00  0.00    -0.214 N 
HETATM   24  C11 UNL     1      -6.566   6.225  20.002  1.00  0.00     0.168 C 
HETATM   25  C12 UNL     1      -7.575   5.724  21.004  1.00  0.00     0.252 C 
HETATM   26  N4  UNL     1      -7.311   6.230  22.337  1.00  0.00    -0.072 N 
HETATM   27  C13 UNL     1      -6.041   5.693  22.780  1.00  0.00     0.252 C 
ATOM     28  H42 UNL     1      -7.345   7.248  22.385  1.00  0.00     0.277 HD
ATOM     29  H41 UNL     1      -8.070   6.035  22.990  1.00  0.00     0.277 HD
HETATM   30  C14 UNL     1      -4.893   6.076  21.910  1.00  0.00     0.168 C 
ENDBRANCH   6  23
TORSDOF 3
ENDMDL
