MODEL 1
REMARK VINA RESULT: -7.704167980      0.000      0.000
REMARK  4 active torsions:
REMARK  status: ('A' for Active; 'I' for Inactive)
REMARK       I    between atoms: C1_2  and  N1_3 
REMARK    1  A    between atoms: C1_2  and  C7_18 
REMARK    2  A    between atoms: N1_3  and  C2_5 
REMARK    3  A    between atoms: N6_20  and  C9_21 
REMARK    4  A    between atoms: C9_21  and  C10_22 
ROOT
HETATM    1  O1  UNL     1      -1.180   5.403  21.573  1.00  0.00    -0.267 OA
HETATM    2  C1  UNL     1      -1.433   5.642  20.365  1.00  0.00     0.262 C 
HETATM    3  N1  UNL     1      -2.699   6.215  20.078  1.00  0.00    -0.308 N 
ATOM      4  H1  UNL     1      -3.424   5.642  19.646  1.00  0.00     0.170 HD
ENDROOT
BRANCH   2   5
HETATM    5  C7  UNL     1      -0.454   5.333  19.334  1.00  0.00     0.097 A 
HETATM    6  C8  UNL     1       0.598   6.163  19.024  1.00  0.00     0.112 A 
HETATM    7  N6  UNL     1       1.501   5.846  18.051  1.00  0.00    -0.359 N 
HETATM    8  C14 UNL     1       1.376   4.695  17.364  1.00  0.00     0.095 A 
HETATM    9  C15 UNL     1       0.337   3.817  17.629  1.00  0.00     0.073 A 
HETATM   10  C16 UNL     1      -0.571   4.157  18.623  1.00  0.00     0.190 A 
HETATM   11  O3  UNL     1      -1.517   3.367  18.871  1.00  0.00    -0.287 OA
BRANCH   7  12
HETATM   12  C9  UNL     1       2.577   6.740  17.765  1.00  0.00     0.192 C 
BRANCH  12  13
HETATM   13  C10 UNL     1       3.733   6.617  18.652  1.00  0.00     0.070 A 
HETATM   14  C11 UNL     1       3.895   7.166  19.897  1.00  0.00     0.036 A 
HETATM   15  C12 UNL     1       5.139   6.779  20.343  1.00  0.00     0.027 A 
HETATM   16  C13 UNL     1       5.677   6.011  19.348  1.00  0.00     0.142 A 
HETATM   17  O2  UNL     1       4.820   5.950  18.390  1.00  0.00    -0.325 OA
ENDBRANCH  12  13
ENDBRANCH   7  12
ENDBRANCH   2   5
BRANCH   3  18
HETATM   18  C2  UNL     1      -2.945   7.454  20.358  1.00  0.00     0.124 A 
HETATM   19  N2  UNL     1      -3.134   7.887  21.611  1.00  0.00    -0.338 N 
HETATM   20  C3  UNL     1      -3.387   9.187  21.843  1.00  0.00     0.183 A 
ATOM     21  H2  UNL     1      -3.085   7.231  22.390  1.00  0.00     0.168 HD
HETATM   22  N3  UNL     1      -3.458  10.081  20.847  1.00  0.00    -0.337 N 
HETATM   23  C4  UNL     1      -3.270   9.659  19.585  1.00  0.00     0.136 A 
ATOM     24  H3  UNL     1      -3.651  11.063  21.043  1.00  0.00     0.168 HD
HETATM   25  N4  UNL     1      -3.277  10.300  18.390  1.00  0.00    -0.285 N 
HETATM   26  C6  UNL     1      -3.009   8.336  19.303  1.00  0.00     0.070 A 
HETATM   27  N5  UNL     1      -3.038   9.441  17.421  1.00  0.00    -0.309 N 
ATOM     28  H4  UNL     1      -3.443  11.299  18.260  1.00  0.00     0.188 HD
HETATM   29  C5  UNL     1      -2.861   8.197  17.924  1.00  0.00     0.126 A 
ATOM     30  H5  UNL     1      -2.992   9.679  16.430  1.00  0.00     0.186 HD
ENDBRANCH   3  18
TORSDOF 4
ENDMDL
MODEL 2
REMARK VINA RESULT: -7.379195970      1.159      1.256
REMARK  4 active torsions:
REMARK  status: ('A' for Active; 'I' for Inactive)
REMARK       I    between atoms: C1_2  and  N1_3 
REMARK    1  A    between atoms: C1_2  and  C7_18 
REMARK    2  A    between atoms: N1_3  and  C2_5 
REMARK    3  A    between atoms: N6_20  and  C9_21 
REMARK    4  A    between atoms: C9_21  and  C10_22 
ROOT
HETATM    1  O1  UNL     1      -1.618   6.896  22.258  1.00  0.00    -0.267 OA
HETATM    2  C1  UNL     1      -1.824   6.734  21.028  1.00  0.00     0.262 C 
HETATM    3  N1  UNL     1      -3.162   6.875  20.580  1.00  0.00    -0.308 N 
ATOM      4  H1  UNL     1      -3.694   6.045  20.316  1.00  0.00     0.170 HD
ENDROOT
BRANCH   2   5
HETATM    5  C7  UNL     1      -0.720   6.417  20.134  1.00  0.00     0.097 A 
HETATM    6  C8  UNL     1       0.332   7.273  19.906  1.00  0.00     0.112 A 
HETATM    7  N6  UNL     1       1.353   6.947  19.061  1.00  0.00    -0.359 N 
HETATM    8  C14 UNL     1       1.349   5.763  18.422  1.00  0.00     0.095 A 
HETATM    9  C15 UNL     1       0.316   4.857  18.610  1.00  0.00     0.073 A 
HETATM   10  C16 UNL     1      -0.713   5.207  19.474  1.00  0.00     0.190 A 
HETATM   11  O3  UNL     1      -1.655   4.392  19.651  1.00  0.00    -0.287 OA
BRANCH   7  12
HETATM   12  C9  UNL     1       2.424   7.869  18.856  1.00  0.00     0.192 C 
BRANCH  12  13
HETATM   13  C10 UNL     1       3.754   7.265  18.795  1.00  0.00     0.070 A 
HETATM   14  C11 UNL     1       4.531   6.841  19.842  1.00  0.00     0.036 A 
HETATM   15  C12 UNL     1       5.695   6.346  19.298  1.00  0.00     0.027 A 
HETATM   16  C13 UNL     1       5.572   6.491  17.944  1.00  0.00     0.142 A 
HETATM   17  O2  UNL     1       4.428   7.029  17.706  1.00  0.00    -0.325 OA
ENDBRANCH  12  13
ENDBRANCH   7  12
ENDBRANCH   2   5
BRANCH   3  18
HETATM   18  C2  UNL     1      -3.717   8.041  20.502  1.00  0.00     0.124 A 
HETATM   19  N2  UNL     1      -4.396   8.587  21.520  1.00  0.00    -0.338 N 
HETATM   20  C3  UNL     1      -4.951   9.802  21.383  1.00  0.00     0.183 A 
ATOM     21  H2  UNL     1      -4.491   8.079  22.400  1.00  0.00     0.168 HD
HETATM   22  N3  UNL     1      -4.849  10.502  20.244  1.00  0.00    -0.337 N 
HETATM   23  C4  UNL     1      -4.170   9.966  19.216  1.00  0.00     0.136 A 
ATOM     24  H3  UNL     1      -5.279  11.423  20.159  1.00  0.00     0.168 HD
HETATM   25  N4  UNL     1      -3.894  10.410  17.964  1.00  0.00    -0.285 N 
HETATM   26  C6  UNL     1      -3.586   8.722  19.313  1.00  0.00     0.070 A 
HETATM   27  N5  UNL     1      -3.184   9.508  17.317  1.00  0.00    -0.309 N 
ATOM     28  H4  UNL     1      -4.191  11.308  17.581  1.00  0.00     0.188 HD
HETATM   29  C5  UNL     1      -2.957   8.431  18.104  1.00  0.00     0.126 A 
ATOM     30  H5  UNL     1      -2.853   9.608  16.358  1.00  0.00     0.186 HD
ENDBRANCH   3  18
TORSDOF 4
ENDMDL
MODEL 3
REMARK VINA RESULT: -7.092246409      1.935      2.348
REMARK  4 active torsions:
REMARK  status: ('A' for Active; 'I' for Inactive)
REMARK       I    between atoms: C1_2  and  N1_3 
REMARK    1  A    between atoms: C1_2  and  C7_18 
REMARK    2  A    between atoms: N1_3  and  C2_5 
REMARK    3  A    between atoms: N6_20  and  C9_21 
REMARK    4  A    between atoms: C9_21  and  C10_22 
ROOT
HETATM    1  O1  UNL     1       0.786   7.632  22.499  1.00  0.00    -0.267 OA
HETATM    2  C1  UNL     1      -0.075   7.528  21.589  1.00  0.00     0.262 C 
HETATM    3  N1  UNL     1      -1.183   8.411  21.653  1.00  0.00    -0.308 N 
ATOM      4  H1  UNL     1      -2.096   8.052  21.933  1.00  0.00     0.170 HD
ENDROOT
BRANCH   2   5
HETATM    5  C7  UNL     1       0.087   6.539  20.534  1.00  0.00     0.097 A 
HETATM    6  C8  UNL     1       0.994   6.675  19.509  1.00  0.00     0.112 A 
HETATM    7  N6  UNL     1       1.122   5.729  18.533  1.00  0.00    -0.359 N 
HETATM    8  C14 UNL     1       0.350   4.627  18.555  1.00  0.00     0.095 A 
HETATM    9  C15 UNL     1      -0.583   4.433  19.562  1.00  0.00     0.073 A 
HETATM   10  C16 UNL     1      -0.699   5.406  20.545  1.00  0.00     0.190 A 
HETATM   11  O3  UNL     1      -1.542   5.239  21.463  1.00  0.00    -0.287 OA
BRANCH   7  12
HETATM   12  C9  UNL     1       2.078   5.914  17.490  1.00  0.00     0.192 C 
BRANCH  12  13
HETATM   13  C10 UNL     1       3.388   6.393  17.930  1.00  0.00     0.070 A 
HETATM   14  C11 UNL     1       3.688   7.602  18.503  1.00  0.00     0.036 A 
HETATM   15  C12 UNL     1       5.044   7.600  18.745  1.00  0.00     0.027 A 
HETATM   16  C13 UNL     1       5.506   6.390  18.308  1.00  0.00     0.142 A 
HETATM   17  O2  UNL     1       4.504   5.729  17.845  1.00  0.00    -0.325 OA
ENDBRANCH  12  13
ENDBRANCH   7  12
ENDBRANCH   2   5
BRANCH   3  18
HETATM   18  C2  UNL     1      -1.051   9.665  21.362  1.00  0.00     0.124 A 
HETATM   19  N2  UNL     1      -0.220  10.477  22.028  1.00  0.00    -0.338 N 
HETATM   20  C3  UNL     1      -0.123  11.772  21.682  1.00  0.00     0.183 A 
ATOM     21  H2  UNL     1       0.340  10.112  22.799  1.00  0.00     0.168 HD
HETATM   22  N3  UNL     1      -0.841  12.290  20.675  1.00  0.00    -0.337 N 
HETATM   23  C4  UNL     1      -1.678  11.485  19.999  1.00  0.00     0.136 A 
ATOM     24  H3  UNL     1      -0.754  13.276  20.428  1.00  0.00     0.168 HD
HETATM   25  N4  UNL     1      -2.519  11.701  18.956  1.00  0.00    -0.285 N 
HETATM   26  C6  UNL     1      -1.809  10.152  20.321  1.00  0.00     0.070 A 
HETATM   27  N5  UNL     1      -3.138  10.580  18.643  1.00  0.00    -0.309 N 
ATOM     28  H4  UNL     1      -2.653  12.596  18.485  1.00  0.00     0.188 HD
HETATM   29  C5  UNL     1      -2.738   9.575  19.457  1.00  0.00     0.126 A 
ATOM     30  H5  UNL     1      -3.821  10.484  17.893  1.00  0.00     0.186 HD
ENDBRANCH   3  18
TORSDOF 4
ENDMDL
MODEL 4
REMARK VINA RESULT: -6.956936670      1.967      2.209
REMARK  4 active torsions:
REMARK  status: ('A' for Active; 'I' for Inactive)
REMARK       I    between atoms: C1_2  and  N1_3 
REMARK    1  A    between atoms: C1_2  and  C7_18 
REMARK    2  A    between atoms: N1_3  and  C2_5 
REMARK    3  A    between atoms: N6_20  and  C9_21 
REMARK    4  A    between atoms: C9_21  and  C10_22 
ROOT
HETATM    1  O1  UNL     1      -1.859   6.257  21.925  1.00  0.00    -0.267 OA
HETATM    2  C1  UNL     1      -1.993   6.153  20.680  1.00  0.00     0.262 C 
HETATM    3  N1  UNL     1      -3.316   6.210  20.171  1.00  0.00    -0.308 N 
ATOM      4  H1  UNL     1      -3.762   5.357  19.834  1.00  0.00     0.170 HD
ENDROOT
BRANCH   2   5
HETATM    5  C7  UNL     1      -0.826   5.983  19.826  1.00  0.00     0.097 A 
HETATM    6  C8  UNL     1       0.178   6.918  19.731  1.00  0.00     0.112 A 
HETATM    7  N6  UNL     1       1.260   6.731  18.922  1.00  0.00    -0.359 N 
HETATM    8  C14 UNL     1       1.368   5.608  18.188  1.00  0.00     0.095 A 
HETATM    9  C15 UNL     1       0.389   4.627  18.240  1.00  0.00     0.073 A 
HETATM   10  C16 UNL     1      -0.705   4.837  19.070  1.00  0.00     0.190 A 
HETATM   11  O3  UNL     1      -1.598   3.954  19.124  1.00  0.00    -0.287 OA
BRANCH   7  12
HETATM   12  C9  UNL     1       2.277   7.730  18.856  1.00  0.00     0.192 C 
BRANCH  12  13
HETATM   13  C10 UNL     1       3.645   7.216  18.801  1.00  0.00     0.070 A 
HETATM   14  C11 UNL     1       4.429   6.807  19.849  1.00  0.00     0.036 A 
HETATM   15  C12 UNL     1       5.632   6.408  19.312  1.00  0.00     0.027 A 
HETATM   16  C13 UNL     1       5.526   6.593  17.962  1.00  0.00     0.142 A 
HETATM   17  O2  UNL     1       4.353   7.064  17.720  1.00  0.00    -0.325 OA
ENDBRANCH  12  13
ENDBRANCH   7  12
ENDBRANCH   2   5
BRANCH   3  18
HETATM   18  C2  UNL     1      -3.964   7.329  20.131  1.00  0.00     0.124 A 
HETATM   19  N2  UNL     1      -3.353   8.520  20.195  1.00  0.00    -0.338 N 
HETATM   20  C3  UNL     1      -4.077   9.651  20.148  1.00  0.00     0.183 A 
ATOM     21  H2  UNL     1      -2.337   8.568  20.278  1.00  0.00     0.168 HD
HETATM   22  N3  UNL     1      -5.413   9.631  20.039  1.00  0.00    -0.337 N 
HETATM   23  C4  UNL     1      -6.037   8.443  19.974  1.00  0.00     0.136 A 
ATOM     24  H3  UNL     1      -5.945  10.501  20.006  1.00  0.00     0.168 HD
HETATM   25  N4  UNL     1      -7.344   8.095  19.863  1.00  0.00    -0.285 N 
HETATM   26  C6  UNL     1      -5.334   7.260  20.019  1.00  0.00     0.070 A 
HETATM   27  N5  UNL     1      -7.456   6.783  19.839  1.00  0.00    -0.309 N 
ATOM     28  H4  UNL     1      -8.123   8.752  19.805  1.00  0.00     0.188 HD
HETATM   29  C5  UNL     1      -6.238   6.202  19.932  1.00  0.00     0.126 A 
ATOM     30  H5  UNL     1      -8.338   6.276  19.761  1.00  0.00     0.186 HD
ENDBRANCH   3  18
TORSDOF 4
ENDMDL
MODEL 5
REMARK VINA RESULT: -6.860156949      2.934      4.948
REMARK  4 active torsions:
REMARK  status: ('A' for Active; 'I' for Inactive)
REMARK       I    between atoms: C1_2  and  N1_3 
REMARK    1  A    between atoms: C1_2  and  C7_18 
REMARK    2  A    between atoms: N1_3  and  C2_5 
REMARK    3  A    between atoms: N6_20  and  C9_21 
REMARK    4  A    between atoms: C9_21  and  C10_22 
ROOT
HETATM    1  O1  UNL     1      -0.999   9.658  18.939  1.00  0.00    -0.267 OA
HETATM    2  C1  UNL     1      -0.772   8.860  19.883  1.00  0.00     0.262 C 
HETATM    3  N1  UNL     1      -1.682   7.783  20.042  1.00  0.00    -0.308 N 
ATOM      4  H1  UNL     1      -2.347   7.796  20.815  1.00  0.00     0.170 HD
ENDROOT
BRANCH   2   5
HETATM    5  C7  UNL     1       0.377   9.058  20.754  1.00  0.00     0.097 A 
HETATM    6  C8  UNL     1       1.469   8.223  20.759  1.00  0.00     0.112 A 
HETATM    7  N6  UNL     1       2.532   8.435  21.588  1.00  0.00    -0.359 N 
HETATM    8  C14 UNL     1       2.531   9.484  22.432  1.00  0.00     0.095 A 
HETATM    9  C15 UNL     1       1.460  10.362  22.474  1.00  0.00     0.073 A 
HETATM   10  C16 UNL     1       0.388  10.129  21.623  1.00  0.00     0.190 A 
HETATM   11  O3  UNL     1      -0.589  10.920  21.653  1.00  0.00    -0.287 OA
BRANCH   7  12
HETATM   12  C9  UNL     1       3.644   7.540  21.557  1.00  0.00     0.192 C 
BRANCH  12  13
HETATM   13  C10 UNL     1       4.152   7.233  20.221  1.00  0.00     0.070 A 
HETATM   14  C11 UNL     1       5.361   7.588  19.683  1.00  0.00     0.036 A 
HETATM   15  C12 UNL     1       5.392   7.079  18.404  1.00  0.00     0.027 A 
HETATM   16  C13 UNL     1       4.199   6.437  18.222  1.00  0.00     0.142 A 
HETATM   17  O2  UNL     1       3.517   6.557  19.307  1.00  0.00    -0.325 OA
ENDBRANCH  12  13
ENDBRANCH   7  12
ENDBRANCH   2   5
BRANCH   3  18
HETATM   18  C2  UNL     1      -1.679   6.785  19.219  1.00  0.00     0.124 A 
HETATM   19  N2  UNL     1      -2.058   6.903  17.939  1.00  0.00    -0.338 N 
HETATM   20  C3  UNL     1      -2.035   5.831  17.129  1.00  0.00     0.183 A 
ATOM     21  H2  UNL     1      -2.364   7.808  17.580  1.00  0.00     0.168 HD
HETATM   22  N3  UNL     1      -1.639   4.626  17.562  1.00  0.00    -0.337 N 
HETATM   23  C4  UNL     1      -1.256   4.495  18.843  1.00  0.00     0.136 A 
ATOM     24  H3  UNL     1      -1.629   3.825  16.931  1.00  0.00     0.168 HD
HETATM   25  N4  UNL     1      -0.813   3.436  19.567  1.00  0.00    -0.285 N 
HETATM   26  C6  UNL     1      -1.265   5.566  19.708  1.00  0.00     0.070 A 
HETATM   27  N5  UNL     1      -0.560   3.814  20.803  1.00  0.00    -0.309 N 
ATOM     28  H4  UNL     1      -0.693   2.488  19.207  1.00  0.00     0.188 HD
HETATM   29  C5  UNL     1      -0.821   5.134  20.957  1.00  0.00     0.126 A 
ATOM     30  H5  UNL     1      -0.216   3.200  21.540  1.00  0.00     0.186 HD
ENDBRANCH   3  18
TORSDOF 4
ENDMDL
