MODEL 1
REMARK VINA RESULT: -7.051875241      0.000      0.000
REMARK  6 active torsions:
REMARK  status: ('A' for Active; 'I' for Inactive)
REMARK    1  A    between atoms: N1_1  and  S1_4 
REMARK    2  A    between atoms: S1_4  and  C1_6 
REMARK    3  A    between atoms: C4_9  and  N2_10 
REMARK    4  A    between atoms: N2_10  and  C5_12 
REMARK    5  A    between atoms: C7_18  and  N5_19 
REMARK    6  A    between atoms: N5_19  and  C8_21 
ROOT
HETATM    1  C5  UNL     1      -0.764   9.393  19.838  1.00  0.00     0.698 A 
HETATM    2  N3  UNL     1      -1.583  10.323  19.308  1.00  0.00    -0.187 N 
ATOM      3  H3  UNL     1      -1.283  11.298  19.265  1.00  0.00     0.185 HD
HETATM    4  C6  UNL     1      -2.791   9.975  18.837  1.00  0.00     0.215 A 
HETATM    5  N4  UNL     1      -3.160   8.694  18.905  1.00  0.00    -0.187 N 
ATOM      6  H4  UNL     1      -4.077   8.427  18.548  1.00  0.00     0.185 HD
HETATM    7  C7  UNL     1      -2.369   7.744  19.427  1.00  0.00     0.698 A 
HETATM    8  N7  UNL     1      -1.167   8.111  19.892  1.00  0.00    -0.022 N 
ATOM      9  H7  UNL     1      -0.547   7.407  20.293  1.00  0.00     0.203 HD
ENDROOT
BRANCH   1  10
HETATM   10  N2  UNL     1       0.402   9.722  20.294  1.00  0.00    -0.191 N 
ATOM     11  H2  UNL     1       0.526  10.562  20.858  1.00  0.00     0.184 HD
BRANCH  10  12
HETATM   12  C4  UNL     1       1.504   8.882  19.986  1.00  0.00     0.049 A 
HETATM   13  C3  UNL     1       1.887   8.726  18.679  1.00  0.00     0.031 A 
HETATM   14  C2  UNL     1       2.986   7.891  18.360  1.00  0.00     0.025 A 
HETATM   15  C1  UNL     1       3.579   7.305  19.390  1.00  0.00     0.052 A 
HETATM   16  C14 UNL     1       3.253   7.414  20.680  1.00  0.00     0.025 A 
HETATM   17  C13 UNL     1       2.156   8.246  21.009  1.00  0.00     0.031 A 
BRANCH  15  18
HETATM   18  S1  UNL     1       5.049   6.392  19.001  1.00  0.00     0.144 S 
HETATM   19  O1  UNL     1       4.593   6.921  17.582  1.00  0.00    -0.230 OA
BRANCH  18  20
HETATM   20  N1  UNL     1       5.915   5.733  19.531  1.00  0.00    -0.346 N 
ATOM     21  H12 UNL     1       6.059   5.099  20.317  1.00  0.00     0.166 HD
ATOM     22  H11 UNL     1       6.904   5.501  19.445  1.00  0.00     0.166 HD
ENDBRANCH  18  20
ENDBRANCH  15  18
ENDBRANCH  10  12
ENDBRANCH   1  10
BRANCH   7  23
HETATM   23  N5  UNL     1      -2.733   6.503  19.489  1.00  0.00    -0.190 N 
ATOM     24  H5  UNL     1      -3.635   6.261  19.898  1.00  0.00     0.184 HD
BRANCH  23  25
HETATM   25  C8  UNL     1      -1.874   5.459  18.987  1.00  0.00     0.064 A 
HETATM   26  C9  UNL     1      -1.794   5.205  17.633  1.00  0.00     0.033 A 
HETATM   27  C10 UNL     1      -0.977   4.211  17.138  1.00  0.00     0.019 A 
HETATM   28  C11 UNL     1      -0.221   3.453  18.010  1.00  0.00     0.088 A 
HETATM   29  N6  UNL     1      -0.330   3.735  19.314  1.00  0.00    -0.373 N 
HETATM   30  C12 UNL     1      -1.112   4.691  19.832  1.00  0.00     0.117 A 
ATOM     31  H6  UNL     1       0.225   3.179  19.964  1.00  0.00     0.164 HD
ENDBRANCH  23  25
ENDBRANCH   7  23
TORSDOF 6
ENDMDL
MODEL 2
REMARK VINA RESULT: -6.879475981      2.743      5.486
REMARK  6 active torsions:
REMARK  status: ('A' for Active; 'I' for Inactive)
REMARK    1  A    between atoms: N1_1  and  S1_4 
REMARK    2  A    between atoms: S1_4  and  C1_6 
REMARK    3  A    between atoms: C4_9  and  N2_10 
REMARK    4  A    between atoms: N2_10  and  C5_12 
REMARK    5  A    between atoms: C7_18  and  N5_19 
REMARK    6  A    between atoms: N5_19  and  C8_21 
ROOT
HETATM    1  C5  UNL     1      -0.449   7.308  21.124  1.00  0.00     0.698 A 
HETATM    2  N3  UNL     1      -0.894   8.578  21.214  1.00  0.00    -0.187 N 
ATOM      3  H3  UNL     1      -1.896   8.768  21.168  1.00  0.00     0.185 HD
HETATM    4  C6  UNL     1      -0.028   9.593  21.364  1.00  0.00     0.215 A 
HETATM    5  N4  UNL     1       1.277   9.316  21.421  1.00  0.00    -0.187 N 
ATOM      6  H4  UNL     1       1.937  10.085  21.535  1.00  0.00     0.185 HD
HETATM    7  C7  UNL     1       1.753   8.066  21.334  1.00  0.00     0.698 A 
HETATM    8  N7  UNL     1       0.872   7.066  21.185  1.00  0.00    -0.022 N 
ATOM      9  H7  UNL     1       1.209   6.106  21.117  1.00  0.00     0.203 HD
ENDROOT
BRANCH   1  10
HETATM   10  N2  UNL     1      -1.279   6.326  20.980  1.00  0.00    -0.191 N 
ATOM     11  H2  UNL     1      -2.005   6.147  21.674  1.00  0.00     0.184 HD
BRANCH  10  12
HETATM   12  C4  UNL     1      -1.152   5.505  19.830  1.00  0.00     0.049 A 
HETATM   13  C3  UNL     1      -1.635   5.952  18.627  1.00  0.00     0.031 A 
HETATM   14  C2  UNL     1      -1.513   5.142  17.471  1.00  0.00     0.025 A 
HETATM   15  C1  UNL     1      -0.918   3.972  17.652  1.00  0.00     0.052 A 
HETATM   16  C14 UNL     1      -0.431   3.480  18.793  1.00  0.00     0.025 A 
HETATM   17  C13 UNL     1      -0.548   4.282  19.953  1.00  0.00     0.031 A 
BRANCH  15  18
HETATM   18  S1  UNL     1      -0.624   3.034  16.175  1.00  0.00     0.144 S 
HETATM   19  O1  UNL     1      -1.227   4.381  15.607  1.00  0.00    -0.230 OA
BRANCH  18  20
HETATM   20  N1  UNL     1      -0.198   1.961  15.811  1.00  0.00    -0.346 N 
ATOM     21  H12 UNL     1       0.172   1.495  14.983  1.00  0.00     0.166 HD
ATOM     22  H11 UNL     1      -0.008   1.021  16.157  1.00  0.00     0.166 HD
ENDBRANCH  18  20
ENDBRANCH  15  18
ENDBRANCH  10  12
ENDBRANCH   1  10
BRANCH   7  23
HETATM   23  N5  UNL     1       3.020   7.805  21.391  1.00  0.00    -0.190 N 
ATOM     24  H5  UNL     1       3.525   7.941  22.267  1.00  0.00     0.184 HD
BRANCH  23  25
HETATM   25  C8  UNL     1       3.724   7.325  20.228  1.00  0.00     0.064 A 
HETATM   26  C9  UNL     1       4.968   6.741  20.351  1.00  0.00     0.033 A 
HETATM   27  C10 UNL     1       5.653   6.276  19.247  1.00  0.00     0.019 A 
HETATM   28  C11 UNL     1       5.087   6.396  17.994  1.00  0.00     0.088 A 
HETATM   29  N6  UNL     1       3.879   6.970  17.923  1.00  0.00    -0.373 N 
HETATM   30  C12 UNL     1       3.185   7.432  18.970  1.00  0.00     0.117 A 
ATOM     31  H6  UNL     1       3.456   7.062  17.000  1.00  0.00     0.164 HD
ENDBRANCH  23  25
ENDBRANCH   7  23
TORSDOF 6
ENDMDL
MODEL 3
REMARK VINA RESULT: -6.660097639      2.455      5.024
REMARK  6 active torsions:
REMARK  status: ('A' for Active; 'I' for Inactive)
REMARK    1  A    between atoms: N1_1  and  S1_4 
REMARK    2  A    between atoms: S1_4  and  C1_6 
REMARK    3  A    between atoms: C4_9  and  N2_10 
REMARK    4  A    between atoms: N2_10  and  C5_12 
REMARK    5  A    between atoms: C7_18  and  N5_19 
REMARK    6  A    between atoms: N5_19  and  C8_21 
ROOT
HETATM    1  C5  UNL     1      -1.423   7.573  21.512  1.00  0.00     0.698 A 
HETATM    2  N3  UNL     1      -2.067   8.721  21.803  1.00  0.00    -0.187 N 
ATOM      3  H3  UNL     1      -3.087   8.742  21.816  1.00  0.00     0.185 HD
HETATM    4  C6  UNL     1      -1.372   9.838  22.075  1.00  0.00     0.215 A 
HETATM    5  N4  UNL     1      -0.039   9.784  22.050  1.00  0.00    -0.187 N 
ATOM      6  H4  UNL     1       0.491  10.631  22.256  1.00  0.00     0.185 HD
HETATM    7  C7  UNL     1       0.632   8.659  21.764  1.00  0.00     0.698 A 
HETATM    8  N7  UNL     1      -0.079   7.554  21.496  1.00  0.00    -0.022 N 
ATOM      9  H7  UNL     1       0.408   6.685  21.275  1.00  0.00     0.203 HD
ENDROOT
BRANCH   1  10
HETATM   10  N2  UNL     1      -2.087   6.492  21.250  1.00  0.00    -0.191 N 
ATOM     11  H2  UNL     1      -2.885   6.216  21.821  1.00  0.00     0.184 HD
BRANCH  10  12
HETATM   12  C4  UNL     1      -1.673   5.703  20.146  1.00  0.00     0.049 A 
HETATM   13  C3  UNL     1      -2.075   6.051  18.882  1.00  0.00     0.031 A 
HETATM   14  C2  UNL     1      -1.666   5.271  17.771  1.00  0.00     0.025 A 
HETATM   15  C1  UNL     1      -0.898   4.229  18.054  1.00  0.00     0.052 A 
HETATM   16  C14 UNL     1      -0.476   3.838  19.258  1.00  0.00     0.025 A 
HETATM   17  C13 UNL     1      -0.879   4.611  20.374  1.00  0.00     0.031 A 
BRANCH  15  18
HETATM   18  S1  UNL     1      -0.259   3.354  16.649  1.00  0.00     0.144 S 
HETATM   19  O1  UNL     1       1.023   4.099  17.196  1.00  0.00    -0.230 OA
BRANCH  18  20
HETATM   20  N1  UNL     1      -0.613   2.605  15.768  1.00  0.00    -0.346 N 
ATOM     21  H12 UNL     1      -1.428   2.385  15.194  1.00  0.00     0.166 HD
ATOM     22  H11 UNL     1      -0.270   1.842  15.184  1.00  0.00     0.166 HD
ENDBRANCH  18  20
ENDBRANCH  15  18
ENDBRANCH  10  12
ENDBRANCH   1  10
BRANCH   7  23
HETATM   23  N5  UNL     1       1.926   8.613  21.742  1.00  0.00    -0.190 N 
ATOM     24  H5  UNL     1       2.457   8.981  22.532  1.00  0.00     0.184 HD
BRANCH  23  25
HETATM   25  C8  UNL     1       2.622   8.049  20.613  1.00  0.00     0.064 A 
HETATM   26  C9  UNL     1       2.179   8.278  19.327  1.00  0.00     0.033 A 
HETATM   27  C10 UNL     1       2.835   7.746  18.238  1.00  0.00     0.019 A 
HETATM   28  C11 UNL     1       3.958   6.967  18.432  1.00  0.00     0.088 A 
HETATM   29  N6  UNL     1       4.352   6.771  19.697  1.00  0.00    -0.373 N 
HETATM   30  C12 UNL     1       3.741   7.271  20.779  1.00  0.00     0.117 A 
ATOM     31  H6  UNL     1       5.181   6.197  19.848  1.00  0.00     0.164 HD
ENDBRANCH  23  25
ENDBRANCH   7  23
TORSDOF 6
ENDMDL
MODEL 4
REMARK VINA RESULT: -6.630666529      1.670      1.780
REMARK  6 active torsions:
REMARK  status: ('A' for Active; 'I' for Inactive)
REMARK    1  A    between atoms: N1_1  and  S1_4 
REMARK    2  A    between atoms: S1_4  and  C1_6 
REMARK    3  A    between atoms: C4_9  and  N2_10 
REMARK    4  A    between atoms: N2_10  and  C5_12 
REMARK    5  A    between atoms: C7_18  and  N5_19 
REMARK    6  A    between atoms: N5_19  and  C8_21 
ROOT
HETATM    1  C5  UNL     1      -0.305   8.908  22.033  1.00  0.00     0.698 A 
HETATM    2  N3  UNL     1      -1.230   9.826  22.377  1.00  0.00    -0.187 N 
ATOM      3  H3  UNL     1      -0.937  10.770  22.634  1.00  0.00     0.185 HD
HETATM    4  C6  UNL     1      -2.534   9.506  22.385  1.00  0.00     0.215 A 
HETATM    5  N4  UNL     1      -2.891   8.265  22.046  1.00  0.00    -0.187 N 
ATOM      6  H4  UNL     1      -3.880   8.020  22.052  1.00  0.00     0.185 HD
HETATM    7  C7  UNL     1      -1.996   7.328  21.700  1.00  0.00     0.698 A 
HETATM    8  N7  UNL     1      -0.699   7.667  21.698  1.00  0.00    -0.022 N 
ATOM      9  H7  UNL     1       0.001   6.972  21.437  1.00  0.00     0.203 HD
ENDROOT
BRANCH   1  10
HETATM   10  N2  UNL     1       0.954   9.210  22.023  1.00  0.00    -0.191 N 
ATOM     11  H2  UNL     1       1.338   9.875  22.693  1.00  0.00     0.184 HD
BRANCH  10  12
HETATM   12  C4  UNL     1       1.784   8.590  21.054  1.00  0.00     0.049 A 
HETATM   13  C3  UNL     1       1.504   8.755  19.722  1.00  0.00     0.031 A 
HETATM   14  C2  UNL     1       2.327   8.141  18.746  1.00  0.00     0.025 A 
HETATM   15  C1  UNL     1       3.341   7.430  19.215  1.00  0.00     0.052 A 
HETATM   16  C14 UNL     1       3.664   7.230  20.495  1.00  0.00     0.025 A 
HETATM   17  C13 UNL     1       2.848   7.839  21.478  1.00  0.00     0.031 A 
BRANCH  15  18
HETATM   18  S1  UNL     1       4.458   6.800  17.990  1.00  0.00     0.144 S 
HETATM   19  O1  UNL     1       3.265   7.349  17.110  1.00  0.00    -0.230 OA
BRANCH  18  20
HETATM   20  N1  UNL     1       5.534   6.255  17.889  1.00  0.00    -0.346 N 
ATOM     21  H12 UNL     1       6.074   5.680  17.243  1.00  0.00     0.166 HD
ATOM     22  H11 UNL     1       6.405   6.113  18.399  1.00  0.00     0.166 HD
ENDBRANCH  18  20
ENDBRANCH  15  18
ENDBRANCH  10  12
ENDBRANCH   1  10
BRANCH   7  23
HETATM   23  N5  UNL     1      -2.349   6.126  21.371  1.00  0.00    -0.190 N 
ATOM     24  H5  UNL     1      -3.035   5.629  21.939  1.00  0.00     0.184 HD
BRANCH  23  25
HETATM   25  C8  UNL     1      -1.781   5.485  20.212  1.00  0.00     0.064 A 
HETATM   26  C9  UNL     1      -2.205   5.821  18.943  1.00  0.00     0.033 A 
HETATM   27  C10 UNL     1      -1.670   5.216  17.825  1.00  0.00     0.019 A 
HETATM   28  C11 UNL     1      -0.691   4.255  17.973  1.00  0.00     0.088 A 
HETATM   29  N6  UNL     1      -0.309   3.961  19.222  1.00  0.00    -0.373 N 
HETATM   30  C12 UNL     1      -0.805   4.526  20.331  1.00  0.00     0.117 A 
ATOM     31  H6  UNL     1       0.414   3.252  19.339  1.00  0.00     0.164 HD
ENDBRANCH  23  25
ENDBRANCH   7  23
TORSDOF 6
ENDMDL
MODEL 5
REMARK VINA RESULT: -6.498776157      4.001      7.070
REMARK  6 active torsions:
REMARK  status: ('A' for Active; 'I' for Inactive)
REMARK    1  A    between atoms: N1_1  and  S1_4 
REMARK    2  A    between atoms: S1_4  and  C1_6 
REMARK    3  A    between atoms: C4_9  and  N2_10 
REMARK    4  A    between atoms: N2_10  and  C5_12 
REMARK    5  A    between atoms: C7_18  and  N5_19 
REMARK    6  A    between atoms: N5_19  and  C8_21 
ROOT
HETATM    1  C5  UNL     1      -1.306   6.264  18.783  1.00  0.00     0.698 A 
HETATM    2  N3  UNL     1      -1.479   5.176  19.561  1.00  0.00    -0.187 N 
ATOM      3  H3  UNL     1      -2.300   4.585  19.432  1.00  0.00     0.185 HD
HETATM    4  C6  UNL     1      -0.575   4.867  20.506  1.00  0.00     0.215 A 
HETATM    5  N4  UNL     1       0.491   5.658  20.655  1.00  0.00    -0.187 N 
ATOM      6  H4  UNL     1       1.178   5.425  21.371  1.00  0.00     0.185 HD
HETATM    7  C7  UNL     1       0.692   6.746  19.898  1.00  0.00     0.698 A 
HETATM    8  N7  UNL     1      -0.221   7.038  18.960  1.00  0.00    -0.022 N 
ATOM      9  H7  UNL     1      -0.091   7.861  18.372  1.00  0.00     0.203 HD
ENDROOT
BRANCH   1  10
HETATM   10  N2  UNL     1      -2.173   6.567  17.871  1.00  0.00    -0.191 N 
ATOM     11  H2  UNL     1      -2.152   6.115  16.957  1.00  0.00     0.184 HD
BRANCH  10  12
HETATM   12  C4  UNL     1      -3.154   7.546  18.177  1.00  0.00     0.049 A 
HETATM   13  C3  UNL     1      -3.079   8.781  17.587  1.00  0.00     0.031 A 
HETATM   14  C2  UNL     1      -4.054   9.766  17.884  1.00  0.00     0.025 A 
HETATM   15  C1  UNL     1      -4.995   9.401  18.742  1.00  0.00     0.052 A 
HETATM   16  C14 UNL     1      -5.120   8.219  19.350  1.00  0.00     0.025 A 
HETATM   17  C13 UNL     1      -4.152   7.229  19.060  1.00  0.00     0.031 A 
BRANCH  15  18
HETATM   18  S1  UNL     1      -6.298  10.579  18.986  1.00  0.00     0.144 S 
HETATM   19  O1  UNL     1      -6.209  10.494  17.409  1.00  0.00    -0.230 OA
BRANCH  18  20
HETATM   20  N1  UNL     1      -6.910  11.135  19.869  1.00  0.00    -0.346 N 
ATOM     21  H12 UNL     1      -7.862  11.388  20.136  1.00  0.00     0.166 HD
ATOM     22  H11 UNL     1      -6.768  11.610  20.760  1.00  0.00     0.166 HD
ENDBRANCH  18  20
ENDBRANCH  15  18
ENDBRANCH  10  12
ENDBRANCH   1  10
BRANCH   7  23
HETATM   23  N5  UNL     1       1.728   7.508  20.047  1.00  0.00    -0.190 N 
ATOM     24  H5  UNL     1       1.640   8.386  20.559  1.00  0.00     0.184 HD
BRANCH  23  25
HETATM   25  C8  UNL     1       3.005   7.127  19.496  1.00  0.00     0.064 A 
HETATM   26  C9  UNL     1       4.121   7.041  20.302  1.00  0.00     0.033 A 
HETATM   27  C10 UNL     1       5.348   6.677  19.790  1.00  0.00     0.019 A 
HETATM   28  C11 UNL     1       5.468   6.393  18.444  1.00  0.00     0.088 A 
HETATM   29  N6  UNL     1       4.359   6.490  17.700  1.00  0.00    -0.373 N 
HETATM   30  C12 UNL     1       3.151   6.839  18.161  1.00  0.00     0.117 A 
ATOM     31  H6  UNL     1       4.440   6.282  16.705  1.00  0.00     0.164 HD
ENDBRANCH  23  25
ENDBRANCH   7  23
TORSDOF 6
ENDMDL
