MODEL 1
REMARK VINA RESULT: -7.659230404      0.000      0.000
REMARK  9 active torsions:
REMARK  status: ('A' for Active; 'I' for Inactive)
REMARK    1  A    between atoms: O1_1  and  C1_3 
REMARK    2  A    between atoms: C1_3  and  C2_4 
REMARK    3  A    between atoms: C3_9  and  N3_10 
REMARK    4  A    between atoms: N3_10  and  C4_12 
REMARK    5  A    between atoms: C4_12  and  C5_13 
REMARK    6  A    between atoms: C5_13  and  C6_14 
REMARK    7  A    between atoms: C6_14  and  C7_15 
REMARK    8  A    between atoms: C7_15  and  C8_16 
REMARK    9  A    between atoms: C8_16  and  N4_17 
ROOT
HETATM    1  N3  UNL     1     -18.992   3.316  -9.786  1.00  0.00    -0.225 N 
ATOM      2  H3  UNL     1     -18.024   3.634  -9.771  1.00  0.00     0.177 HD
ENDROOT
BRANCH   1   3
HETATM    3  C3  UNL     1     -19.256   2.104 -10.146  1.00  0.00     0.694 A 
HETATM    4  N2  UNL     1     -18.376   1.206 -10.567  1.00  0.00    -0.131 N 
HETATM    5  N1  UNL     1     -19.064   0.102 -10.832  1.00  0.00    -0.272 N 
ATOM      6  H2  UNL     1     -17.369   1.337 -10.667  1.00  0.00     0.205 HD
HETATM    7  C2  UNL     1     -20.354   0.306 -10.582  1.00  0.00     0.136 A 
ATOM      8  H1  UNL     1     -18.664  -0.771 -11.176  1.00  0.00     0.189 HD
HETATM    9  N5  UNL     1     -20.494   1.563 -10.148  1.00  0.00    -0.176 N 
ATOM     10  H5  UNL     1     -21.363   2.022  -9.874  1.00  0.00     0.185 HD
BRANCH   7  11
HETATM   11  C1  UNL     1     -21.471  -0.665 -10.740  1.00  0.00     0.242 C 
BRANCH  11  12
HETATM   12  O1  UNL     1     -21.770  -1.131  -9.445  1.00  0.00    -0.393 OA
ATOM     13  H1  UNL     1     -20.945  -1.143  -8.973  1.00  0.00     0.209 HD
ENDBRANCH  11  12
ENDBRANCH   7  11
ENDBRANCH   1   3
BRANCH   1  14
HETATM   14  C4  UNL     1     -20.043   4.227  -9.406  1.00  0.00     0.138 C 
BRANCH  14  15
HETATM   15  C5  UNL     1     -20.413   3.915  -7.954  1.00  0.00     0.020 C 
BRANCH  15  16
HETATM   16  C6  UNL     1     -21.900   3.704  -7.935  1.00  0.00     0.003 C 
BRANCH  16  17
HETATM   17  C7  UNL     1     -22.344   2.884  -6.753  1.00  0.00     0.030 C 
BRANCH  17  18
HETATM   18  C8  UNL     1     -23.786   2.610  -6.868  1.00  0.00     0.272 C 
BRANCH  18  19
HETATM   19  N4  UNL     1     -24.164   1.255  -7.118  1.00  0.00     0.088 N 
HETATM   20  C9  UNL     1     -25.550   1.037  -7.378  1.00  0.00     0.272 C 
HETATM   21  C10 UNL     1     -26.420   1.104  -6.165  1.00  0.00     0.030 C 
HETATM   22  C11 UNL     1     -25.877   0.190  -5.104  1.00  0.00     0.003 C 
HETATM   23  C12 UNL     1     -24.458   0.658  -4.799  1.00  0.00     0.030 C 
HETATM   24  C13 UNL     1     -23.647   0.439  -6.046  1.00  0.00     0.272 C 
ENDBRANCH  18  19
ENDBRANCH  17  18
ENDBRANCH  16  17
ENDBRANCH  15  16
ENDBRANCH  14  15
ENDBRANCH   1  14
TORSDOF 9
ENDMDL
MODEL 2
REMARK VINA RESULT: -7.473204503      1.460      1.492
REMARK  9 active torsions:
REMARK  status: ('A' for Active; 'I' for Inactive)
REMARK    1  A    between atoms: O1_1  and  C1_3 
REMARK    2  A    between atoms: C1_3  and  C2_4 
REMARK    3  A    between atoms: C3_9  and  N3_10 
REMARK    4  A    between atoms: N3_10  and  C4_12 
REMARK    5  A    between atoms: C4_12  and  C5_13 
REMARK    6  A    between atoms: C5_13  and  C6_14 
REMARK    7  A    between atoms: C6_14  and  C7_15 
REMARK    8  A    between atoms: C7_15  and  C8_16 
REMARK    9  A    between atoms: C8_16  and  N4_17 
ROOT
HETATM    1  N3  UNL     1     -18.952   2.715  -9.622  1.00  0.00    -0.225 N 
ATOM      2  H3  UNL     1     -18.128   2.565  -9.041  1.00  0.00     0.177 HD
ENDROOT
BRANCH   1   3
HETATM    3  C3  UNL     1     -19.261   1.840 -10.521  1.00  0.00     0.694 A 
HETATM    4  N2  UNL     1     -18.971   0.545 -10.483  1.00  0.00    -0.131 N 
HETATM    5  N1  UNL     1     -19.468   0.017 -11.594  1.00  0.00    -0.272 N 
ATOM      6  H2  UNL     1     -18.465   0.054  -9.745  1.00  0.00     0.205 HD
HETATM    7  C2  UNL     1     -20.061   0.963 -12.316  1.00  0.00     0.136 A 
ATOM      8  H1  UNL     1     -19.406  -0.967 -11.855  1.00  0.00     0.189 HD
HETATM    9  N5  UNL     1     -19.940   2.119 -11.655  1.00  0.00    -0.176 N 
ATOM     10  H5  UNL     1     -20.291   3.031 -11.949  1.00  0.00     0.185 HD
BRANCH   7  11
HETATM   11  C1  UNL     1     -20.747   0.805 -13.627  1.00  0.00     0.242 C 
BRANCH  11  12
HETATM   12  O1  UNL     1     -20.623  -0.554 -13.972  1.00  0.00    -0.393 OA
ATOM     13  H1  UNL     1     -21.336  -0.740 -14.573  1.00  0.00     0.209 HD
ENDBRANCH  11  12
ENDBRANCH   7  11
ENDBRANCH   1   3
BRANCH   1  14
HETATM   14  C4  UNL     1     -19.751   3.898  -9.427  1.00  0.00     0.138 C 
BRANCH  14  15
HETATM   15  C5  UNL     1     -20.312   3.840  -8.005  1.00  0.00     0.020 C 
BRANCH  15  16
HETATM   16  C6  UNL     1     -21.745   3.407  -8.135  1.00  0.00     0.003 C 
BRANCH  16  17
HETATM   17  C7  UNL     1     -22.342   3.008  -6.812  1.00  0.00     0.030 C 
BRANCH  17  18
HETATM   18  C8  UNL     1     -23.754   2.642  -7.009  1.00  0.00     0.272 C 
BRANCH  18  19
HETATM   19  N4  UNL     1     -24.044   1.251  -7.151  1.00  0.00     0.088 N 
HETATM   20  C9  UNL     1     -25.400   0.929  -7.457  1.00  0.00     0.272 C 
HETATM   21  C10 UNL     1     -26.337   1.052  -6.299  1.00  0.00     0.030 C 
HETATM   22  C11 UNL     1     -25.803   0.270  -5.133  1.00  0.00     0.003 C 
HETATM   23  C12 UNL     1     -24.431   0.847  -4.804  1.00  0.00     0.030 C 
HETATM   24  C13 UNL     1     -23.542   0.566  -5.983  1.00  0.00     0.272 C 
ENDBRANCH  18  19
ENDBRANCH  17  18
ENDBRANCH  16  17
ENDBRANCH  15  16
ENDBRANCH  14  15
ENDBRANCH   1  14
TORSDOF 9
ENDMDL
MODEL 3
REMARK VINA RESULT: -7.292798189      1.183      1.735
REMARK  9 active torsions:
REMARK  status: ('A' for Active; 'I' for Inactive)
REMARK    1  A    between atoms: O1_1  and  C1_3 
REMARK    2  A    between atoms: C1_3  and  C2_4 
REMARK    3  A    between atoms: C3_9  and  N3_10 
REMARK    4  A    between atoms: N3_10  and  C4_12 
REMARK    5  A    between atoms: C4_12  and  C5_13 
REMARK    6  A    between atoms: C5_13  and  C6_14 
REMARK    7  A    between atoms: C6_14  and  C7_15 
REMARK    8  A    between atoms: C7_15  and  C8_16 
REMARK    9  A    between atoms: C8_16  and  N4_17 
ROOT
HETATM    1  N3  UNL     1     -20.474   3.786  -9.198  1.00  0.00    -0.225 N 
ATOM      2  H3  UNL     1     -19.911   4.636  -9.200  1.00  0.00     0.177 HD
ENDROOT
BRANCH   1   3
HETATM    3  C3  UNL     1     -20.030   2.729  -9.792  1.00  0.00     0.694 A 
HETATM    4  N2  UNL     1     -18.767   2.322  -9.821  1.00  0.00    -0.131 N 
HETATM    5  N1  UNL     1     -18.750   1.202 -10.534  1.00  0.00    -0.272 N 
ATOM      6  H2  UNL     1     -17.968   2.780  -9.383  1.00  0.00     0.205 HD
HETATM    7  C2  UNL     1     -19.982   0.912 -10.944  1.00  0.00     0.136 A 
ATOM      8  H1  UNL     1     -17.918   0.648 -10.736  1.00  0.00     0.189 HD
HETATM    9  N5  UNL     1     -20.802   1.863 -10.486  1.00  0.00    -0.176 N 
ATOM     10  H5  UNL     1     -21.810   1.924 -10.631  1.00  0.00     0.185 HD
BRANCH   7  11
HETATM   11  C1  UNL     1     -20.411  -0.254 -11.764  1.00  0.00     0.242 C 
BRANCH  11  12
HETATM   12  O1  UNL     1     -21.247  -1.027 -10.936  1.00  0.00    -0.393 OA
ATOM     13  H1  UNL     1     -20.836  -1.034 -10.079  1.00  0.00     0.209 HD
ENDBRANCH  11  12
ENDBRANCH   7  11
ENDBRANCH   1   3
BRANCH   1  14
HETATM   14  C4  UNL     1     -21.752   3.786  -8.533  1.00  0.00     0.138 C 
BRANCH  14  15
HETATM   15  C5  UNL     1     -21.507   3.397  -7.073  1.00  0.00     0.020 C 
BRANCH  15  16
HETATM   16  C6  UNL     1     -22.726   2.640  -6.628  1.00  0.00     0.003 C 
BRANCH  16  17
HETATM   17  C7  UNL     1     -23.951   3.021  -7.414  1.00  0.00     0.030 C 
BRANCH  17  18
HETATM   18  C8  UNL     1     -25.134   2.392  -6.802  1.00  0.00     0.272 C 
BRANCH  18  19
HETATM   19  N4  UNL     1     -25.164   0.964  -6.783  1.00  0.00     0.088 N 
HETATM   20  C9  UNL     1     -25.596   0.337  -7.990  1.00  0.00     0.272 C 
HETATM   21  C10 UNL     1     -27.070   0.411  -8.227  1.00  0.00     0.030 C 
HETATM   22  C11 UNL     1     -27.800  -0.095  -7.016  1.00  0.00     0.003 C 
HETATM   23  C12 UNL     1     -27.379   0.785  -5.844  1.00  0.00     0.030 C 
HETATM   24  C13 UNL     1     -25.912   0.546  -5.621  1.00  0.00     0.272 C 
ENDBRANCH  18  19
ENDBRANCH  17  18
ENDBRANCH  16  17
ENDBRANCH  15  16
ENDBRANCH  14  15
ENDBRANCH   1  14
TORSDOF 9
ENDMDL
MODEL 4
REMARK VINA RESULT: -7.266190800      1.500      1.810
REMARK  9 active torsions:
REMARK  status: ('A' for Active; 'I' for Inactive)
REMARK    1  A    between atoms: O1_1  and  C1_3 
REMARK    2  A    between atoms: C1_3  and  C2_4 
REMARK    3  A    between atoms: C3_9  and  N3_10 
REMARK    4  A    between atoms: N3_10  and  C4_12 
REMARK    5  A    between atoms: C4_12  and  C5_13 
REMARK    6  A    between atoms: C5_13  and  C6_14 
REMARK    7  A    between atoms: C6_14  and  C7_15 
REMARK    8  A    between atoms: C7_15  and  C8_16 
REMARK    9  A    between atoms: C8_16  and  N4_17 
ROOT
HETATM    1  N3  UNL     1     -19.739   2.884  -9.346  1.00  0.00    -0.225 N 
ATOM      2  H3  UNL     1     -18.912   3.191  -8.835  1.00  0.00     0.177 HD
ENDROOT
BRANCH   1   3
HETATM    3  C3  UNL     1     -19.612   2.026 -10.303  1.00  0.00     0.694 A 
HETATM    4  N2  UNL     1     -18.661   1.107 -10.405  1.00  0.00    -0.131 N 
HETATM    5  N1  UNL     1     -18.901   0.443 -11.530  1.00  0.00    -0.272 N 
ATOM      6  H2  UNL     1     -17.896   0.942  -9.750  1.00  0.00     0.205 HD
HETATM    7  C2  UNL     1     -19.984   0.938 -12.122  1.00  0.00     0.136 A 
ATOM      8  H1  UNL     1     -18.339  -0.330 -11.886  1.00  0.00     0.189 HD
HETATM    9  N5  UNL     1     -20.446   1.937 -11.362  1.00  0.00    -0.176 N 
ATOM     10  H5  UNL     1     -21.265   2.516 -11.546  1.00  0.00     0.185 HD
BRANCH   7  11
HETATM   11  C1  UNL     1     -20.604   0.487 -13.398  1.00  0.00     0.242 C 
BRANCH  11  12
HETATM   12  O1  UNL     1     -20.398  -0.904 -13.462  1.00  0.00    -0.393 OA
ATOM     13  H1  UNL     1     -21.194  -1.304 -13.131  1.00  0.00     0.209 HD
ENDBRANCH  11  12
ENDBRANCH   7  11
ENDBRANCH   1   3
BRANCH   1  14
HETATM   14  C4  UNL     1     -21.030   3.416  -8.988  1.00  0.00     0.138 C 
BRANCH  14  15
HETATM   15  C5  UNL     1     -20.984   3.761  -7.498  1.00  0.00     0.020 C 
BRANCH  15  16
HETATM   16  C6  UNL     1     -22.096   2.985  -6.852  1.00  0.00     0.003 C 
BRANCH  16  17
HETATM   17  C7  UNL     1     -23.408   3.168  -7.567  1.00  0.00     0.030 C 
BRANCH  17  18
HETATM   18  C8  UNL     1     -24.485   2.570  -6.761  1.00  0.00     0.272 C 
BRANCH  18  19
HETATM   19  N4  UNL     1     -24.562   1.144  -6.748  1.00  0.00     0.088 N 
HETATM   20  C9  UNL     1     -24.949   0.533  -7.979  1.00  0.00     0.272 C 
HETATM   21  C10 UNL     1     -26.405   0.654  -8.293  1.00  0.00     0.030 C 
HETATM   22  C11 UNL     1     -27.214   0.170  -7.124  1.00  0.00     0.003 C 
HETATM   23  C12 UNL     1     -26.828   1.034  -5.928  1.00  0.00     0.030 C 
HETATM   24  C13 UNL     1     -25.383   0.748  -5.629  1.00  0.00     0.272 C 
ENDBRANCH  18  19
ENDBRANCH  17  18
ENDBRANCH  16  17
ENDBRANCH  15  16
ENDBRANCH  14  15
ENDBRANCH   1  14
TORSDOF 9
ENDMDL
MODEL 5
REMARK VINA RESULT: -7.245343061      1.535      1.917
REMARK  9 active torsions:
REMARK  status: ('A' for Active; 'I' for Inactive)
REMARK    1  A    between atoms: O1_1  and  C1_3 
REMARK    2  A    between atoms: C1_3  and  C2_4 
REMARK    3  A    between atoms: C3_9  and  N3_10 
REMARK    4  A    between atoms: N3_10  and  C4_12 
REMARK    5  A    between atoms: C4_12  and  C5_13 
REMARK    6  A    between atoms: C5_13  and  C6_14 
REMARK    7  A    between atoms: C6_14  and  C7_15 
REMARK    8  A    between atoms: C7_15  and  C8_16 
REMARK    9  A    between atoms: C8_16  and  N4_17 
ROOT
HETATM    1  N3  UNL     1     -19.267   2.707  -9.656  1.00  0.00    -0.225 N 
ATOM      2  H3  UNL     1     -18.367   2.877  -9.208  1.00  0.00     0.177 HD
ENDROOT
BRANCH   1   3
HETATM    3  C3  UNL     1     -19.384   1.727 -10.489  1.00  0.00     0.694 A 
HETATM    4  N2  UNL     1     -18.776   0.550 -10.402  1.00  0.00    -0.131 N 
HETATM    5  N1  UNL     1     -19.171  -0.155 -11.455  1.00  0.00    -0.272 N 
ATOM      6  H2  UNL     1     -18.132   0.248  -9.671  1.00  0.00     0.205 HD
HETATM    7  C2  UNL     1     -20.013   0.567 -12.189  1.00  0.00     0.136 A 
ATOM      8  H1  UNL     1     -18.874  -1.107 -11.668  1.00  0.00     0.189 HD
HETATM    9  N5  UNL     1     -20.159   1.756 -11.596  1.00  0.00    -0.176 N 
ATOM     10  H5  UNL     1     -20.740   2.532 -11.915  1.00  0.00     0.185 HD
BRANCH   7  11
HETATM   11  C1  UNL     1     -20.693   0.160 -13.449  1.00  0.00     0.242 C 
BRANCH  11  12
HETATM   12  O1  UNL     1     -20.353  -1.191 -13.658  1.00  0.00    -0.393 OA
ATOM     13  H1  UNL     1     -19.509  -1.317 -13.240  1.00  0.00     0.209 HD
ENDBRANCH  11  12
ENDBRANCH   7  11
ENDBRANCH   1   3
BRANCH   1  14
HETATM   14  C4  UNL     1     -20.384   3.562  -9.349  1.00  0.00     0.138 C 
BRANCH  14  15
HETATM   15  C5  UNL     1     -20.314   3.886  -7.855  1.00  0.00     0.020 C 
BRANCH  15  16
HETATM   16  C6  UNL     1     -21.626   3.450  -7.267  1.00  0.00     0.003 C 
BRANCH  16  17
HETATM   17  C7  UNL     1     -22.480   2.713  -8.264  1.00  0.00     0.030 C 
BRANCH  17  18
HETATM   18  C8  UNL     1     -23.351   1.766  -7.549  1.00  0.00     0.272 C 
BRANCH  18  19
HETATM   19  N4  UNL     1     -24.205   2.313  -6.543  1.00  0.00     0.088 N 
HETATM   20  C9  UNL     1     -24.129   1.692  -5.260  1.00  0.00     0.272 C 
HETATM   21  C10 UNL     1     -24.810   0.363  -5.181  1.00  0.00     0.030 C 
HETATM   22  C11 UNL     1     -26.220   0.490  -5.683  1.00  0.00     0.003 C 
HETATM   23  C12 UNL     1     -26.136   0.988  -7.122  1.00  0.00     0.030 C 
HETATM   24  C13 UNL     1     -25.546   2.370  -7.074  1.00  0.00     0.272 C 
ENDBRANCH  18  19
ENDBRANCH  17  18
ENDBRANCH  16  17
ENDBRANCH  15  16
ENDBRANCH  14  15
ENDBRANCH   1  14
TORSDOF 9
ENDMDL
