MODEL 1
REMARK VINA RESULT: -5.755969144      0.000      0.000
REMARK  1 active torsions:
REMARK  status: ('A' for Active; 'I' for Inactive)
REMARK    1  A    between atoms: C9_17  and  C10_18 
ROOT
HETATM    1  C1  UNL     1      59.076   0.916   6.612  1.00  0.00     0.043 C 
HETATM    2  C2  UNL     1      57.793   1.062   5.912  1.00  0.00    -0.082 C 
HETATM    3  C3  UNL     1      57.066  -0.009   5.659  1.00  0.00     0.030 C 
HETATM    4  C4  UNL     1      55.780   0.224   4.947  1.00  0.00     0.041 C 
HETATM    5  N1  UNL     1      54.785  -0.505   5.303  1.00  0.00    -0.301 N 
ATOM      6  H1  UNL     1      54.930  -1.195   6.041  1.00  0.00     0.186 HD
HETATM    7  N2  UNL     1      53.522  -0.403   4.734  1.00  0.00    -0.267 N 
ATOM      8  H2  UNL     1      52.746  -0.995   5.031  1.00  0.00     0.190 HD
HETATM    9  C5  UNL     1      53.372   0.589   3.697  1.00  0.00     0.272 C 
HETATM   10  O1  UNL     1      52.504   0.481   2.828  1.00  0.00    -0.268 OA
HETATM   11  C6  UNL     1      54.307   1.752   3.710  1.00  0.00     0.167 C 
HETATM   12  C7  UNL     1      54.007   2.800   2.727  1.00  0.00     0.122 C 
HETATM   13  C8  UNL     1      53.207   3.494   3.835  1.00  0.00     0.220 C 
HETATM   14 CL1  UNL     1      51.454   3.237   3.752  1.00  0.00    -0.070 Cl
HETATM   15 CL2  UNL     1      53.544   5.212   4.039  1.00  0.00    -0.070 Cl
HETATM   16  O2  UNL     1      53.884   2.647   4.719  1.00  0.00    -0.329 OA
HETATM   17  C9  UNL     1      55.735   1.263   3.873  1.00  0.00     0.074 C 
HETATM   18  C11 UNL     1      56.605   2.406   4.193  1.00  0.00     0.027 C 
HETATM   19  C12 UNL     1      57.331   2.381   5.503  1.00  0.00     0.035 C 
ENDROOT
BRANCH  17  20
HETATM   20  C10 UNL     1      56.185   0.526   2.610  1.00  0.00     0.196 C 
HETATM   21 CL3  UNL     1      55.683  -1.179   2.665  1.00  0.00    -0.107 Cl
HETATM   22 CL4  UNL     1      57.951   0.528   2.424  1.00  0.00    -0.107 Cl
ENDBRANCH  17  20
TORSDOF 1
ENDMDL
MODEL 2
REMARK VINA RESULT: -3.776520014      2.210      4.786
REMARK  1 active torsions:
REMARK  status: ('A' for Active; 'I' for Inactive)
REMARK    1  A    between atoms: C9_17  and  C10_18 
ROOT
HETATM    1  C1  UNL     1      53.740   6.376   2.957  1.00  0.00     0.043 C 
HETATM    2  C2  UNL     1      54.141   4.985   3.210  1.00  0.00    -0.082 C 
HETATM    3  C3  UNL     1      53.459   4.002   2.654  1.00  0.00     0.030 C 
HETATM    4  C4  UNL     1      53.929   2.624   2.960  1.00  0.00     0.041 C 
HETATM    5  N1  UNL     1      53.867   1.770   2.003  1.00  0.00    -0.301 N 
ATOM      6  H1  UNL     1      53.502   2.078   1.101  1.00  0.00     0.186 HD
HETATM    7  N2  UNL     1      54.270   0.447   2.134  1.00  0.00    -0.267 N 
ATOM      8  H2  UNL     1      54.210  -0.215   1.361  1.00  0.00     0.190 HD
HETATM    9  C5  UNL     1      54.780   0.065   3.428  1.00  0.00     0.272 C 
HETATM   10  O1  UNL     1      54.734  -1.105   3.814  1.00  0.00    -0.268 OA
HETATM   11  C6  UNL     1      55.363   1.136   4.288  1.00  0.00     0.167 C 
HETATM   12  C7  UNL     1      56.002   0.662   5.522  1.00  0.00     0.122 C 
HETATM   13  C8  UNL     1      57.318   0.645   4.735  1.00  0.00     0.220 C 
HETATM   14 CL1  UNL     1      57.803  -0.955   4.145  1.00  0.00    -0.070 Cl
HETATM   15 CL2  UNL     1      58.682   1.418   5.541  1.00  0.00    -0.070 Cl
HETATM   16  O2  UNL     1      56.653   1.441   3.797  1.00  0.00    -0.329 OA
HETATM   17  C9  UNL     1      54.421   2.325   4.340  1.00  0.00     0.074 C 
HETATM   18  C11 UNL     1      55.126   3.477   4.921  1.00  0.00     0.027 C 
HETATM   19  C12 UNL     1      55.282   4.700   4.068  1.00  0.00     0.035 C 
ENDROOT
BRANCH  17  20
HETATM   20  C10 UNL     1      53.158   1.961   5.124  1.00  0.00     0.196 C 
HETATM   21 CL3  UNL     1      51.969   1.168   4.066  1.00  0.00    -0.107 Cl
HETATM   22 CL4  UNL     1      52.355   3.390   5.806  1.00  0.00    -0.107 Cl
ENDBRANCH  17  20
TORSDOF 1
ENDMDL
MODEL 3
REMARK VINA RESULT: -3.406188071      1.691      2.216
REMARK  1 active torsions:
REMARK  status: ('A' for Active; 'I' for Inactive)
REMARK    1  A    between atoms: C9_17  and  C10_18 
ROOT
HETATM    1  C1  UNL     1      57.626   0.202   5.528  1.00  0.00     0.043 C 
HETATM    2  C2  UNL     1      56.441   0.968   5.118  1.00  0.00    -0.082 C 
HETATM    3  C3  UNL     1      55.272   0.362   5.040  1.00  0.00     0.030 C 
HETATM    4  C4  UNL     1      54.123   1.207   4.617  1.00  0.00     0.041 C 
HETATM    5  N1  UNL     1      52.996   0.972   5.187  1.00  0.00    -0.301 N 
ATOM      6  H1  UNL     1      52.952   0.230   5.885  1.00  0.00     0.186 HD
HETATM    7  N2  UNL     1      51.835   1.678   4.900  1.00  0.00    -0.267 N 
ATOM      8  H2  UNL     1      50.950   1.474   5.363  1.00  0.00     0.190 HD
HETATM    9  C5  UNL     1      51.954   2.718   3.907  1.00  0.00     0.272 C 
HETATM   10  O1  UNL     1      50.980   3.086   3.245  1.00  0.00    -0.268 OA
HETATM   11  C6  UNL     1      53.298   3.334   3.704  1.00  0.00     0.167 C 
HETATM   12  C7  UNL     1      53.322   4.486   2.795  1.00  0.00     0.122 C 
HETATM   13  C8  UNL     1      53.161   5.366   4.041  1.00  0.00     0.220 C 
HETATM   14 CL1  UNL     1      51.507   5.929   4.337  1.00  0.00    -0.070 Cl
HETATM   15 CL2  UNL     1      54.278   6.726   4.146  1.00  0.00    -0.070 Cl
HETATM   16  O2  UNL     1      53.536   4.232   4.769  1.00  0.00    -0.329 OA
HETATM   17  C9  UNL     1      54.347   2.245   3.564  1.00  0.00     0.074 C 
HETATM   18  C11 UNL     1      55.685   2.845   3.676  1.00  0.00     0.027 C 
HETATM   19  C12 UNL     1      56.562   2.384   4.801  1.00  0.00     0.035 C 
ENDROOT
BRANCH  17  20
HETATM   20  C10 UNL     1      54.154   1.497   2.243  1.00  0.00     0.196 C 
HETATM   21 CL3  UNL     1      52.508   0.830   2.134  1.00  0.00    -0.107 Cl
HETATM   22 CL4  UNL     1      55.268   0.124   2.079  1.00  0.00    -0.107 Cl
ENDBRANCH  17  20
TORSDOF 1
ENDMDL
MODEL 4
REMARK VINA RESULT: -3.085936342      2.150      5.130
REMARK  1 active torsions:
REMARK  status: ('A' for Active; 'I' for Inactive)
REMARK    1  A    between atoms: C9_17  and  C10_18 
ROOT
HETATM    1  C1  UNL     1      50.741   2.715   4.071  1.00  0.00     0.043 C 
HETATM    2  C2  UNL     1      52.154   2.313   4.107  1.00  0.00    -0.082 C 
HETATM    3  C3  UNL     1      52.968   2.879   4.978  1.00  0.00     0.030 C 
HETATM    4  C4  UNL     1      54.381   2.417   4.949  1.00  0.00     0.041 C 
HETATM    5  N1  UNL     1      54.977   2.316   6.083  1.00  0.00    -0.301 N 
ATOM      6  H1  UNL     1      54.456   2.557   6.927  1.00  0.00     0.186 HD
HETATM    7  N2  UNL     1      56.294   1.897   6.218  1.00  0.00    -0.267 N 
ATOM      8  H2  UNL     1      56.748   1.826   7.129  1.00  0.00     0.190 HD
HETATM    9  C5  UNL     1      56.983   1.567   4.995  1.00  0.00     0.272 C 
HETATM   10  O1  UNL     1      58.212   1.633   4.914  1.00  0.00    -0.268 OA
HETATM   11  C6  UNL     1      56.157   1.145   3.825  1.00  0.00     0.167 C 
HETATM   12  C7  UNL     1      56.922   0.677   2.663  1.00  0.00     0.122 C 
HETATM   13  C8  UNL     1      56.755  -0.739   3.229  1.00  0.00     0.220 C 
HETATM   14 CL1  UNL     1      58.166  -1.351   4.112  1.00  0.00    -0.070 Cl
HETATM   15 CL2  UNL     1      56.210  -1.950   2.070  1.00  0.00    -0.070 Cl
HETATM   16  O2  UNL     1      55.750  -0.192   4.034  1.00  0.00    -0.329 OA
HETATM   17  C9  UNL     1      55.011   2.120   3.626  1.00  0.00     0.074 C 
HETATM   18  C11 UNL     1      54.040   1.539   2.686  1.00  0.00     0.027 C 
HETATM   19  C12 UNL     1      52.647   1.299   3.186  1.00  0.00     0.035 C 
ENDROOT
BRANCH  17  20
HETATM   20  C10 UNL     1      55.547   3.471   3.147  1.00  0.00     0.196 C 
HETATM   21 CL3  UNL     1      55.902   4.532   4.529  1.00  0.00    -0.107 Cl
HETATM   22 CL4  UNL     1      54.376   4.337   2.131  1.00  0.00    -0.107 Cl
ENDBRANCH  17  20
TORSDOF 1
ENDMDL
MODEL 5
REMARK VINA RESULT: -2.939527658      2.636      3.831
REMARK  1 active torsions:
REMARK  status: ('A' for Active; 'I' for Inactive)
REMARK    1  A    between atoms: C9_17  and  C10_18 
ROOT
HETATM    1  C1  UNL     1      56.042  -1.615   2.671  1.00  0.00     0.043 C 
HETATM    2  C2  UNL     1      55.497  -0.303   3.045  1.00  0.00    -0.082 C 
HETATM    3  C3  UNL     1      56.276   0.761   2.999  1.00  0.00     0.030 C 
HETATM    4  C4  UNL     1      55.648   2.050   3.393  1.00  0.00     0.041 C 
HETATM    5  N1  UNL     1      56.005   3.090   2.729  1.00  0.00    -0.301 N 
ATOM      6  H1  UNL     1      56.689   2.977   1.982  1.00  0.00     0.186 HD
HETATM    7  N2  UNL     1      55.505   4.363   2.978  1.00  0.00    -0.267 N 
ATOM      8  H2  UNL     1      55.804   5.175   2.439  1.00  0.00     0.190 HD
HETATM    9  C5  UNL     1      54.539   4.467   4.044  1.00  0.00     0.272 C 
HETATM   10  O1  UNL     1      54.373   5.524   4.657  1.00  0.00    -0.268 OA
HETATM   11  C6  UNL     1      53.746   3.249   4.383  1.00  0.00     0.167 C 
HETATM   12  C7  UNL     1      52.676   3.459   5.366  1.00  0.00     0.122 C 
HETATM   13  C8  UNL     1      51.737   3.678   4.174  1.00  0.00     0.220 C 
HETATM   14 CL1  UNL     1      51.408   5.379   3.797  1.00  0.00    -0.070 Cl
HETATM   15 CL2  UNL     1      50.221   2.782   4.240  1.00  0.00    -0.070 Cl
HETATM   16  O2  UNL     1      52.743   3.089   3.401  1.00  0.00    -0.329 OA
HETATM   17  C9  UNL     1      54.672   2.055   4.526  1.00  0.00     0.074 C 
HETATM   18  C11 UNL     1      53.871   0.821   4.551  1.00  0.00     0.027 C 
HETATM   19  C12 UNL     1      54.107  -0.183   3.464  1.00  0.00     0.035 C 
ENDROOT
BRANCH  17  20
HETATM   20  C10 UNL     1      55.540   2.210   5.777  1.00  0.00     0.196 C 
HETATM   21 CL3  UNL     1      56.995   3.167   5.417  1.00  0.00    -0.107 Cl
HETATM   22 CL4  UNL     1      56.104   0.646   6.401  1.00  0.00    -0.107 Cl
ENDBRANCH  17  20
TORSDOF 1
ENDMDL
