MODEL 1
REMARK VINA RESULT: -8.507812367      0.000      0.000
REMARK  9 active torsions:
REMARK  status: ('A' for Active; 'I' for Inactive)
REMARK    1  A    between atoms: N1_1  and  C1_4 
REMARK    2  A    between atoms: C4_13  and  N5_14 
REMARK    3  A    between atoms: N5_14  and  C5_16 
REMARK    4  A    between atoms: C5_16  and  N6_17 
REMARK    5  A    between atoms: C5_16  and  C6_21 
REMARK    6  A    between atoms: C6_21  and  C7_22 
REMARK       I    between atoms: C7_22  and  N7_24 
REMARK    7  A    between atoms: N7_24  and  N8_25 
REMARK    8  A    between atoms: N7_24  and  N9_28 
REMARK    9  A    between atoms: C8_33  and  N11_34 
ROOT
HETATM    1  C1  UNL     1      24.381  -2.574  10.115  1.00  0.00     0.117 A 
HETATM    2  N2  UNL     1      24.551  -3.568  11.038  1.00  0.00    -0.338 N 
ATOM      3  H2  UNL     1      25.486  -3.963  11.141  1.00  0.00     0.168 HD
HETATM    4  C2  UNL     1      23.601  -4.048  11.800  1.00  0.00     0.183 A 
HETATM    5  N3  UNL     1      22.356  -3.569  11.705  1.00  0.00    -0.337 N 
ATOM      6  H3  UNL     1      21.607  -3.940  12.289  1.00  0.00     0.168 HD
HETATM    7  C3  UNL     1      22.115  -2.578  10.815  1.00  0.00     0.140 A 
HETATM    8  N4  UNL     1      20.868  -2.164  10.673  1.00  0.00    -0.175 N 
ATOM      9  H4  UNL     1      20.154  -2.567  11.280  1.00  0.00     0.186 HD
HETATM   10  C4  UNL     1      20.476  -1.215   9.746  1.00  0.00     0.683 A 
HETATM   11  N10 UNL     1      21.467  -0.762   9.037  1.00  0.00    -0.170 N 
ATOM     12  H10 UNL     1      21.216  -0.059   8.342  1.00  0.00     0.186 HD
HETATM   13  C8  UNL     1      22.787  -1.083   9.081  1.00  0.00     0.206 A 
HETATM   14  C9  UNL     1      23.101  -2.036  10.003  1.00  0.00     0.103 A 
ENDROOT
BRANCH  10  15
HETATM   15  N5  UNL     1      19.275  -0.895   9.636  1.00  0.00    -0.196 N 
ATOM     16  H5  UNL     1      18.755  -1.250  10.439  1.00  0.00     0.180 HD
BRANCH  15  17
HETATM   17  C5  UNL     1      18.423  -0.229   8.805  1.00  0.00     0.306 C 
BRANCH  17  18
HETATM   18  N6  UNL     1      18.643  -0.489   7.398  1.00  0.00    -0.057 N 
ATOM     19  H63 UNL     1      19.032  -1.422   7.264  1.00  0.00     0.276 HD
ATOM     20  H62 UNL     1      17.753  -0.600   6.912  1.00  0.00     0.276 HD
ATOM     21  H61 UNL     1      19.221   0.209   6.929  1.00  0.00     0.276 HD
ENDBRANCH  17  18
BRANCH  17  22
HETATM   22  C6  UNL     1      18.661   1.306   8.903  1.00  0.00     0.161 C 
BRANCH  22  23
HETATM   23  C7  UNL     1      17.336   1.997   8.889  1.00  0.00     0.260 C 
HETATM   24  O1  UNL     1      16.322   1.352   8.420  1.00  0.00    -0.270 OA
HETATM   25  N7  UNL     1      17.221   3.292   9.389  1.00  0.00    -0.174 N 
BRANCH  25  26
HETATM   26  N8  UNL     1      16.038   4.007   9.572  1.00  0.00    -0.322 N 
ATOM     27  H82 UNL     1      15.334   3.846   8.850  1.00  0.00     0.179 HD
ATOM     28  H81 UNL     1      15.833   4.656  10.332  1.00  0.00     0.179 HD
ENDBRANCH  25  26
BRANCH  25  29
HETATM   29  N9  UNL     1      18.416   4.008   9.784  1.00  0.00    -0.322 N 
ATOM     30  H92 UNL     1      18.854   3.656  10.636  1.00  0.00     0.179 HD
ATOM     31  H91 UNL     1      18.745   4.783   9.209  1.00  0.00     0.179 HD
ENDBRANCH  25  29
ENDBRANCH  22  23
ENDBRANCH  17  22
ENDBRANCH  15  17
ENDBRANCH  10  15
BRANCH  13  32
HETATM   32  N11 UNL     1      23.661  -0.376   8.175  1.00  0.00    -0.096 N 
HETATM   33  O2  UNL     1      23.586  -0.620   6.952  1.00  0.00    -0.530 OA
HETATM   34  O3  UNL     1      24.599   0.555   8.497  1.00  0.00    -0.530 OA
ENDBRANCH  13  32
BRANCH   1  35
HETATM   35  N1  UNL     1      25.242  -2.337   9.292  1.00  0.00    -0.385 N 
ATOM     36  H12 UNL     1      25.756  -3.086   8.827  1.00  0.00     0.157 HD
ATOM     37  H11 UNL     1      25.607  -1.391   9.178  1.00  0.00     0.157 HD
ENDBRANCH   1  35
TORSDOF 9
ENDMDL
MODEL 2
REMARK VINA RESULT: -8.343144421      1.309      2.027
REMARK  9 active torsions:
REMARK  status: ('A' for Active; 'I' for Inactive)
REMARK    1  A    between atoms: N1_1  and  C1_4 
REMARK    2  A    between atoms: C4_13  and  N5_14 
REMARK    3  A    between atoms: N5_14  and  C5_16 
REMARK    4  A    between atoms: C5_16  and  N6_17 
REMARK    5  A    between atoms: C5_16  and  C6_21 
REMARK    6  A    between atoms: C6_21  and  C7_22 
REMARK       I    between atoms: C7_22  and  N7_24 
REMARK    7  A    between atoms: N7_24  and  N8_25 
REMARK    8  A    between atoms: N7_24  and  N9_28 
REMARK    9  A    between atoms: C8_33  and  N11_34 
ROOT
HETATM    1  C1  UNL     1      24.399  -2.670  10.059  1.00  0.00     0.117 A 
HETATM    2  N2  UNL     1      24.434  -3.645  11.017  1.00  0.00    -0.338 N 
ATOM      3  H2  UNL     1      25.304  -4.166  11.129  1.00  0.00     0.168 HD
HETATM    4  C2  UNL     1      23.433  -3.956  11.800  1.00  0.00     0.183 A 
HETATM    5  N3  UNL     1      22.269  -3.306  11.694  1.00  0.00    -0.337 N 
ATOM      6  H3  UNL     1      21.480  -3.544  12.295  1.00  0.00     0.168 HD
HETATM    7  C3  UNL     1      22.164  -2.323  10.769  1.00  0.00     0.140 A 
HETATM    8  N4  UNL     1      20.987  -1.740  10.618  1.00  0.00    -0.175 N 
ATOM      9  H4  UNL     1      20.229  -2.014  11.244  1.00  0.00     0.186 HD
HETATM   10  C4  UNL     1      20.726  -0.778   9.659  1.00  0.00     0.683 A 
HETATM   11  N10 UNL     1      21.765  -0.498   8.929  1.00  0.00    -0.170 N 
ATOM     12  H10 UNL     1      21.610   0.209   8.210  1.00  0.00     0.186 HD
HETATM   13  C8  UNL     1      23.025  -1.004   8.979  1.00  0.00     0.206 A 
HETATM   14  C9  UNL     1      23.209  -1.958   9.934  1.00  0.00     0.103 A 
ENDROOT
BRANCH  10  15
HETATM   15  N5  UNL     1      19.582  -0.292   9.544  1.00  0.00    -0.196 N 
ATOM     16  H5  UNL     1      18.913  -0.878  10.044  1.00  0.00     0.180 HD
BRANCH  15  17
HETATM   17  C5  UNL     1      18.925   0.759   8.975  1.00  0.00     0.306 C 
BRANCH  17  18
HETATM   18  N6  UNL     1      19.046   2.001   9.707  1.00  0.00    -0.057 N 
ATOM     19  H63 UNL     1      18.854   1.852  10.697  1.00  0.00     0.276 HD
ATOM     20  H62 UNL     1      20.023   2.289   9.761  1.00  0.00     0.276 HD
ATOM     21  H61 UNL     1      18.470   2.760   9.342  1.00  0.00     0.276 HD
ENDBRANCH  17  18
BRANCH  17  22
HETATM   22  C6  UNL     1      17.388   0.509   8.991  1.00  0.00     0.161 C 
BRANCH  22  23
HETATM   23  C7  UNL     1      16.739   1.470   8.049  1.00  0.00     0.260 C 
HETATM   24  O1  UNL     1      16.437   2.643   8.492  1.00  0.00    -0.270 OA
HETATM   25  N7  UNL     1      16.492   1.092   6.731  1.00  0.00    -0.174 N 
BRANCH  25  26
HETATM   26  N8  UNL     1      16.026   1.916   5.707  1.00  0.00    -0.322 N 
ATOM     27  H82 UNL     1      16.460   2.840   5.681  1.00  0.00     0.179 HD
ATOM     28  H81 UNL     1      15.312   1.682   5.017  1.00  0.00     0.179 HD
ENDBRANCH  25  26
BRANCH  25  29
HETATM   29  N9  UNL     1      16.737  -0.277   6.329  1.00  0.00    -0.322 N 
ATOM     30  H92 UNL     1      16.638  -0.959   7.080  1.00  0.00     0.179 HD
ATOM     31  H91 UNL     1      16.975  -0.476   5.357  1.00  0.00     0.179 HD
ENDBRANCH  25  29
ENDBRANCH  22  23
ENDBRANCH  17  22
ENDBRANCH  15  17
ENDBRANCH  10  15
BRANCH  13  32
HETATM   32  N11 UNL     1      23.983  -0.462   8.043  1.00  0.00    -0.096 N 
HETATM   33  O2  UNL     1      24.744   0.452   8.422  1.00  0.00    -0.530 OA
HETATM   34  O3  UNL     1      24.164  -0.833   6.747  1.00  0.00    -0.530 OA
ENDBRANCH  13  32
BRANCH   1  35
HETATM   35  N1  UNL     1      25.277  -2.589   9.224  1.00  0.00    -0.385 N 
ATOM     36  H12 UNL     1      25.616  -3.411   8.724  1.00  0.00     0.157 HD
ATOM     37  H11 UNL     1      25.830  -1.736   9.130  1.00  0.00     0.157 HD
ENDBRANCH   1  35
TORSDOF 9
ENDMDL
MODEL 3
REMARK VINA RESULT: -8.000536262      2.561      3.747
REMARK  9 active torsions:
REMARK  status: ('A' for Active; 'I' for Inactive)
REMARK    1  A    between atoms: N1_1  and  C1_4 
REMARK    2  A    between atoms: C4_13  and  N5_14 
REMARK    3  A    between atoms: N5_14  and  C5_16 
REMARK    4  A    between atoms: C5_16  and  N6_17 
REMARK    5  A    between atoms: C5_16  and  C6_21 
REMARK    6  A    between atoms: C6_21  and  C7_22 
REMARK       I    between atoms: C7_22  and  N7_24 
REMARK    7  A    between atoms: N7_24  and  N8_25 
REMARK    8  A    between atoms: N7_24  and  N9_28 
REMARK    9  A    between atoms: C8_33  and  N11_34 
ROOT
HETATM    1  C1  UNL     1      25.179  -2.065   8.196  1.00  0.00     0.117 A 
HETATM    2  N2  UNL     1      25.795  -1.347   7.208  1.00  0.00    -0.338 N 
ATOM      3  H2  UNL     1      26.674  -1.709   6.839  1.00  0.00     0.168 HD
HETATM    4  C2  UNL     1      25.336  -0.230   6.702  1.00  0.00     0.183 A 
HETATM    5  N3  UNL     1      24.189   0.290   7.151  1.00  0.00    -0.337 N 
ATOM      6  H3  UNL     1      23.826   1.163   6.769  1.00  0.00     0.168 HD
HETATM    7  C3  UNL     1      23.521  -0.371   8.126  1.00  0.00     0.140 A 
HETATM    8  N4  UNL     1      22.430   0.190   8.617  1.00  0.00    -0.175 N 
ATOM      9  H4  UNL     1      22.108   1.064   8.201  1.00  0.00     0.186 HD
HETATM   10  C4  UNL     1      21.700  -0.342   9.665  1.00  0.00     0.683 A 
HETATM   11  N10 UNL     1      22.193  -1.460  10.108  1.00  0.00    -0.170 N 
ATOM     12  H10 UNL     1      21.681  -1.883  10.881  1.00  0.00     0.186 HD
HETATM   13  C8  UNL     1      23.289  -2.152   9.696  1.00  0.00     0.206 A 
HETATM   14  C9  UNL     1      23.971  -1.564   8.673  1.00  0.00     0.103 A 
ENDROOT
BRANCH  10  15
HETATM   15  N5  UNL     1      20.699   0.257  10.108  1.00  0.00    -0.196 N 
ATOM     16  H5  UNL     1      20.988   1.145  10.519  1.00  0.00     0.180 HD
BRANCH  15  17
HETATM   17  C5  UNL     1      19.346   0.124  10.227  1.00  0.00     0.306 C 
BRANCH  17  18
HETATM   18  N6  UNL     1      18.906  -0.308  11.536  1.00  0.00    -0.057 N 
ATOM     19  H63 UNL     1      17.996  -0.765  11.474  1.00  0.00     0.276 HD
ATOM     20  H62 UNL     1      19.471  -1.092  11.862  1.00  0.00     0.276 HD
ATOM     21  H61 UNL     1      18.886   0.434  12.236  1.00  0.00     0.276 HD
ENDBRANCH  17  18
BRANCH  17  22
HETATM   22  C6  UNL     1      18.833  -1.022   9.306  1.00  0.00     0.161 C 
BRANCH  22  23
HETATM   23  C7  UNL     1      18.675  -0.487   7.921  1.00  0.00     0.260 C 
HETATM   24  O1  UNL     1      19.691  -0.550   7.127  1.00  0.00    -0.270 OA
HETATM   25  N7  UNL     1      17.453   0.044   7.514  1.00  0.00    -0.174 N 
BRANCH  25  26
HETATM   26  N8  UNL     1      17.114   0.449   6.224  1.00  0.00    -0.322 N 
ATOM     27  H82 UNL     1      17.892   0.832   5.685  1.00  0.00     0.179 HD
ATOM     28  H81 UNL     1      16.188   0.402   5.797  1.00  0.00     0.179 HD
ENDBRANCH  25  26
BRANCH  25  29
HETATM   29  N9  UNL     1      16.391   0.202   8.486  1.00  0.00    -0.322 N 
ATOM     30  H92 UNL     1      15.627  -0.465   8.386  1.00  0.00     0.179 HD
ATOM     31  H91 UNL     1      16.468   0.935   9.193  1.00  0.00     0.179 HD
ENDBRANCH  25  29
ENDBRANCH  22  23
ENDBRANCH  17  22
ENDBRANCH  15  17
ENDBRANCH  10  15
BRANCH  13  32
HETATM   32  N11 UNL     1      23.567  -3.396  10.373  1.00  0.00    -0.096 N 
HETATM   33  O2  UNL     1      22.890  -4.405  10.082  1.00  0.00    -0.530 OA
HETATM   34  O3  UNL     1      24.508  -3.618  11.331  1.00  0.00    -0.530 OA
ENDBRANCH  13  32
BRANCH   1  35
HETATM   35  N1  UNL     1      25.766  -2.960   8.770  1.00  0.00    -0.385 N 
ATOM     36  H12 UNL     1      25.546  -3.940   8.595  1.00  0.00     0.157 HD
ATOM     37  H11 UNL     1      26.360  -2.760   9.575  1.00  0.00     0.157 HD
ENDBRANCH   1  35
TORSDOF 9
ENDMDL
MODEL 4
REMARK VINA RESULT: -7.960350021      2.324      3.539
REMARK  9 active torsions:
REMARK  status: ('A' for Active; 'I' for Inactive)
REMARK    1  A    between atoms: N1_1  and  C1_4 
REMARK    2  A    between atoms: C4_13  and  N5_14 
REMARK    3  A    between atoms: N5_14  and  C5_16 
REMARK    4  A    between atoms: C5_16  and  N6_17 
REMARK    5  A    between atoms: C5_16  and  C6_21 
REMARK    6  A    between atoms: C6_21  and  C7_22 
REMARK       I    between atoms: C7_22  and  N7_24 
REMARK    7  A    between atoms: N7_24  and  N8_25 
REMARK    8  A    between atoms: N7_24  and  N9_28 
REMARK    9  A    between atoms: C8_33  and  N11_34 
ROOT
HETATM    1  C1  UNL     1      25.052  -1.960   8.233  1.00  0.00     0.117 A 
HETATM    2  N2  UNL     1      25.524  -1.170   7.221  1.00  0.00    -0.338 N 
ATOM      3  H2  UNL     1      26.355  -1.488   6.721  1.00  0.00     0.168 HD
HETATM    4  C2  UNL     1      24.986  -0.036   6.849  1.00  0.00     0.183 A 
HETATM    5  N3  UNL     1      23.898   0.428   7.471  1.00  0.00    -0.337 N 
ATOM      6  H3  UNL     1      23.474   1.313   7.193  1.00  0.00     0.168 HD
HETATM    7  C3  UNL     1      23.372  -0.305   8.480  1.00  0.00     0.140 A 
HETATM    8  N4  UNL     1      22.343   0.198   9.140  1.00  0.00    -0.175 N 
ATOM      9  H4  UNL     1      21.956   1.087   8.823  1.00  0.00     0.186 HD
HETATM   10  C4  UNL     1      21.763  -0.413  10.237  1.00  0.00     0.683 A 
HETATM   11  N10 UNL     1      22.327  -1.543  10.542  1.00  0.00    -0.170 N 
ATOM     12  H10 UNL     1      21.925  -2.024  11.347  1.00  0.00     0.186 HD
HETATM   13  C8  UNL     1      23.372  -2.182   9.952  1.00  0.00     0.206 A 
HETATM   14  C9  UNL     1      23.907  -1.518   8.890  1.00  0.00     0.103 A 
ENDROOT
BRANCH  10  15
HETATM   15  N5  UNL     1      20.817   0.134  10.840  1.00  0.00    -0.196 N 
ATOM     16  H5  UNL     1      21.165   0.942  11.355  1.00  0.00     0.180 HD
BRANCH  15  17
HETATM   17  C5  UNL     1      19.473   0.014  11.041  1.00  0.00     0.306 C 
BRANCH  17  18
HETATM   18  N6  UNL     1      19.092  -1.130  11.840  1.00  0.00    -0.057 N 
ATOM     19  H63 UNL     1      19.561  -1.105  12.746  1.00  0.00     0.276 HD
ATOM     20  H62 UNL     1      18.123  -1.046  12.144  1.00  0.00     0.276 HD
ATOM     21  H61 UNL     1      19.246  -2.029  11.383  1.00  0.00     0.276 HD
ENDBRANCH  17  18
BRANCH  17  22
HETATM   22  C6  UNL     1      18.747  -0.264   9.692  1.00  0.00     0.161 C 
BRANCH  22  23
HETATM   23  C7  UNL     1      18.276   1.037   9.126  1.00  0.00     0.260 C 
HETATM   24  O1  UNL     1      18.942   2.102   9.420  1.00  0.00    -0.270 OA
HETATM   25  N7  UNL     1      17.157   1.071   8.296  1.00  0.00    -0.174 N 
BRANCH  25  26
HETATM   26  N8  UNL     1      16.685   2.175   7.588  1.00  0.00    -0.322 N 
ATOM     27  H82 UNL     1      15.924   2.675   8.047  1.00  0.00     0.179 HD
ATOM     28  H81 UNL     1      17.021   2.502   6.682  1.00  0.00     0.179 HD
ENDBRANCH  25  26
BRANCH  25  29
HETATM   29  N9  UNL     1      16.379  -0.136   8.107  1.00  0.00    -0.322 N 
ATOM     30  H92 UNL     1      16.582  -0.876   8.779  1.00  0.00     0.179 HD
ATOM     31  H91 UNL     1      15.694  -0.174   7.352  1.00  0.00     0.179 HD
ENDBRANCH  25  29
ENDBRANCH  22  23
ENDBRANCH  17  22
ENDBRANCH  15  17
ENDBRANCH  10  15
BRANCH  13  32
HETATM   32  N11 UNL     1      23.756  -3.458  10.510  1.00  0.00    -0.096 N 
HETATM   33  O2  UNL     1      23.095  -4.472  10.203  1.00  0.00    -0.530 OA
HETATM   34  O3  UNL     1      24.783  -3.705  11.366  1.00  0.00    -0.530 OA
ENDBRANCH  13  32
BRANCH   1  35
HETATM   35  N1  UNL     1      25.723  -2.873   8.671  1.00  0.00    -0.385 N 
ATOM     36  H12 UNL     1      25.656  -3.163   9.647  1.00  0.00     0.157 HD
ATOM     37  H11 UNL     1      26.502  -3.252   8.132  1.00  0.00     0.157 HD
ENDBRANCH   1  35
TORSDOF 9
ENDMDL
MODEL 5
REMARK VINA RESULT: -7.927197765      1.506      1.819
REMARK  9 active torsions:
REMARK  status: ('A' for Active; 'I' for Inactive)
REMARK    1  A    between atoms: N1_1  and  C1_4 
REMARK    2  A    between atoms: C4_13  and  N5_14 
REMARK    3  A    between atoms: N5_14  and  C5_16 
REMARK    4  A    between atoms: C5_16  and  N6_17 
REMARK    5  A    between atoms: C5_16  and  C6_21 
REMARK    6  A    between atoms: C6_21  and  C7_22 
REMARK       I    between atoms: C7_22  and  N7_24 
REMARK    7  A    between atoms: N7_24  and  N8_25 
REMARK    8  A    between atoms: N7_24  and  N9_28 
REMARK    9  A    between atoms: C8_33  and  N11_34 
ROOT
HETATM    1  C1  UNL     1      24.435  -2.620  10.067  1.00  0.00     0.117 A 
HETATM    2  N2  UNL     1      24.508  -3.571  11.047  1.00  0.00    -0.338 N 
ATOM      3  H2  UNL     1      25.413  -4.010  11.215  1.00  0.00     0.168 HD
HETATM    4  C2  UNL     1      23.499  -3.958  11.786  1.00  0.00     0.183 A 
HETATM    5  N3  UNL     1      22.288  -3.418  11.608  1.00  0.00    -0.337 N 
ATOM      6  H3  UNL     1      21.494  -3.716  12.173  1.00  0.00     0.168 HD
HETATM    7  C3  UNL     1      22.144  -2.465  10.657  1.00  0.00     0.140 A 
HETATM    8  N4  UNL     1      20.929  -1.992  10.435  1.00  0.00    -0.175 N 
ATOM      9  H4  UNL     1      20.168  -2.323  11.027  1.00  0.00     0.186 HD
HETATM   10  C4  UNL     1      20.634  -1.075   9.443  1.00  0.00     0.683 A 
HETATM   11  N10 UNL     1      21.680  -0.715   8.760  1.00  0.00    -0.170 N 
ATOM     12  H10 UNL     1      21.500  -0.037   8.019  1.00  0.00     0.186 HD
HETATM   13  C8  UNL     1      22.976  -1.104   8.884  1.00  0.00     0.206 A 
HETATM   14  C9  UNL     1      23.195  -2.021   9.867  1.00  0.00     0.103 A 
ENDROOT
BRANCH  10  15
HETATM   15  N5  UNL     1      19.459  -0.696   9.260  1.00  0.00    -0.196 N 
ATOM     16  H5  UNL     1      18.817  -1.451   9.506  1.00  0.00     0.180 HD
BRANCH  15  17
HETATM   17  C5  UNL     1      18.743   0.387   8.842  1.00  0.00     0.306 C 
BRANCH  17  18
HETATM   18  N6  UNL     1      18.662   1.456   9.814  1.00  0.00    -0.057 N 
ATOM     19  H63 UNL     1      19.508   1.486  10.383  1.00  0.00     0.276 HD
ATOM     20  H62 UNL     1      18.730   2.363   9.353  1.00  0.00     0.276 HD
ATOM     21  H61 UNL     1      17.833   1.419  10.408  1.00  0.00     0.276 HD
ENDBRANCH  17  18
BRANCH  17  22
HETATM   22  C6  UNL     1      17.247   0.003   8.642  1.00  0.00     0.161 C 
BRANCH  22  23
HETATM   23  C7  UNL     1      16.854   0.331   7.238  1.00  0.00     0.260 C 
HETATM   24  O1  UNL     1      16.914  -0.609   6.356  1.00  0.00    -0.270 OA
HETATM   25  N7  UNL     1      16.422   1.617   6.919  1.00  0.00    -0.174 N 
BRANCH  25  26
HETATM   26  N8  UNL     1      15.893   2.034   5.698  1.00  0.00    -0.322 N 
ATOM     27  H82 UNL     1      16.574   2.462   5.070  1.00  0.00     0.179 HD
ATOM     28  H81 UNL     1      14.921   1.955   5.400  1.00  0.00     0.179 HD
ENDBRANCH  25  26
BRANCH  25  29
HETATM   29  N9  UNL     1      16.496   2.658   7.923  1.00  0.00    -0.322 N 
ATOM     30  H92 UNL     1      17.199   2.497   8.644  1.00  0.00     0.179 HD
ATOM     31  H91 UNL     1      15.876   3.465   7.851  1.00  0.00     0.179 HD
ENDBRANCH  25  29
ENDBRANCH  22  23
ENDBRANCH  17  22
ENDBRANCH  15  17
ENDBRANCH  10  15
BRANCH  13  32
HETATM   32  N11 UNL     1      23.929  -0.495   7.985  1.00  0.00    -0.096 N 
HETATM   33  O2  UNL     1      24.599   0.479   8.389  1.00  0.00    -0.530 OA
HETATM   34  O3  UNL     1      24.195  -0.857   6.702  1.00  0.00    -0.530 OA
ENDBRANCH  13  32
BRANCH   1  35
HETATM   35  N1  UNL     1      25.345  -2.475   9.276  1.00  0.00    -0.385 N 
ATOM     36  H12 UNL     1      26.290  -2.249   9.586  1.00  0.00     0.157 HD
ATOM     37  H11 UNL     1      25.157  -2.390   8.277  1.00  0.00     0.157 HD
ENDBRANCH   1  35
TORSDOF 9
ENDMDL
