MODEL 1
REMARK VINA RESULT: -6.040444725      0.000      0.000
REMARK  3 active torsions:
REMARK  status: ('A' for Active; 'I' for Inactive)
REMARK    1  A    between atoms: C2_3  and  C4_11 
REMARK    2  A    between atoms: N2_4  and  N3_6 
REMARK    3  A    between atoms: N3_6  and  C3_8 
ROOT
HETATM    1  N1  UNL     1      -6.377  52.630  14.834  1.00  0.00    -0.190 NA
HETATM    2  C1  UNL     1      -5.678  53.218  14.099  1.00  0.00     0.122 C 
HETATM    3  C2  UNL     1      -4.812  53.922  13.197  1.00  0.00     0.162 C 
HETATM    4  N2  UNL     1      -5.111  55.111  12.832  1.00  0.00    -0.286 N 
ATOM      5  H2  UNL     1      -4.479  55.591  12.191  1.00  0.00     0.188 HD
ENDROOT
BRANCH   3   6
HETATM    6  C4  UNL     1      -3.596  53.313  12.685  1.00  0.00     0.113 A 
HETATM    7  C5  UNL     1      -3.176  52.025  12.925  1.00  0.00     0.042 A 
HETATM    8  C6  UNL     1      -1.974  51.828  12.263  1.00  0.00     0.027 A 
HETATM    9  C7  UNL     1      -1.720  53.041  11.639  1.00  0.00     0.142 A 
HETATM   10  O1  UNL     1      -2.687  53.885  11.906  1.00  0.00    -0.320 OA
ENDBRANCH   3   6
BRANCH   4  11
HETATM   11  N3  UNL     1      -6.249  55.786  13.260  1.00  0.00    -0.278 N 
ATOM     12  H3  UNL     1      -6.166  56.475  14.007  1.00  0.00     0.189 HD
BRANCH  11  13
HETATM   13  C3  UNL     1      -7.522  55.541  12.688  1.00  0.00     0.199 C 
HETATM   14  N4  UNL     1      -8.648  55.414  13.562  1.00  0.00    -0.068 NA
HETATM   15  S1  UNL     1      -7.745  55.403  11.095  1.00  0.00    -0.043 SA
ENDBRANCH  11  13
ENDBRANCH   4  11
TORSDOF 3
ENDMDL
MODEL 2
REMARK VINA RESULT: -5.933541177      1.534      1.694
REMARK  3 active torsions:
REMARK  status: ('A' for Active; 'I' for Inactive)
REMARK    1  A    between atoms: C2_3  and  C4_11 
REMARK    2  A    between atoms: N2_4  and  N3_6 
REMARK    3  A    between atoms: N3_6  and  C3_8 
ROOT
HETATM    1  N1  UNL     1      -6.456  55.677  14.908  1.00  0.00    -0.190 NA
HETATM    2  C1  UNL     1      -6.100  55.221  13.887  1.00  0.00     0.122 C 
HETATM    3  C2  UNL     1      -5.654  54.652  12.648  1.00  0.00     0.162 C 
HETATM    4  N2  UNL     1      -6.239  54.973  11.557  1.00  0.00    -0.286 N 
ATOM      5  H2  UNL     1      -5.903  54.556  10.689  1.00  0.00     0.188 HD
ENDROOT
BRANCH   3   6
HETATM    6  C4  UNL     1      -4.545  53.714  12.603  1.00  0.00     0.113 A 
HETATM    7  C5  UNL     1      -4.544  52.440  13.123  1.00  0.00     0.042 A 
HETATM    8  C6  UNL     1      -3.304  51.870  12.877  1.00  0.00     0.027 A 
HETATM    9  C7  UNL     1      -2.597  52.856  12.203  1.00  0.00     0.142 A 
HETATM   10  O1  UNL     1      -3.352  53.919  12.060  1.00  0.00    -0.320 OA
ENDBRANCH   3   6
BRANCH   4  11
HETATM   11  N3  UNL     1      -7.309  55.860  11.488  1.00  0.00    -0.278 N 
ATOM     12  H3  UNL     1      -7.124  56.848  11.317  1.00  0.00     0.189 HD
BRANCH  11  13
HETATM   13  C3  UNL     1      -8.648  55.427  11.650  1.00  0.00     0.199 C 
HETATM   14  N4  UNL     1      -9.457  56.072  12.639  1.00  0.00    -0.068 NA
HETATM   15  S1  UNL     1      -9.290  54.241  10.762  1.00  0.00    -0.043 SA
ENDBRANCH  11  13
ENDBRANCH   4  11
TORSDOF 3
ENDMDL
MODEL 3
REMARK VINA RESULT: -5.920339952      1.944      2.216
REMARK  3 active torsions:
REMARK  status: ('A' for Active; 'I' for Inactive)
REMARK    1  A    between atoms: C2_3  and  C4_11 
REMARK    2  A    between atoms: N2_4  and  N3_6 
REMARK    3  A    between atoms: N3_6  and  C3_8 
ROOT
HETATM    1  N1  UNL     1      -6.520  55.589  14.736  1.00  0.00    -0.190 NA
HETATM    2  C1  UNL     1      -6.029  55.104  13.788  1.00  0.00     0.122 C 
HETATM    3  C2  UNL     1      -5.416  54.501  12.639  1.00  0.00     0.162 C 
HETATM    4  N2  UNL     1      -5.988  54.589  11.498  1.00  0.00    -0.286 N 
ATOM      5  H2  UNL     1      -5.532  54.154  10.697  1.00  0.00     0.188 HD
ENDROOT
BRANCH   3   6
HETATM    6  C4  UNL     1      -4.153  53.790  12.741  1.00  0.00     0.113 A 
HETATM    7  C5  UNL     1      -3.996  52.423  12.762  1.00  0.00     0.042 A 
HETATM    8  C6  UNL     1      -2.642  52.142  12.869  1.00  0.00     0.027 A 
HETATM    9  C7  UNL     1      -2.032  53.388  12.911  1.00  0.00     0.142 A 
HETATM   10  O1  UNL     1      -2.943  54.328  12.833  1.00  0.00    -0.320 OA
ENDBRANCH   3   6
BRANCH   4  11
HETATM   11  N3  UNL     1      -7.196  55.245  11.290  1.00  0.00    -0.278 N 
ATOM     12  H3  UNL     1      -7.788  55.461  12.092  1.00  0.00     0.189 HD
BRANCH  11  13
HETATM   13  C3  UNL     1      -7.628  55.622   9.994  1.00  0.00     0.199 C 
HETATM   14  N4  UNL     1      -6.754  55.376   8.888  1.00  0.00    -0.068 NA
HETATM   15  S1  UNL     1      -9.062  56.313   9.724  1.00  0.00    -0.043 SA
ENDBRANCH  11  13
ENDBRANCH   4  11
TORSDOF 3
ENDMDL
MODEL 4
REMARK VINA RESULT: -5.889711675      2.181      2.475
REMARK  3 active torsions:
REMARK  status: ('A' for Active; 'I' for Inactive)
REMARK    1  A    between atoms: C2_3  and  C4_11 
REMARK    2  A    between atoms: N2_4  and  N3_6 
REMARK    3  A    between atoms: N3_6  and  C3_8 
ROOT
HETATM    1  N1  UNL     1      -6.442  55.648  14.847  1.00  0.00    -0.190 NA
HETATM    2  C1  UNL     1      -6.412  55.136  13.791  1.00  0.00     0.122 C 
HETATM    3  C2  UNL     1      -6.369  54.493  12.509  1.00  0.00     0.162 C 
HETATM    4  N2  UNL     1      -6.888  55.072  11.494  1.00  0.00    -0.286 N 
ATOM      5  H2  UNL     1      -6.844  54.596  10.594  1.00  0.00     0.188 HD
ENDROOT
BRANCH   3   6
HETATM    6  C4  UNL     1      -5.744  53.193  12.336  1.00  0.00     0.113 A 
HETATM    7  C5  UNL     1      -6.144  52.019  12.932  1.00  0.00     0.042 A 
HETATM    8  C6  UNL     1      -5.295  51.007  12.514  1.00  0.00     0.027 A 
HETATM    9  C7  UNL     1      -4.398  51.636  11.662  1.00  0.00     0.142 A 
HETATM   10  O1  UNL     1      -4.689  52.912  11.581  1.00  0.00    -0.320 OA
ENDBRANCH   3   6
BRANCH   4  11
HETATM   11  N3  UNL     1      -7.510  56.315  11.550  1.00  0.00    -0.278 N 
ATOM     12  H3  UNL     1      -6.939  57.150  11.676  1.00  0.00     0.189 HD
BRANCH  11  13
HETATM   13  C3  UNL     1      -8.916  56.452  11.437  1.00  0.00     0.199 C 
HETATM   14  N4  UNL     1      -9.706  56.370  12.627  1.00  0.00    -0.068 NA
HETATM   15  S1  UNL     1      -9.652  56.698  10.021  1.00  0.00    -0.043 SA
ENDBRANCH  11  13
ENDBRANCH   4  11
TORSDOF 3
ENDMDL
MODEL 5
REMARK VINA RESULT: -5.841271327      3.127      5.625
REMARK  3 active torsions:
REMARK  status: ('A' for Active; 'I' for Inactive)
REMARK    1  A    between atoms: C2_3  and  C4_11 
REMARK    2  A    between atoms: N2_4  and  N3_6 
REMARK    3  A    between atoms: N3_6  and  C3_8 
ROOT
HETATM    1  N1  UNL     1      -6.391  55.541  14.959  1.00  0.00    -0.190 NA
HETATM    2  C1  UNL     1      -6.653  55.466  13.818  1.00  0.00     0.122 C 
HETATM    3  C2  UNL     1      -6.989  55.387  12.425  1.00  0.00     0.162 C 
HETATM    4  N2  UNL     1      -6.181  54.823  11.611  1.00  0.00    -0.286 N 
ATOM      5  H2  UNL     1      -6.442  54.778  10.626  1.00  0.00     0.188 HD
ENDROOT
BRANCH   3   6
HETATM    6  C4  UNL     1      -8.235  55.934  11.915  1.00  0.00     0.113 A 
HETATM    7  C5  UNL     1      -8.509  56.227  10.599  1.00  0.00     0.042 A 
HETATM    8  C6  UNL     1      -9.799  56.729  10.525  1.00  0.00     0.027 A 
HETATM    9  C7  UNL     1     -10.253  56.716  11.836  1.00  0.00     0.142 A 
HETATM   10  O1  UNL     1      -9.315  56.245  12.622  1.00  0.00    -0.320 OA
ENDBRANCH   3   6
BRANCH   4  11
HETATM   11  N3  UNL     1      -4.964  54.268  11.993  1.00  0.00    -0.278 N 
ATOM     12  H3  UNL     1      -4.196  54.887  12.251  1.00  0.00     0.189 HD
BRANCH  11  13
HETATM   13  C3  UNL     1      -4.763  52.866  12.034  1.00  0.00     0.199 C 
HETATM   14  N4  UNL     1      -4.384  52.197  10.827  1.00  0.00    -0.068 NA
HETATM   15  S1  UNL     1      -4.942  52.003  13.387  1.00  0.00    -0.043 SA
ENDBRANCH  11  13
ENDBRANCH   4  11
TORSDOF 3
ENDMDL
