MODEL 1
REMARK VINA RESULT: -6.220597318      0.000      0.000
REMARK  4 active torsions:
REMARK  status: ('A' for Active; 'I' for Inactive)
REMARK    1  A    between atoms: C2_2  and  C3_3 
REMARK    2  A    between atoms: C2_2  and  C4_10 
REMARK    3  A    between atoms: C3_3  and  O1_4 
REMARK    4  A    between atoms: N1_6  and  O2_8 
ROOT
HETATM    1  C1  UNL     1      -5.317  52.383  11.287  1.00  0.00     0.025 C 
HETATM    2  C2  UNL     1      -5.672  53.236  12.235  1.00  0.00     0.008 C 
ENDROOT
BRANCH   2   3
HETATM    3  C3  UNL     1      -4.626  53.742  13.098  1.00  0.00     0.167 C 
HETATM    4  N1  UNL     1      -4.505  53.719  14.341  1.00  0.00    -0.247 N 
ATOM      5  H1  UNL     1      -3.638  54.166  14.641  1.00  0.00     0.196 HD
BRANCH   3   6
HETATM    6  O1  UNL     1      -3.537  54.378  12.450  1.00  0.00    -0.344 OA
ATOM      7  H1  UNL     1      -2.729  53.880  12.405  1.00  0.00     0.219 HD
ENDBRANCH   3   6
BRANCH   4   8
HETATM    8  O2  UNL     1      -5.200  53.271  15.371  1.00  0.00    -0.288 OA
ATOM      9  H2  UNL     1      -5.335  52.438  15.807  1.00  0.00     0.244 HD
ENDBRANCH   4   8
ENDBRANCH   2   3
BRANCH   2  10
HETATM   10  C4  UNL     1      -7.094  53.628  12.349  1.00  0.00     0.197 C 
HETATM   11  C5  UNL     1      -7.999  52.772  13.160  1.00  0.00     0.217 C 
HETATM   12  O3  UNL     1      -8.791  53.924  13.388  1.00  0.00    -0.273 OA
HETATM   13  S1  UNL     1      -7.563  55.081  13.136  1.00  0.00     0.276 S 
HETATM   14  O4  UNL     1      -7.021  55.485  14.434  1.00  0.00    -0.198 OA
HETATM   15  O5  UNL     1      -8.080  56.195  12.260  1.00  0.00    -0.198 OA
ENDBRANCH   2  10
TORSDOF 4
ENDMDL
MODEL 2
REMARK VINA RESULT: -6.033381829      1.625      1.705
REMARK  4 active torsions:
REMARK  status: ('A' for Active; 'I' for Inactive)
REMARK    1  A    between atoms: C2_2  and  C3_3 
REMARK    2  A    between atoms: C2_2  and  C4_10 
REMARK    3  A    between atoms: C3_3  and  O1_4 
REMARK    4  A    between atoms: N1_6  and  O2_8 
ROOT
HETATM    1  C1  UNL     1      -5.582  52.538  13.601  1.00  0.00     0.025 C 
HETATM    2  C2  UNL     1      -6.092  53.676  13.158  1.00  0.00     0.008 C 
ENDROOT
BRANCH   2   3
HETATM    3  C3  UNL     1      -5.391  54.895  13.501  1.00  0.00     0.167 C 
HETATM    4  N1  UNL     1      -5.647  55.782  14.343  1.00  0.00    -0.247 N 
ATOM      5  H1  UNL     1      -4.943  56.520  14.336  1.00  0.00     0.196 HD
BRANCH   3   6
HETATM    6  O1  UNL     1      -4.203  55.157  12.770  1.00  0.00    -0.344 OA
ATOM      7  H1  UNL     1      -4.126  56.026  12.396  1.00  0.00     0.219 HD
ENDBRANCH   3   6
BRANCH   4   8
HETATM    8  O2  UNL     1      -6.586  56.016  15.241  1.00  0.00    -0.288 OA
ATOM      9  H2  UNL     1      -6.636  56.395  16.111  1.00  0.00     0.244 HD
ENDBRANCH   4   8
ENDBRANCH   2   3
BRANCH   2  10
HETATM   10  C4  UNL     1      -7.325  53.639  12.341  1.00  0.00     0.197 C 
HETATM   11  C5  UNL     1      -8.348  52.608  12.655  1.00  0.00     0.217 C 
HETATM   12  O3  UNL     1      -9.317  53.487  12.114  1.00  0.00    -0.273 OA
HETATM   13  S1  UNL     1      -8.451  54.936  12.355  1.00  0.00     0.276 S 
HETATM   14  O4  UNL     1      -8.914  55.564  13.593  1.00  0.00    -0.198 OA
HETATM   15  O5  UNL     1      -8.523  55.789  11.114  1.00  0.00    -0.198 OA
ENDBRANCH   2  10
TORSDOF 4
ENDMDL
MODEL 3
REMARK VINA RESULT: -6.001041482      1.694      2.029
REMARK  4 active torsions:
REMARK  status: ('A' for Active; 'I' for Inactive)
REMARK    1  A    between atoms: C2_2  and  C3_3 
REMARK    2  A    between atoms: C2_2  and  C4_10 
REMARK    3  A    between atoms: C3_3  and  O1_4 
REMARK    4  A    between atoms: N1_6  and  O2_8 
ROOT
HETATM    1  C1  UNL     1      -4.911  53.574  12.434  1.00  0.00     0.025 C 
HETATM    2  C2  UNL     1      -6.069  53.855  13.010  1.00  0.00     0.008 C 
ENDROOT
BRANCH   2   3
HETATM    3  C3  UNL     1      -6.083  53.967  14.453  1.00  0.00     0.167 C 
HETATM    4  N1  UNL     1      -6.112  54.968  15.199  1.00  0.00    -0.247 N 
ATOM      5  H1  UNL     1      -6.115  54.701  16.184  1.00  0.00     0.196 HD
BRANCH   3   6
HETATM    6  O1  UNL     1      -6.060  52.744  15.172  1.00  0.00    -0.344 OA
ATOM      7  H1  UNL     1      -6.291  51.966  14.680  1.00  0.00     0.219 HD
ENDBRANCH   3   6
BRANCH   4   8
HETATM    8  O2  UNL     1      -6.140  56.280  15.053  1.00  0.00    -0.288 OA
ATOM      9  H2  UNL     1      -6.594  56.908  14.502  1.00  0.00     0.244 HD
ENDBRANCH   4   8
ENDBRANCH   2   3
BRANCH   2  10
HETATM   10  C4  UNL     1      -7.263  54.049  12.159  1.00  0.00     0.197 C 
HETATM   11  C5  UNL     1      -8.319  53.003  12.176  1.00  0.00     0.217 C 
HETATM   12  O3  UNL     1      -9.246  54.013  11.822  1.00  0.00    -0.273 OA
HETATM   13  S1  UNL     1      -8.364  55.337  12.437  1.00  0.00     0.276 S 
HETATM   14  O4  UNL     1      -8.872  55.666  13.770  1.00  0.00    -0.198 OA
HETATM   15  O5  UNL     1      -8.364  56.463  11.434  1.00  0.00    -0.198 OA
ENDBRANCH   2  10
TORSDOF 4
ENDMDL
MODEL 4
REMARK VINA RESULT: -5.953063717      2.853      4.760
REMARK  4 active torsions:
REMARK  status: ('A' for Active; 'I' for Inactive)
REMARK    1  A    between atoms: C2_2  and  C3_3 
REMARK    2  A    between atoms: C2_2  and  C4_10 
REMARK    3  A    between atoms: C3_3  and  O1_4 
REMARK    4  A    between atoms: N1_6  and  O2_8 
ROOT
HETATM    1  C1  UNL     1      -5.739  51.441  12.611  1.00  0.00     0.025 C 
HETATM    2  C2  UNL     1      -4.779  52.075  13.265  1.00  0.00     0.008 C 
ENDROOT
BRANCH   2   3
HETATM    3  C3  UNL     1      -5.170  53.191  14.101  1.00  0.00     0.167 C 
HETATM    4  N1  UNL     1      -4.962  54.417  13.984  1.00  0.00    -0.247 N 
ATOM      5  H1  UNL     1      -5.379  54.942  14.753  1.00  0.00     0.196 HD
BRANCH   3   6
HETATM    6  O1  UNL     1      -5.921  52.867  15.260  1.00  0.00    -0.344 OA
ATOM      7  H1  UNL     1      -6.806  53.211  15.294  1.00  0.00     0.219 HD
ENDBRANCH   3   6
BRANCH   4   8
HETATM    8  O2  UNL     1      -4.346  55.214  13.130  1.00  0.00    -0.288 OA
ATOM      9  H2  UNL     1      -4.440  55.458  12.217  1.00  0.00     0.244 HD
ENDBRANCH   4   8
ENDBRANCH   2   3
BRANCH   2  10
HETATM   10  C4  UNL     1      -3.383  51.609  13.117  1.00  0.00     0.197 C 
HETATM   11  C5  UNL     1      -3.076  50.635  12.036  1.00  0.00     0.217 C 
HETATM   12  O3  UNL     1      -1.756  51.149  12.028  1.00  0.00    -0.273 OA
HETATM   13  S1  UNL     1      -2.119  52.685  12.674  1.00  0.00     0.276 S 
HETATM   14  O4  UNL     1      -2.249  53.642  11.575  1.00  0.00    -0.198 OA
HETATM   15  O5  UNL     1      -1.119  53.039  13.746  1.00  0.00    -0.198 OA
ENDBRANCH   2  10
TORSDOF 4
ENDMDL
MODEL 5
REMARK VINA RESULT: -5.896158454      1.944      2.506
REMARK  4 active torsions:
REMARK  status: ('A' for Active; 'I' for Inactive)
REMARK    1  A    between atoms: C2_2  and  C3_3 
REMARK    2  A    between atoms: C2_2  and  C4_10 
REMARK    3  A    between atoms: C3_3  and  O1_4 
REMARK    4  A    between atoms: N1_6  and  O2_8 
ROOT
HETATM    1  C1  UNL     1      -6.362  52.917  13.929  1.00  0.00     0.025 C 
HETATM    2  C2  UNL     1      -6.709  54.102  13.455  1.00  0.00     0.008 C 
ENDROOT
BRANCH   2   3
HETATM    3  C3  UNL     1      -6.162  55.268  14.115  1.00  0.00     0.167 C 
HETATM    4  N1  UNL     1      -5.085  55.878  13.946  1.00  0.00    -0.247 N 
ATOM      5  H1  UNL     1      -5.000  56.671  14.581  1.00  0.00     0.196 HD
BRANCH   3   6
HETATM    6  O1  UNL     1      -6.964  55.840  15.136  1.00  0.00    -0.344 OA
ATOM      7  H1  UNL     1      -7.570  56.517  14.860  1.00  0.00     0.219 HD
ENDBRANCH   3   6
BRANCH   4   8
HETATM    8  O2  UNL     1      -4.027  55.768  13.163  1.00  0.00    -0.288 OA
ATOM      9  H2  UNL     1      -3.326  56.334  12.860  1.00  0.00     0.244 HD
ENDBRANCH   4   8
ENDBRANCH   2   3
BRANCH   2  10
HETATM   10  C4  UNL     1      -7.615  54.168  12.287  1.00  0.00     0.197 C 
HETATM   11  C5  UNL     1      -8.716  53.174  12.191  1.00  0.00     0.217 C 
HETATM   12  O3  UNL     1      -9.433  54.127  11.428  1.00  0.00    -0.273 OA
HETATM   13  S1  UNL     1      -8.647  55.517  12.026  1.00  0.00     0.276 S 
HETATM   14  O4  UNL     1      -9.463  56.101  13.090  1.00  0.00    -0.198 OA
HETATM   15  O5  UNL     1      -8.291  56.436  10.885  1.00  0.00    -0.198 OA
ENDBRANCH   2  10
TORSDOF 4
ENDMDL
