MODEL 1
REMARK VINA RESULT: -7.254179774      0.000      0.000
REMARK  5 active torsions:
REMARK  status: ('A' for Active; 'I' for Inactive)
REMARK    1  A    between atoms: C2_2  and  C3_4 
REMARK    2  A    between atoms: C6_8  and  C7_9 
REMARK    3  A    between atoms: C7_9  and  O4_11 
REMARK    4  A    between atoms: O4_11  and  C8_12 
REMARK    5  A    between atoms: C12_16  and  O5_17 
ROOT
HETATM    1  C7  UNL     1      -3.648  53.594  13.064  1.00  0.00     0.266 C 
HETATM    2  O3  UNL     1      -3.289  54.730  12.697  1.00  0.00    -0.265 OA
ENDROOT
BRANCH   1   3
HETATM    3  C6  UNL     1      -3.209  52.406  12.315  1.00  0.00     0.122 C 
HETATM    4  C3  UNL     1      -1.702  52.297  12.302  1.00  0.00     0.094 C 
HETATM    5  C4  UNL     1      -1.433  50.870  12.633  1.00  0.00     0.180 C 
HETATM    6  O2  UNL     1      -2.619  50.209  12.789  1.00  0.00    -0.389 OA
HETATM    7  C5  UNL     1      -3.630  51.115  12.974  1.00  0.00     0.183 C 
BRANCH   4   8
HETATM    8  C2  UNL     1      -1.202  52.717  10.976  1.00  0.00     0.130 C 
HETATM    9  C1  UNL     1      -1.782  52.089   9.769  1.00  0.00     0.091 C 
HETATM   10  O1  UNL     1      -0.324  53.571  10.849  1.00  0.00    -0.298 OA
ENDBRANCH   4   8
ENDBRANCH   1   3
BRANCH   1  11
HETATM   11  O4  UNL     1      -4.464  53.531  14.193  1.00  0.00    -0.313 OA
BRANCH  11  12
HETATM   12  C8  UNL     1      -5.820  53.923  14.154  1.00  0.00     0.160 C 
HETATM   13  C9  UNL     1      -6.479  53.203  12.969  1.00  0.00     0.035 C 
HETATM   14  C10 UNL     1      -7.783  54.003  12.884  1.00  0.00     0.005 C 
HETATM   15  C11 UNL     1      -7.233  55.416  12.875  1.00  0.00     0.034 C 
HETATM   16  C12 UNL     1      -6.024  55.358  13.811  1.00  0.00     0.147 C 
BRANCH  16  17
HETATM   17  O5  UNL     1      -6.388  56.073  14.953  1.00  0.00    -0.393 OA
ATOM     18  H5  UNL     1      -6.766  56.908  14.705  1.00  0.00     0.210 HD
ENDBRANCH  16  17
ENDBRANCH  11  12
ENDBRANCH   1  11
TORSDOF 5
ENDMDL
MODEL 2
REMARK VINA RESULT: -7.177533907      1.625      2.317
REMARK  5 active torsions:
REMARK  status: ('A' for Active; 'I' for Inactive)
REMARK    1  A    between atoms: C2_2  and  C3_4 
REMARK    2  A    between atoms: C6_8  and  C7_9 
REMARK    3  A    between atoms: C7_9  and  O4_11 
REMARK    4  A    between atoms: O4_11  and  C8_12 
REMARK    5  A    between atoms: C12_16  and  O5_17 
ROOT
HETATM    1  C7  UNL     1      -1.838  53.093  12.101  1.00  0.00     0.266 C 
HETATM    2  O3  UNL     1      -1.046  53.207  13.057  1.00  0.00    -0.265 OA
ENDROOT
BRANCH   1   3
HETATM    3  C6  UNL     1      -1.576  52.104  11.044  1.00  0.00     0.122 C 
HETATM    4  C3  UNL     1      -0.232  52.344  10.394  1.00  0.00     0.094 C 
HETATM    5  C4  UNL     1       0.393  50.994  10.332  1.00  0.00     0.180 C 
HETATM    6  O2  UNL     1      -0.473  50.068  10.843  1.00  0.00    -0.389 OA
HETATM    7  C5  UNL     1      -1.439  50.700  11.582  1.00  0.00     0.183 C 
BRANCH   4   8
HETATM    8  C2  UNL     1      -0.443  52.977   9.076  1.00  0.00     0.130 C 
HETATM    9  C1  UNL     1      -1.426  52.372   8.148  1.00  0.00     0.091 C 
HETATM   10  O1  UNL     1       0.169  53.987   8.729  1.00  0.00    -0.298 OA
ENDBRANCH   4   8
ENDBRANCH   1   3
BRANCH   1  11
HETATM   11  O4  UNL     1      -2.948  53.936  12.105  1.00  0.00    -0.313 OA
BRANCH  11  12
HETATM   12  C8  UNL     1      -3.852  53.971  13.189  1.00  0.00     0.160 C 
HETATM   13  C9  UNL     1      -4.448  52.565  13.345  1.00  0.00     0.035 C 
HETATM   14  C10 UNL     1      -5.612  52.889  14.287  1.00  0.00     0.005 C 
HETATM   15  C11 UNL     1      -6.246  54.048  13.545  1.00  0.00     0.034 C 
HETATM   16  C12 UNL     1      -5.060  54.805  12.942  1.00  0.00     0.147 C 
BRANCH  16  17
HETATM   17  O5  UNL     1      -4.967  56.002  13.653  1.00  0.00    -0.393 OA
ATOM     18  H5  UNL     1      -4.639  55.833  14.529  1.00  0.00     0.210 HD
ENDBRANCH  16  17
ENDBRANCH  11  12
ENDBRANCH   1  11
TORSDOF 5
ENDMDL
MODEL 3
REMARK VINA RESULT: -7.120747247      1.557      2.904
REMARK  5 active torsions:
REMARK  status: ('A' for Active; 'I' for Inactive)
REMARK    1  A    between atoms: C2_2  and  C3_4 
REMARK    2  A    between atoms: C6_8  and  C7_9 
REMARK    3  A    between atoms: C7_9  and  O4_11 
REMARK    4  A    between atoms: O4_11  and  C8_12 
REMARK    5  A    between atoms: C12_16  and  O5_17 
ROOT
HETATM    1  C7  UNL     1      -1.770  53.287  12.377  1.00  0.00     0.266 C 
HETATM    2  O3  UNL     1      -1.177  53.355  13.471  1.00  0.00    -0.265 OA
ENDROOT
BRANCH   1   3
HETATM    3  C6  UNL     1      -1.230  52.443  11.300  1.00  0.00     0.122 C 
HETATM    4  C3  UNL     1      -2.324  51.638  10.637  1.00  0.00     0.094 C 
HETATM    5  C4  UNL     1      -2.073  51.806   9.179  1.00  0.00     0.180 C 
HETATM    6  O2  UNL     1      -0.959  52.578   8.996  1.00  0.00    -0.389 OA
HETATM    7  C5  UNL     1      -0.670  53.250  10.154  1.00  0.00     0.183 C 
BRANCH   4   8
HETATM    8  C2  UNL     1      -2.245  50.241  11.110  1.00  0.00     0.130 C 
HETATM    9  C1  UNL     1      -3.479  49.588  11.601  1.00  0.00     0.091 C 
HETATM   10  O1  UNL     1      -1.190  49.607  11.106  1.00  0.00    -0.298 OA
ENDBRANCH   4   8
ENDBRANCH   1   3
BRANCH   1  11
HETATM   11  O4  UNL     1      -2.938  54.038  12.251  1.00  0.00    -0.313 OA
BRANCH  11  12
HETATM   12  C8  UNL     1      -3.912  54.075  13.272  1.00  0.00     0.160 C 
HETATM   13  C9  UNL     1      -4.512  52.668  13.395  1.00  0.00     0.035 C 
HETATM   14  C10 UNL     1      -5.738  52.992  14.255  1.00  0.00     0.005 C 
HETATM   15  C11 UNL     1      -6.325  54.145  13.466  1.00  0.00     0.034 C 
HETATM   16  C12 UNL     1      -5.105  54.903  12.939  1.00  0.00     0.147 C 
BRANCH  16  17
HETATM   17  O5  UNL     1      -5.063  56.104  13.648  1.00  0.00    -0.393 OA
ATOM     18  H5  UNL     1      -5.455  55.987  14.506  1.00  0.00     0.210 HD
ENDBRANCH  16  17
ENDBRANCH  11  12
ENDBRANCH   1  11
TORSDOF 5
ENDMDL
MODEL 4
REMARK VINA RESULT: -7.052624187      0.970      2.374
REMARK  5 active torsions:
REMARK  status: ('A' for Active; 'I' for Inactive)
REMARK    1  A    between atoms: C2_2  and  C3_4 
REMARK    2  A    between atoms: C6_8  and  C7_9 
REMARK    3  A    between atoms: C7_9  and  O4_11 
REMARK    4  A    between atoms: O4_11  and  C8_12 
REMARK    5  A    between atoms: C12_16  and  O5_17 
ROOT
HETATM    1  C7  UNL     1      -3.432  53.619  13.043  1.00  0.00     0.266 C 
HETATM    2  O3  UNL     1      -3.485  54.762  12.548  1.00  0.00    -0.265 OA
ENDROOT
BRANCH   1   3
HETATM    3  C6  UNL     1      -2.548  52.603  12.451  1.00  0.00     0.122 C 
HETATM    4  C3  UNL     1      -3.268  51.808  11.386  1.00  0.00     0.094 C 
HETATM    5  C4  UNL     1      -2.310  51.765  10.247  1.00  0.00     0.180 C 
HETATM    6  O2  UNL     1      -1.160  52.417  10.596  1.00  0.00    -0.389 OA
HETATM    7  C5  UNL     1      -1.394  53.208  11.689  1.00  0.00     0.183 C 
BRANCH   4   8
HETATM    8  C2  UNL     1      -3.620  50.481  11.934  1.00  0.00     0.130 C 
HETATM    9  C1  UNL     1      -2.716  49.863  12.929  1.00  0.00     0.091 C 
HETATM   10  O1  UNL     1      -4.638  49.881  11.591  1.00  0.00    -0.298 OA
ENDBRANCH   4   8
ENDBRANCH   1   3
BRANCH   1  11
HETATM   11  O4  UNL     1      -4.238  53.381  14.155  1.00  0.00    -0.313 OA
BRANCH  11  12
HETATM   12  C8  UNL     1      -5.623  53.652  14.142  1.00  0.00     0.160 C 
HETATM   13  C9  UNL     1      -6.255  52.798  13.034  1.00  0.00     0.035 C 
HETATM   14  C10 UNL     1      -7.626  53.476  12.946  1.00  0.00     0.005 C 
HETATM   15  C11 UNL     1      -7.203  54.926  12.821  1.00  0.00     0.034 C 
HETATM   16  C12 UNL     1      -5.964  55.037  13.712  1.00  0.00     0.147 C 
BRANCH  16  17
HETATM   17  O5  UNL     1      -6.351  55.797  14.815  1.00  0.00    -0.393 OA
ATOM     18  H5  UNL     1      -6.068  56.697  14.705  1.00  0.00     0.210 HD
ENDBRANCH  16  17
ENDBRANCH  11  12
ENDBRANCH   1  11
TORSDOF 5
ENDMDL
MODEL 5
REMARK VINA RESULT: -6.863108247      1.674      2.999
REMARK  5 active torsions:
REMARK  status: ('A' for Active; 'I' for Inactive)
REMARK    1  A    between atoms: C2_2  and  C3_4 
REMARK    2  A    between atoms: C6_8  and  C7_9 
REMARK    3  A    between atoms: C7_9  and  O4_11 
REMARK    4  A    between atoms: O4_11  and  C8_12 
REMARK    5  A    between atoms: C12_16  and  O5_17 
ROOT
HETATM    1  C7  UNL     1      -1.846  53.143  12.375  1.00  0.00     0.266 C 
HETATM    2  O3  UNL     1      -1.317  53.452  13.461  1.00  0.00    -0.265 OA
ENDROOT
BRANCH   1   3
HETATM    3  C6  UNL     1      -1.075  52.398  11.369  1.00  0.00     0.122 C 
HETATM    4  C3  UNL     1      -1.938  51.372  10.670  1.00  0.00     0.094 C 
HETATM    5  C4  UNL     1      -1.624  51.550   9.225  1.00  0.00     0.180 C 
HETATM    6  O2  UNL     1      -0.677  52.525   9.082  1.00  0.00    -0.389 OA
HETATM    7  C5  UNL     1      -0.609  53.271  10.229  1.00  0.00     0.183 C 
BRANCH   4   8
HETATM    8  C2  UNL     1      -1.615  50.032  11.202  1.00  0.00     0.130 C 
HETATM    9  C1  UNL     1      -2.518  49.433  12.210  1.00  0.00     0.091 C 
HETATM   10  O1  UNL     1      -0.624  49.402  10.831  1.00  0.00    -0.298 OA
ENDBRANCH   4   8
ENDBRANCH   1   3
BRANCH   1  11
HETATM   11  O4  UNL     1      -3.171  53.538  12.190  1.00  0.00    -0.313 OA
BRANCH  11  12
HETATM   12  C8  UNL     1      -4.244  52.852  12.799  1.00  0.00     0.160 C 
HETATM   13  C9  UNL     1      -5.234  52.462  11.693  1.00  0.00     0.035 C 
HETATM   14  C10 UNL     1      -6.436  52.072  12.560  1.00  0.00     0.005 C 
HETATM   15  C11 UNL     1      -6.533  53.293  13.452  1.00  0.00     0.034 C 
HETATM   16  C12 UNL     1      -5.078  53.705  13.690  1.00  0.00     0.147 C 
BRANCH  16  17
HETATM   17  O5  UNL     1      -4.808  53.405  15.026  1.00  0.00    -0.393 OA
ATOM     18  H5  UNL     1      -4.240  54.069  15.398  1.00  0.00     0.210 HD
ENDBRANCH  16  17
ENDBRANCH  11  12
ENDBRANCH   1  11
TORSDOF 5
ENDMDL
