MODEL 1
REMARK VINA RESULT: -7.134833733      0.000      0.000
REMARK  5 active torsions:
REMARK  status: ('A' for Active; 'I' for Inactive)
REMARK    1  A    between atoms: C2_2  and  N1_4 
REMARK       I    between atoms: N1_4  and  C4_6 
REMARK    2  A    between atoms: C4_6  and  O2_8 
REMARK    3  A    between atoms: O2_8  and  C5_9 
REMARK    4  A    between atoms: C5_9  and  C6_11 
REMARK    5  A    between atoms: C6_11  and  C7_12 
ROOT
HETATM    1  C6  UNL     1      -1.496  52.745  11.337  1.00  0.00     0.136 C 
ENDROOT
BRANCH   1   2
HETATM    2  C5  UNL     1      -1.832  53.379  12.634  1.00  0.00     0.268 C 
HETATM    3  O3  UNL     1      -1.084  53.300  13.643  1.00  0.00    -0.265 OA
BRANCH   2   4
HETATM    4  O2  UNL     1      -3.010  54.109  12.815  1.00  0.00    -0.227 OA
BRANCH   4   5
HETATM    5  C4  UNL     1      -4.229  53.527  13.130  1.00  0.00     0.368 C 
HETATM    6  N1  UNL     1      -5.180  53.129  12.161  1.00  0.00    -0.333 N 
ATOM      7  H1  UNL     1      -4.991  53.263  11.168  1.00  0.00     0.165 HD
HETATM    8  O1  UNL     1      -4.445  53.367  14.381  1.00  0.00    -0.238 OA
BRANCH   6   9
HETATM    9  C2  UNL     1      -6.418  52.533  12.593  1.00  0.00     0.078 C 
HETATM   10  C1  UNL     1      -6.788  51.312  11.756  1.00  0.00     0.032 C 
HETATM   11  C3  UNL     1      -7.565  53.525  12.571  1.00  0.00     0.032 C 
ENDBRANCH   6   9
ENDBRANCH   4   5
ENDBRANCH   2   4
ENDBRANCH   1   2
BRANCH   1  12
HETATM   12  C7  UNL     1      -1.801  51.290  11.325  1.00  0.00     0.194 C 
HETATM   13  C8  UNL     1      -0.622  50.541  10.763  1.00  0.00     0.275 C 
HETATM   14  O4  UNL     1       0.487  51.051  10.818  1.00  0.00    -0.264 OA
HETATM   15  O5  UNL     1      -0.948  49.302  10.222  1.00  0.00    -0.283 OA
HETATM   16  C9  UNL     1      -2.188  48.673  10.496  1.00  0.00     0.175 C 
HETATM   17  C10 UNL     1      -2.081  48.084  11.893  1.00  0.00     0.079 C 
HETATM   18  C11 UNL     1      -2.457  47.604   9.454  1.00  0.00     0.079 C 
HETATM   19  O6  UNL     1      -3.289  49.582  10.445  1.00  0.00    -0.283 OA
HETATM   20  C12 UNL     1      -2.992  50.927  10.492  1.00  0.00     0.275 C 
HETATM   21  O7  UNL     1      -3.625  51.806   9.910  1.00  0.00    -0.264 OA
ENDBRANCH   1  12
TORSDOF 5
ENDMDL
MODEL 2
REMARK VINA RESULT: -6.862623972      2.654      6.505
REMARK  5 active torsions:
REMARK  status: ('A' for Active; 'I' for Inactive)
REMARK    1  A    between atoms: C2_2  and  N1_4 
REMARK       I    between atoms: N1_4  and  C4_6 
REMARK    2  A    between atoms: C4_6  and  O2_8 
REMARK    3  A    between atoms: O2_8  and  C5_9 
REMARK    4  A    between atoms: C5_9  and  C6_11 
REMARK    5  A    between atoms: C6_11  and  C7_12 
ROOT
HETATM    1  C6  UNL     1      -5.573  53.706  13.498  1.00  0.00     0.136 C 
ENDROOT
BRANCH   1   2
HETATM    2  C5  UNL     1      -4.127  53.784  13.188  1.00  0.00     0.268 C 
HETATM    3  O3  UNL     1      -3.540  54.871  12.946  1.00  0.00    -0.265 OA
BRANCH   2   4
HETATM    4  O2  UNL     1      -3.319  52.643  13.145  1.00  0.00    -0.227 OA
BRANCH   4   5
HETATM    5  C4  UNL     1      -2.077  52.609  12.531  1.00  0.00     0.368 C 
HETATM    6  N1  UNL     1      -1.898  52.510  11.131  1.00  0.00    -0.333 N 
ATOM      7  H1  UNL     1      -2.706  52.460  10.511  1.00  0.00     0.165 HD
HETATM    8  O1  UNL     1      -1.077  52.674  13.327  1.00  0.00    -0.238 OA
BRANCH   6   9
HETATM    9  C2  UNL     1      -0.563  52.481  10.592  1.00  0.00     0.078 C 
HETATM   10  C1  UNL     1      -0.459  53.254   9.280  1.00  0.00     0.032 C 
HETATM   11  C3  UNL     1      -0.064  51.064  10.383  1.00  0.00     0.032 C 
ENDBRANCH   6   9
ENDBRANCH   4   5
ENDBRANCH   2   4
ENDBRANCH   1   2
BRANCH   1  12
HETATM   12  C7  UNL     1      -6.421  54.056  12.327  1.00  0.00     0.194 C 
HETATM   13  C8  UNL     1      -7.568  54.917  12.785  1.00  0.00     0.275 C 
HETATM   14  O4  UNL     1      -7.454  55.561  13.817  1.00  0.00    -0.264 OA
HETATM   15  O5  UNL     1      -8.674  54.876  11.941  1.00  0.00    -0.283 OA
HETATM   16  C9  UNL     1      -8.586  54.362  10.624  1.00  0.00     0.175 C 
HETATM   17  C10 UNL     1      -7.926  55.439   9.777  1.00  0.00     0.079 C 
HETATM   18  C11 UNL     1      -9.975  54.022  10.117  1.00  0.00     0.079 C 
HETATM   19  O6  UNL     1      -7.816  53.161  10.551  1.00  0.00    -0.283 OA
HETATM   20  C12 UNL     1      -7.010  52.868  11.630  1.00  0.00     0.275 C 
HETATM   21  O7  UNL     1      -6.762  51.734  12.033  1.00  0.00    -0.264 OA
ENDBRANCH   1  12
TORSDOF 5
ENDMDL
MODEL 3
REMARK VINA RESULT: -6.802135777      2.079      3.539
REMARK  5 active torsions:
REMARK  status: ('A' for Active; 'I' for Inactive)
REMARK    1  A    between atoms: C2_2  and  N1_4 
REMARK       I    between atoms: N1_4  and  C4_6 
REMARK    2  A    between atoms: C4_6  and  O2_8 
REMARK    3  A    between atoms: O2_8  and  C5_9 
REMARK    4  A    between atoms: C5_9  and  C6_11 
REMARK    5  A    between atoms: C6_11  and  C7_12 
ROOT
HETATM    1  C6  UNL     1      -3.920  52.531  13.368  1.00  0.00     0.136 C 
ENDROOT
BRANCH   1   2
HETATM    2  C5  UNL     1      -4.662  53.813  13.324  1.00  0.00     0.268 C 
HETATM    3  O3  UNL     1      -4.114  54.905  13.022  1.00  0.00    -0.265 OA
BRANCH   2   4
HETATM    4  O2  UNL     1      -6.026  53.887  13.619  1.00  0.00    -0.227 OA
BRANCH   4   5
HETATM    5  C4  UNL     1      -6.994  54.211  12.681  1.00  0.00     0.368 C 
HETATM    6  N1  UNL     1      -6.713  54.867  11.460  1.00  0.00    -0.333 N 
ATOM      7  H1  UNL     1      -5.756  55.129  11.224  1.00  0.00     0.165 HD
HETATM    8  O1  UNL     1      -8.188  53.873  12.996  1.00  0.00    -0.238 OA
BRANCH   6   9
HETATM    9  C2  UNL     1      -7.793  55.161  10.553  1.00  0.00     0.078 C 
HETATM   10  C1  UNL     1      -7.342  55.123   9.096  1.00  0.00     0.032 C 
HETATM   11  C3  UNL     1      -8.435  56.503  10.847  1.00  0.00     0.032 C 
ENDBRANCH   6   9
ENDBRANCH   4   5
ENDBRANCH   2   4
ENDBRANCH   1   2
BRANCH   1  12
HETATM   12  C7  UNL     1      -3.030  52.353  12.189  1.00  0.00     0.194 C 
HETATM   13  C8  UNL     1      -2.984  50.895  11.819  1.00  0.00     0.275 C 
HETATM   14  O4  UNL     1      -3.910  50.168  12.146  1.00  0.00    -0.264 OA
HETATM   15  O5  UNL     1      -1.840  50.529  11.117  1.00  0.00    -0.283 OA
HETATM   16  C9  UNL     1      -0.996  51.495  10.514  1.00  0.00     0.175 C 
HETATM   17  C10 UNL     1      -1.688  51.945   9.238  1.00  0.00     0.079 C 
HETATM   18  C11 UNL     1       0.360  50.877  10.230  1.00  0.00     0.079 C 
HETATM   19  O6  UNL     1      -0.765  52.625  11.355  1.00  0.00    -0.283 OA
HETATM   20  C12 UNL     1      -1.619  52.795  12.424  1.00  0.00     0.275 C 
HETATM   21  O7  UNL     1      -1.297  53.268  13.511  1.00  0.00    -0.264 OA
ENDBRANCH   1  12
TORSDOF 5
ENDMDL
MODEL 4
REMARK VINA RESULT: -6.695430514      1.533      2.687
REMARK  5 active torsions:
REMARK  status: ('A' for Active; 'I' for Inactive)
REMARK    1  A    between atoms: C2_2  and  N1_4 
REMARK       I    between atoms: N1_4  and  C4_6 
REMARK    2  A    between atoms: C4_6  and  O2_8 
REMARK    3  A    between atoms: O2_8  and  C5_9 
REMARK    4  A    between atoms: C5_9  and  C6_11 
REMARK    5  A    between atoms: C6_11  and  C7_12 
ROOT
HETATM    1  C6  UNL     1      -2.399  51.605  12.217  1.00  0.00     0.136 C 
ENDROOT
BRANCH   1   2
HETATM    2  C5  UNL     1      -2.092  52.933  12.799  1.00  0.00     0.268 C 
HETATM    3  O3  UNL     1      -1.027  53.171  13.426  1.00  0.00    -0.265 OA
BRANCH   2   4
HETATM    4  O2  UNL     1      -2.976  54.010  12.685  1.00  0.00    -0.227 OA
BRANCH   4   5
HETATM    5  C4  UNL     1      -4.282  53.979  13.147  1.00  0.00     0.368 C 
HETATM    6  N1  UNL     1      -5.400  54.340  12.360  1.00  0.00    -0.333 N 
ATOM      7  H1  UNL     1      -5.274  54.644  11.394  1.00  0.00     0.165 HD
HETATM    8  O1  UNL     1      -4.418  53.595  14.360  1.00  0.00    -0.238 OA
BRANCH   6   9
HETATM    9  C2  UNL     1      -6.718  54.274  12.936  1.00  0.00     0.078 C 
HETATM   10  C1  UNL     1      -7.409  52.948  12.632  1.00  0.00     0.032 C 
HETATM   11  C3  UNL     1      -7.600  55.419  12.474  1.00  0.00     0.032 C 
ENDBRANCH   6   9
ENDBRANCH   4   5
ENDBRANCH   2   4
ENDBRANCH   1   2
BRANCH   1  12
HETATM   12  C7  UNL     1      -2.217  51.579  10.742  1.00  0.00     0.194 C 
HETATM   13  C8  UNL     1      -3.554  51.381  10.080  1.00  0.00     0.275 C 
HETATM   14  O4  UNL     1      -4.569  51.701  10.681  1.00  0.00    -0.264 OA
HETATM   15  O5  UNL     1      -3.475  50.829   8.805  1.00  0.00    -0.283 OA
HETATM   16  C9  UNL     1      -2.256  50.797   8.083  1.00  0.00     0.175 C 
HETATM   17  C10 UNL     1      -2.033  52.198   7.538  1.00  0.00     0.079 C 
HETATM   18  C11 UNL     1      -2.353  49.771   6.970  1.00  0.00     0.079 C 
HETATM   19  O6  UNL     1      -1.144  50.418   8.896  1.00  0.00    -0.283 OA
HETATM   20  C12 UNL     1      -1.319  50.480  10.261  1.00  0.00     0.275 C 
HETATM   21  O7  UNL     1      -0.800  49.714  11.071  1.00  0.00    -0.264 OA
ENDBRANCH   1  12
TORSDOF 5
ENDMDL
MODEL 5
REMARK VINA RESULT: -6.652662461      2.614      6.764
REMARK  5 active torsions:
REMARK  status: ('A' for Active; 'I' for Inactive)
REMARK    1  A    between atoms: C2_2  and  N1_4 
REMARK       I    between atoms: N1_4  and  C4_6 
REMARK    2  A    between atoms: C4_6  and  O2_8 
REMARK    3  A    between atoms: O2_8  and  C5_9 
REMARK    4  A    between atoms: C5_9  and  C6_11 
REMARK    5  A    between atoms: C6_11  and  C7_12 
ROOT
HETATM    1  C6  UNL     1      -6.016  53.065  13.798  1.00  0.00     0.136 C 
ENDROOT
BRANCH   1   2
HETATM    2  C5  UNL     1      -4.677  52.602  13.365  1.00  0.00     0.268 C 
HETATM    3  O3  UNL     1      -4.464  51.436  12.942  1.00  0.00    -0.265 OA
BRANCH   2   4
HETATM    4  O2  UNL     1      -3.559  53.441  13.401  1.00  0.00    -0.227 OA
BRANCH   4   5
HETATM    5  C4  UNL     1      -2.345  53.123  12.812  1.00  0.00     0.368 C 
HETATM    6  N1  UNL     1      -2.223  52.593  11.507  1.00  0.00    -0.333 N 
ATOM      7  H1  UNL     1      -3.054  52.423  10.940  1.00  0.00     0.165 HD
HETATM    8  O1  UNL     1      -1.316  53.345  13.540  1.00  0.00    -0.238 OA
BRANCH   6   9
HETATM    9  C2  UNL     1      -0.914  52.295  10.987  1.00  0.00     0.078 C 
HETATM   10  C1  UNL     1      -0.705  52.882   9.594  1.00  0.00     0.032 C 
HETATM   11  C3  UNL     1      -0.641  50.804  10.951  1.00  0.00     0.032 C 
ENDBRANCH   6   9
ENDBRANCH   4   5
ENDBRANCH   2   4
ENDBRANCH   1   2
BRANCH   1  12
HETATM   12  C7  UNL     1      -6.709  53.853  12.744  1.00  0.00     0.194 C 
HETATM   13  C8  UNL     1      -6.635  55.316  13.091  1.00  0.00     0.275 C 
HETATM   14  O4  UNL     1      -5.738  55.710  13.822  1.00  0.00    -0.264 OA
HETATM   15  O5  UNL     1      -7.642  56.083  12.514  1.00  0.00    -0.283 OA
HETATM   16  C9  UNL     1      -8.427  55.594  11.440  1.00  0.00     0.175 C 
HETATM   17  C10 UNL     1      -7.571  55.699  10.189  1.00  0.00     0.079 C 
HETATM   18  C11 UNL     1      -9.696  56.416  11.323  1.00  0.00     0.079 C 
HETATM   19  O6  UNL     1      -8.833  54.237  11.628  1.00  0.00    -0.283 OA
HETATM   20  C12 UNL     1      -8.158  53.510  12.585  1.00  0.00     0.275 C 
HETATM   21  O7  UNL     1      -8.662  52.633  13.284  1.00  0.00    -0.264 OA
ENDBRANCH   1  12
TORSDOF 5
ENDMDL
