MODEL 1
REMARK VINA RESULT: -7.218250560      0.000      0.000
REMARK  15 active torsions:
REMARK  status: ('A' for Active; 'I' for Inactive)
REMARK    1  A    between atoms: N1_1  and  C1_5 
REMARK    2  A    between atoms: C1_5  and  C2_6 
REMARK    3  A    between atoms: C2_6  and  C3_7 
REMARK    4  A    between atoms: C3_7  and  C4_8 
REMARK    5  A    between atoms: C4_8  and  C5_9 
REMARK    6  A    between atoms: C5_9  and  C6_10 
REMARK    7  A    between atoms: C6_10  and  N2_11 
REMARK    8  A    between atoms: N2_11  and  C7_13 
REMARK    9  A    between atoms: C8_16  and  N4_17 
REMARK   10  A    between atoms: N4_17  and  C9_19 
REMARK   11  A    between atoms: C9_19  and  C10_20 
REMARK   12  A    between atoms: C10_20  and  C11_21 
REMARK   13  A    between atoms: C11_21  and  N5_22 
REMARK   14  A    between atoms: C14_27  and  N7_28 
REMARK   15  A    between atoms: N7_28  and  C15_30 
ROOT
HETATM    1  C7  UNL     1      35.608   9.207   8.911  1.00  0.00     0.707 A 
HETATM    2  N3  UNL     1      35.205   9.132  10.189  1.00  0.00    -0.022 N 
ATOM      3  H3  UNL     1      34.215   9.219  10.414  1.00  0.00     0.203 HD
HETATM    4  C8  UNL     1      36.106   8.941  11.178  1.00  0.00     0.707 A 
HETATM    5  N6  UNL     1      37.407   8.829  10.851  1.00  0.00    -0.021 N 
ATOM      6  H6  UNL     1      38.088   8.684  11.596  1.00  0.00     0.203 HD
HETATM    7  C14 UNL     1      37.845   8.900   9.582  1.00  0.00     0.711 A 
HETATM    8  N8  UNL     1      36.926   9.090   8.622  1.00  0.00    -0.021 N 
ATOM      9  H8  UNL     1      37.228   9.148   7.651  1.00  0.00     0.203 HD
ENDROOT
BRANCH   1  10
HETATM   10  N2  UNL     1      34.699   9.390   8.019  1.00  0.00    -0.225 N 
ATOM     11  H2  UNL     1      34.855   9.086   7.057  1.00  0.00     0.177 HD
BRANCH  10  12
HETATM   12  C6  UNL     1      33.462  10.025   8.383  1.00  0.00     0.138 C 
BRANCH  12  13
HETATM   13  C5  UNL     1      33.551  11.454   7.838  1.00  0.00     0.020 C 
BRANCH  13  14
HETATM   14  C4  UNL     1      33.653  12.447   8.969  1.00  0.00     0.002 C 
BRANCH  14  15
HETATM   15  C3  UNL     1      33.060  11.844  10.210  1.00  0.00     0.002 C 
BRANCH  15  16
HETATM   16  C2  UNL     1      33.315  12.731  11.389  1.00  0.00     0.027 C 
BRANCH  16  17
HETATM   17  C1  UNL     1      32.033  12.779  12.225  1.00  0.00     0.229 C 
BRANCH  17  18
HETATM   18  N1  UNL     1      31.159  13.811  11.674  1.00  0.00    -0.079 N 
ATOM     19  H13 UNL     1      30.833  13.587  10.734  1.00  0.00     0.274 HD
ATOM     20  H12 UNL     1      30.249  13.839  12.134  1.00  0.00     0.274 HD
ATOM     21  H11 UNL     1      31.648  14.705  11.717  1.00  0.00     0.274 HD
ENDBRANCH  17  18
ENDBRANCH  16  17
ENDBRANCH  15  16
ENDBRANCH  14  15
ENDBRANCH  13  14
ENDBRANCH  12  13
ENDBRANCH  10  12
ENDBRANCH   1  10
BRANCH   4  22
HETATM   22  N4  UNL     1      35.655   8.879  12.363  1.00  0.00    -0.225 N 
ATOM     23  H4  UNL     1      35.520   7.940  12.737  1.00  0.00     0.177 HD
BRANCH  22  24
HETATM   24  C9  UNL     1      35.311   9.948  13.240  1.00  0.00     0.140 C 
BRANCH  24  25
HETATM   25  C10 UNL     1      34.948   9.311  14.590  1.00  0.00     0.050 C 
BRANCH  25  26
HETATM   26  C11 UNL     1      35.809   8.073  14.711  1.00  0.00     0.274 C 
BRANCH  26  27
HETATM   27  N5  UNL     1      35.125   6.946  15.265  1.00  0.00     0.091 N 
HETATM   28  C12 UNL     1      34.233   7.067  16.380  1.00  0.00     0.302 A 
HETATM   29  C13 UNL     1      35.539   6.354  16.510  1.00  0.00     0.302 A 
ENDBRANCH  26  27
ENDBRANCH  25  26
ENDBRANCH  24  25
ENDBRANCH  22  24
ENDBRANCH   4  22
BRANCH   7  30
HETATM   30  N7  UNL     1      39.082   8.791   9.297  1.00  0.00    -0.191 N 
ATOM     31  H7  UNL     1      39.430   7.839   9.182  1.00  0.00     0.184 HD
BRANCH  30  32
HETATM   32  C15 UNL     1      40.022   9.809   9.122  1.00  0.00     0.049 A 
HETATM   33  C16 UNL     1      40.383  10.265   7.854  1.00  0.00     0.030 A 
HETATM   34  C17 UNL     1      41.309  11.272   7.688  1.00  0.00     0.002 A 
HETATM   35  C18 UNL     1      41.918  11.873   8.780  1.00  0.00     0.000 A 
HETATM   36  C19 UNL     1      41.573  11.433  10.025  1.00  0.00     0.002 A 
HETATM   37  C20 UNL     1      40.637  10.417  10.194  1.00  0.00     0.030 A 
ENDBRANCH  30  32
ENDBRANCH   7  30
TORSDOF 15
ENDMDL
MODEL 2
REMARK VINA RESULT: -7.056559442      1.992      7.841
REMARK  15 active torsions:
REMARK  status: ('A' for Active; 'I' for Inactive)
REMARK    1  A    between atoms: N1_1  and  C1_5 
REMARK    2  A    between atoms: C1_5  and  C2_6 
REMARK    3  A    between atoms: C2_6  and  C3_7 
REMARK    4  A    between atoms: C3_7  and  C4_8 
REMARK    5  A    between atoms: C4_8  and  C5_9 
REMARK    6  A    between atoms: C5_9  and  C6_10 
REMARK    7  A    between atoms: C6_10  and  N2_11 
REMARK    8  A    between atoms: N2_11  and  C7_13 
REMARK    9  A    between atoms: C8_16  and  N4_17 
REMARK   10  A    between atoms: N4_17  and  C9_19 
REMARK   11  A    between atoms: C9_19  and  C10_20 
REMARK   12  A    between atoms: C10_20  and  C11_21 
REMARK   13  A    between atoms: C11_21  and  N5_22 
REMARK   14  A    between atoms: C14_27  and  N7_28 
REMARK   15  A    between atoms: N7_28  and  C15_30 
ROOT
HETATM    1  C7  UNL     1      36.757  11.368  11.519  1.00  0.00     0.707 A 
HETATM    2  N3  UNL     1      35.768  11.298  10.615  1.00  0.00    -0.022 N 
ATOM      3  H3  UNL     1      35.953  11.547   9.643  1.00  0.00     0.203 HD
HETATM    4  C8  UNL     1      34.531  10.900  10.984  1.00  0.00     0.707 A 
HETATM    5  N6  UNL     1      34.318  10.578  12.273  1.00  0.00    -0.021 N 
ATOM      6  H6  UNL     1      33.384  10.277  12.555  1.00  0.00     0.203 HD
HETATM    7  C14 UNL     1      35.283  10.636  13.206  1.00  0.00     0.711 A 
HETATM    8  N8  UNL     1      36.502  11.036  12.807  1.00  0.00    -0.021 N 
ATOM      9  H8  UNL     1      37.255  11.090  13.492  1.00  0.00     0.203 HD
ENDROOT
BRANCH   1  10
HETATM   10  N2  UNL     1      37.911  11.755  11.101  1.00  0.00    -0.225 N 
ATOM     11  H2  UNL     1      38.332  12.606  11.472  1.00  0.00     0.177 HD
BRANCH  10  12
HETATM   12  C6  UNL     1      38.603  10.980  10.108  1.00  0.00     0.138 C 
BRANCH  12  13
HETATM   13  C5  UNL     1      39.976  10.662  10.709  1.00  0.00     0.020 C 
BRANCH  13  14
HETATM   14  C4  UNL     1      41.005  11.657  10.235  1.00  0.00     0.002 C 
BRANCH  14  15
HETATM   15  C3  UNL     1      41.214  11.483   8.757  1.00  0.00     0.002 C 
BRANCH  15  16
HETATM   16  C2  UNL     1      42.678  11.471   8.440  1.00  0.00     0.027 C 
BRANCH  16  17
HETATM   17  C1  UNL     1      43.193  10.046   8.664  1.00  0.00     0.229 C 
BRANCH  17  18
HETATM   18  N1  UNL     1      44.367  10.108   9.528  1.00  0.00    -0.079 N 
ATOM     19  H13 UNL     1      45.068  10.767   9.189  1.00  0.00     0.274 HD
ATOM     20  H12 UNL     1      44.172  10.560  10.421  1.00  0.00     0.274 HD
ATOM     21  H11 UNL     1      44.738   9.165   9.639  1.00  0.00     0.274 HD
ENDBRANCH  17  18
ENDBRANCH  16  17
ENDBRANCH  15  16
ENDBRANCH  14  15
ENDBRANCH  13  14
ENDBRANCH  12  13
ENDBRANCH  10  12
ENDBRANCH   1  10
BRANCH   4  22
HETATM   22  N4  UNL     1      33.645  10.857  10.075  1.00  0.00    -0.225 N 
ATOM     23  H4  UNL     1      33.172   9.961   9.961  1.00  0.00     0.177 HD
BRANCH  22  24
HETATM   24  C9  UNL     1      33.224  11.896   9.195  1.00  0.00     0.140 C 
BRANCH  24  25
HETATM   25  C10 UNL     1      33.608  11.451   7.776  1.00  0.00     0.050 C 
BRANCH  25  26
HETATM   26  C11 UNL     1      33.544   9.939   7.781  1.00  0.00     0.274 C 
BRANCH  26  27
HETATM   27  N5  UNL     1      34.722   9.310   7.270  1.00  0.00     0.091 N 
HETATM   28  C12 UNL     1      35.674   8.663   8.125  1.00  0.00     0.302 A 
HETATM   29  C13 UNL     1      36.018   9.924   7.402  1.00  0.00     0.302 A 
ENDBRANCH  26  27
ENDBRANCH  25  26
ENDBRANCH  24  25
ENDBRANCH  22  24
ENDBRANCH   4  22
BRANCH   7  30
HETATM   30  N7  UNL     1      35.057  10.326  14.420  1.00  0.00    -0.191 N 
ATOM     31  H7  UNL     1      34.763  11.091  15.028  1.00  0.00     0.184 HD
BRANCH  30  32
HETATM   32  C15 UNL     1      35.161   9.072  15.026  1.00  0.00     0.049 A 
HETATM   33  C16 UNL     1      35.667   7.966  14.342  1.00  0.00     0.030 A 
HETATM   34  C17 UNL     1      35.769   6.731  14.946  1.00  0.00     0.002 A 
HETATM   35  C18 UNL     1      35.371   6.542  16.262  1.00  0.00     0.000 A 
HETATM   36  C19 UNL     1      34.874   7.617  16.939  1.00  0.00     0.002 A 
HETATM   37  C20 UNL     1      34.770   8.864  16.331  1.00  0.00     0.030 A 
ENDBRANCH  30  32
ENDBRANCH   7  30
TORSDOF 15
ENDMDL
MODEL 3
REMARK VINA RESULT: -7.010054429      1.853      7.004
REMARK  15 active torsions:
REMARK  status: ('A' for Active; 'I' for Inactive)
REMARK    1  A    between atoms: N1_1  and  C1_5 
REMARK    2  A    between atoms: C1_5  and  C2_6 
REMARK    3  A    between atoms: C2_6  and  C3_7 
REMARK    4  A    between atoms: C3_7  and  C4_8 
REMARK    5  A    between atoms: C4_8  and  C5_9 
REMARK    6  A    between atoms: C5_9  and  C6_10 
REMARK    7  A    between atoms: C6_10  and  N2_11 
REMARK    8  A    between atoms: N2_11  and  C7_13 
REMARK    9  A    between atoms: C8_16  and  N4_17 
REMARK   10  A    between atoms: N4_17  and  C9_19 
REMARK   11  A    between atoms: C9_19  and  C10_20 
REMARK   12  A    between atoms: C10_20  and  C11_21 
REMARK   13  A    between atoms: C11_21  and  N5_22 
REMARK   14  A    between atoms: C14_27  and  N7_28 
REMARK   15  A    between atoms: N7_28  and  C15_30 
ROOT
HETATM    1  C7  UNL     1      34.430  11.003  10.984  1.00  0.00     0.707 A 
HETATM    2  N3  UNL     1      35.671  11.334  10.596  1.00  0.00    -0.022 N 
ATOM      3  H3  UNL     1      35.847  11.592   9.625  1.00  0.00     0.203 HD
HETATM    4  C8  UNL     1      36.690  11.328  11.485  1.00  0.00     0.707 A 
HETATM    5  N6  UNL     1      36.428  10.983  12.760  1.00  0.00    -0.021 N 
ATOM      6  H6  UNL     1      37.195  10.978  13.432  1.00  0.00     0.203 HD
HETATM    7  C14 UNL     1      35.198  10.646  13.183  1.00  0.00     0.711 A 
HETATM    8  N8  UNL     1      34.208  10.662  12.276  1.00  0.00    -0.021 N 
ATOM      9  H8  UNL     1      33.264  10.410  12.568  1.00  0.00     0.203 HD
ENDROOT
BRANCH   1  10
HETATM   10  N2  UNL     1      33.507  11.030  10.088  1.00  0.00    -0.225 N 
ATOM     11  H2  UNL     1      32.846  10.257  10.010  1.00  0.00     0.177 HD
BRANCH  10  12
HETATM   12  C6  UNL     1      33.413  12.153   9.198  1.00  0.00     0.138 C 
BRANCH  12  13
HETATM   13  C5  UNL     1      33.459  11.569   7.782  1.00  0.00     0.020 C 
BRANCH  13  14
HETATM   14  C4  UNL     1      33.550  10.064   7.832  1.00  0.00     0.002 C 
BRANCH  14  15
HETATM   15  C3  UNL     1      34.616   9.603   6.879  1.00  0.00     0.002 C 
BRANCH  15  16
HETATM   16  C2  UNL     1      35.914   9.425   7.604  1.00  0.00     0.027 C 
BRANCH  16  17
HETATM   17  C1  UNL     1      35.692   8.397   8.717  1.00  0.00     0.229 C 
BRANCH  17  18
HETATM   18  N1  UNL     1      36.981   7.816   9.076  1.00  0.00    -0.079 N 
ATOM     19  H13 UNL     1      37.765   8.300   8.638  1.00  0.00     0.274 HD
ATOM     20  H12 UNL     1      37.234   7.994  10.048  1.00  0.00     0.274 HD
ATOM     21  H11 UNL     1      36.962   6.821   8.854  1.00  0.00     0.274 HD
ENDBRANCH  17  18
ENDBRANCH  16  17
ENDBRANCH  15  16
ENDBRANCH  14  15
ENDBRANCH  13  14
ENDBRANCH  12  13
ENDBRANCH  10  12
ENDBRANCH   1  10
BRANCH   4  22
HETATM   22  N4  UNL     1      37.837  11.653  11.048  1.00  0.00    -0.225 N 
ATOM     23  H4  UNL     1      37.993  12.651  10.916  1.00  0.00     0.177 HD
BRANCH  22  24
HETATM   24  C9  UNL     1      38.935  10.805  10.719  1.00  0.00     0.140 C 
BRANCH  24  25
HETATM   25  C10 UNL     1      39.038  10.795   9.187  1.00  0.00     0.050 C 
BRANCH  25  26
HETATM   26  C11 UNL     1      40.106   9.779   8.848  1.00  0.00     0.274 C 
BRANCH  26  27
HETATM   27  N5  UNL     1      41.182  10.309   8.068  1.00  0.00     0.091 N 
HETATM   28  C12 UNL     1      41.883  11.501   8.446  1.00  0.00     0.302 A 
HETATM   29  C13 UNL     1      41.004  11.473   7.239  1.00  0.00     0.302 A 
ENDBRANCH  26  27
ENDBRANCH  25  26
ENDBRANCH  24  25
ENDBRANCH  22  24
ENDBRANCH   4  22
BRANCH   7  30
HETATM   30  N7  UNL     1      34.976  10.323  14.395  1.00  0.00    -0.191 N 
ATOM     31  H7  UNL     1      34.651  11.074  15.004  1.00  0.00     0.184 HD
BRANCH  30  32
HETATM   32  C15 UNL     1      35.120   9.071  14.997  1.00  0.00     0.049 A 
HETATM   33  C16 UNL     1      35.653   7.982  14.307  1.00  0.00     0.030 A 
HETATM   34  C17 UNL     1      35.796   6.749  14.907  1.00  0.00     0.002 A 
HETATM   35  C18 UNL     1      35.413   6.546  16.225  1.00  0.00     0.000 A 
HETATM   36  C19 UNL     1      34.889   7.604  16.908  1.00  0.00     0.002 A 
HETATM   37  C20 UNL     1      34.745   8.849  16.304  1.00  0.00     0.030 A 
ENDBRANCH  30  32
ENDBRANCH   7  30
TORSDOF 15
ENDMDL
MODEL 4
REMARK VINA RESULT: -6.982532150      1.606      2.303
REMARK  15 active torsions:
REMARK  status: ('A' for Active; 'I' for Inactive)
REMARK    1  A    between atoms: N1_1  and  C1_5 
REMARK    2  A    between atoms: C1_5  and  C2_6 
REMARK    3  A    between atoms: C2_6  and  C3_7 
REMARK    4  A    between atoms: C3_7  and  C4_8 
REMARK    5  A    between atoms: C4_8  and  C5_9 
REMARK    6  A    between atoms: C5_9  and  C6_10 
REMARK    7  A    between atoms: C6_10  and  N2_11 
REMARK    8  A    between atoms: N2_11  and  C7_13 
REMARK    9  A    between atoms: C8_16  and  N4_17 
REMARK   10  A    between atoms: N4_17  and  C9_19 
REMARK   11  A    between atoms: C9_19  and  C10_20 
REMARK   12  A    between atoms: C10_20  and  C11_21 
REMARK   13  A    between atoms: C11_21  and  N5_22 
REMARK   14  A    between atoms: C14_27  and  N7_28 
REMARK   15  A    between atoms: N7_28  and  C15_30 
ROOT
HETATM    1  C7  UNL     1      36.999  10.108   9.974  1.00  0.00     0.707 A 
HETATM    2  N3  UNL     1      36.281  10.187  11.105  1.00  0.00    -0.022 N 
ATOM      3  H3  UNL     1      35.358   9.755  11.151  1.00  0.00     0.203 HD
HETATM    4  C8  UNL     1      36.773  10.837  12.183  1.00  0.00     0.707 A 
HETATM    5  N6  UNL     1      37.994  11.398  12.093  1.00  0.00    -0.021 N 
ATOM      6  H6  UNL     1      38.368  11.888  12.906  1.00  0.00     0.203 HD
HETATM    7  C14 UNL     1      38.740  11.338  10.977  1.00  0.00     0.711 A 
HETATM    8  N8  UNL     1      38.223  10.686   9.924  1.00  0.00    -0.021 N 
ATOM      9  H8  UNL     1      38.766  10.625   9.063  1.00  0.00     0.203 HD
ENDROOT
BRANCH   1  10
HETATM   10  N2  UNL     1      36.471   9.475   8.986  1.00  0.00    -0.225 N 
ATOM     11  H2  UNL     1      36.206   8.495   9.088  1.00  0.00     0.177 HD
BRANCH  10  12
HETATM   12  C6  UNL     1      36.256  10.156   7.739  1.00  0.00     0.138 C 
BRANCH  12  13
HETATM   13  C5  UNL     1      35.159   9.367   7.017  1.00  0.00     0.020 C 
BRANCH  13  14
HETATM   14  C4  UNL     1      33.807   9.675   7.610  1.00  0.00     0.002 C 
BRANCH  14  15
HETATM   15  C3  UNL     1      33.695  11.155   7.841  1.00  0.00     0.002 C 
BRANCH  15  16
HETATM   16  C2  UNL     1      33.245  11.427   9.243  1.00  0.00     0.027 C 
BRANCH  16  17
HETATM   17  C1  UNL     1      33.988  12.672   9.740  1.00  0.00     0.229 C 
BRANCH  17  18
HETATM   18  N1  UNL     1      33.155  13.343  10.733  1.00  0.00    -0.079 N 
ATOM     19  H13 UNL     1      33.333  14.346  10.779  1.00  0.00     0.274 HD
ATOM     20  H12 UNL     1      32.174  13.389  10.454  1.00  0.00     0.274 HD
ATOM     21  H11 UNL     1      33.285  12.879  11.631  1.00  0.00     0.274 HD
ENDBRANCH  17  18
ENDBRANCH  16  17
ENDBRANCH  15  16
ENDBRANCH  14  15
ENDBRANCH  13  14
ENDBRANCH  12  13
ENDBRANCH  10  12
ENDBRANCH   1  10
BRANCH   4  22
HETATM   22  N4  UNL     1      36.040  10.871  13.219  1.00  0.00    -0.225 N 
ATOM     23  H4  UNL     1      36.379  11.458  13.982  1.00  0.00     0.177 HD
BRANCH  22  24
HETATM   24  C9  UNL     1      34.806  10.199  13.457  1.00  0.00     0.140 C 
BRANCH  24  25
HETATM   25  C10 UNL     1      34.989   9.389  14.749  1.00  0.00     0.050 C 
BRANCH  25  26
HETATM   26  C11 UNL     1      35.634   8.085  14.335  1.00  0.00     0.274 C 
BRANCH  26  27
HETATM   27  N5  UNL     1      35.192   6.956  15.095  1.00  0.00     0.091 N 
HETATM   28  C12 UNL     1      34.333   7.092  16.234  1.00  0.00     0.302 A 
HETATM   29  C13 UNL     1      35.752   6.654  16.386  1.00  0.00     0.302 A 
ENDBRANCH  26  27
ENDBRANCH  25  26
ENDBRANCH  24  25
ENDBRANCH  22  24
ENDBRANCH   4  22
BRANCH   7  30
HETATM   30  N7  UNL     1      39.893  11.877  10.917  1.00  0.00    -0.191 N 
ATOM     31  H7  UNL     1      39.999  12.759  11.417  1.00  0.00     0.184 HD
BRANCH  30  32
HETATM   32  C15 UNL     1      41.030  11.413  10.251  1.00  0.00     0.049 A 
HETATM   33  C16 UNL     1      41.802  10.367  10.758  1.00  0.00     0.030 A 
HETATM   34  C17 UNL     1      42.922   9.912  10.095  1.00  0.00     0.002 A 
HETATM   35  C18 UNL     1      43.324  10.480   8.894  1.00  0.00     0.000 A 
HETATM   36  C19 UNL     1      42.576  11.504   8.391  1.00  0.00     0.002 A 
HETATM   37  C20 UNL     1      41.445  11.964   9.058  1.00  0.00     0.030 A 
ENDBRANCH  30  32
ENDBRANCH   7  30
TORSDOF 15
ENDMDL
MODEL 5
REMARK VINA RESULT: -6.957128031      1.294      1.540
REMARK  15 active torsions:
REMARK  status: ('A' for Active; 'I' for Inactive)
REMARK    1  A    between atoms: N1_1  and  C1_5 
REMARK    2  A    between atoms: C1_5  and  C2_6 
REMARK    3  A    between atoms: C2_6  and  C3_7 
REMARK    4  A    between atoms: C3_7  and  C4_8 
REMARK    5  A    between atoms: C4_8  and  C5_9 
REMARK    6  A    between atoms: C5_9  and  C6_10 
REMARK    7  A    between atoms: C6_10  and  N2_11 
REMARK    8  A    between atoms: N2_11  and  C7_13 
REMARK    9  A    between atoms: C8_16  and  N4_17 
REMARK   10  A    between atoms: N4_17  and  C9_19 
REMARK   11  A    between atoms: C9_19  and  C10_20 
REMARK   12  A    between atoms: C10_20  and  C11_21 
REMARK   13  A    between atoms: C11_21  and  N5_22 
REMARK   14  A    between atoms: C14_27  and  N7_28 
REMARK   15  A    between atoms: N7_28  and  C15_30 
ROOT
HETATM    1  C7  UNL     1      36.035   9.347   9.388  1.00  0.00     0.707 A 
HETATM    2  N3  UNL     1      35.458   9.027  10.557  1.00  0.00    -0.022 N 
ATOM      3  H3  UNL     1      34.671   8.380  10.573  1.00  0.00     0.203 HD
HETATM    4  C8  UNL     1      35.915   9.559  11.713  1.00  0.00     0.707 A 
HETATM    5  N6  UNL     1      36.956  10.411  11.661  1.00  0.00    -0.021 N 
ATOM      6  H6  UNL     1      37.304  10.813  12.532  1.00  0.00     0.203 HD
HETATM    7  C14 UNL     1      37.558  10.753  10.509  1.00  0.00     0.711 A 
HETATM    8  N8  UNL     1      37.081  10.208   9.379  1.00  0.00    -0.021 N 
ATOM      9  H8  UNL     1      37.516  10.449   8.489  1.00  0.00     0.203 HD
ENDROOT
BRANCH   1  10
HETATM   10  N2  UNL     1      35.551   8.805   8.327  1.00  0.00    -0.225 N 
ATOM     11  H2  UNL     1      35.438   7.792   8.274  1.00  0.00     0.177 HD
BRANCH  10  12
HETATM   12  C6  UNL     1      35.169   9.633   7.216  1.00  0.00     0.138 C 
BRANCH  12  13
HETATM   13  C5  UNL     1      33.721  10.054   7.488  1.00  0.00     0.020 C 
BRANCH  13  14
HETATM   14  C4  UNL     1      33.644  11.532   7.777  1.00  0.00     0.002 C 
BRANCH  14  15
HETATM   15  C3  UNL     1      33.220  11.734   9.204  1.00  0.00     0.002 C 
BRANCH  15  16
HETATM   16  C2  UNL     1      34.266  12.502   9.951  1.00  0.00     0.027 C 
BRANCH  16  17
HETATM   17  C1  UNL     1      33.702  12.835  11.336  1.00  0.00     0.229 C 
BRANCH  17  18
HETATM   18  N1  UNL     1      32.286  13.157  11.195  1.00  0.00    -0.079 N 
ATOM     19  H13 UNL     1      31.972  13.847  11.877  1.00  0.00     0.274 HD
ATOM     20  H12 UNL     1      32.089  13.695  10.351  1.00  0.00     0.274 HD
ATOM     21  H11 UNL     1      31.751  12.290  11.239  1.00  0.00     0.274 HD
ENDBRANCH  17  18
ENDBRANCH  16  17
ENDBRANCH  15  16
ENDBRANCH  14  15
ENDBRANCH  13  14
ENDBRANCH  12  13
ENDBRANCH  10  12
ENDBRANCH   1  10
BRANCH   4  22
HETATM   22  N4  UNL     1      35.322   9.212  12.780  1.00  0.00    -0.225 N 
ATOM     23  H4  UNL     1      35.152   8.212  12.888  1.00  0.00     0.177 HD
BRANCH  22  24
HETATM   24  C9  UNL     1      34.863  10.035  13.849  1.00  0.00     0.140 C 
BRANCH  24  25
HETATM   25  C10 UNL     1      34.866   9.160  15.111  1.00  0.00     0.050 C 
BRANCH  25  26
HETATM   26  C11 UNL     1      36.320   8.883  15.423  1.00  0.00     0.274 C 
BRANCH  26  27
HETATM   27  N5  UNL     1      36.593   7.514  15.737  1.00  0.00     0.091 N 
HETATM   28  C12 UNL     1      35.715   6.451  15.343  1.00  0.00     0.302 A 
HETATM   29  C13 UNL     1      35.876   6.827  16.780  1.00  0.00     0.302 A 
ENDBRANCH  26  27
ENDBRANCH  25  26
ENDBRANCH  24  25
ENDBRANCH  22  24
ENDBRANCH   4  22
BRANCH   7  30
HETATM   30  N7  UNL     1      38.542  11.561  10.485  1.00  0.00    -0.191 N 
ATOM     31  H7  UNL     1      38.307  12.551  10.556  1.00  0.00     0.184 HD
BRANCH  30  32
HETATM   32  C15 UNL     1      39.903  11.264  10.375  1.00  0.00     0.049 A 
HETATM   33  C16 UNL     1      40.551  11.241   9.140  1.00  0.00     0.030 A 
HETATM   34  C17 UNL     1      41.895  10.950   9.037  1.00  0.00     0.002 A 
HETATM   35  C18 UNL     1      42.654  10.667  10.164  1.00  0.00     0.000 A 
HETATM   36  C19 UNL     1      42.029  10.686  11.376  1.00  0.00     0.002 A 
HETATM   37  C20 UNL     1      40.673  10.981  11.481  1.00  0.00     0.030 A 
ENDBRANCH  30  32
ENDBRANCH   7  30
TORSDOF 15
ENDMDL
