MODEL 1
REMARK VINA RESULT: -7.785350146      0.000      0.000
REMARK  6 active torsions:
REMARK  status: ('A' for Active; 'I' for Inactive)
REMARK    1  A    between atoms: C2_2  and  N1_3 
REMARK    2  A    between atoms: N1_3  and  C3_5 
REMARK    3  A    between atoms: N5_15  and  S1_17 
REMARK    4  A    between atoms: S1_17  and  C6_20 
REMARK    5  A    between atoms: C6_20  and  C7_21 
REMARK    6  A    between atoms: C7_21  and  N6_22 
ROOT
HETATM    1  C3  UNL     1     -15.297  54.677  50.507  1.00  0.00     0.152 A 
HETATM    2  N2  UNL     1     -15.102  53.788  51.493  1.00  0.00    -0.290 N 
ATOM      3  H2  UNL     1     -14.157  53.522  51.771  1.00  0.00     0.172 HD
HETATM    4  C4  UNL     1     -16.169  53.255  52.110  1.00  0.00     0.340 A 
HETATM    5  O1  UNL     1     -16.009  52.423  53.034  1.00  0.00    -0.245 OA
HETATM    6  N3  UNL     1     -17.429  53.573  51.782  1.00  0.00    -0.250 N 
ATOM      7  H3  UNL     1     -18.214  53.145  52.274  1.00  0.00     0.192 HD
HETATM    8  N4  UNL     1     -17.647  54.460  50.797  1.00  0.00    -0.278 N 
ATOM      9  H4  UNL     1     -18.602  54.709  50.540  1.00  0.00     0.189 HD
HETATM   10  C5  UNL     1     -16.615  55.021  50.152  1.00  0.00     0.174 A 
HETATM   11  N5  UNL     1     -16.748  55.866  49.213  1.00  0.00    -0.266 N 
ATOM     12  H5  UNL     1     -15.907  56.242  48.776  1.00  0.00     0.180 HD
ENDROOT
BRANCH   1  13
HETATM   13  N1  UNL     1     -14.360  55.253  49.847  1.00  0.00    -0.373 N 
ATOM     14  H1  UNL     1     -14.024  54.847  48.973  1.00  0.00     0.161 HD
BRANCH  13  15
HETATM   15  C2  UNL     1     -13.781  56.482  50.348  1.00  0.00     0.117 C 
HETATM   16  C1  UNL     1     -12.274  56.424  50.378  1.00  0.00     0.026 C 
ENDBRANCH  13  15
ENDBRANCH   1  13
BRANCH  11  17
HETATM   17  S1  UNL     1     -18.264  56.401  48.648  1.00  0.00     0.233 S 
HETATM   18  O2  UNL     1     -19.322  55.340  48.698  1.00  0.00    -0.206 OA
HETATM   19  O3  UNL     1     -18.165  56.766  47.154  1.00  0.00    -0.206 OA
BRANCH  17  20
HETATM   20  C6  UNL     1     -18.872  57.834  49.524  1.00  0.00     0.183 C 
BRANCH  20  21
HETATM   21  C7  UNL     1     -18.432  59.074  48.795  1.00  0.00     0.138 C 
BRANCH  21  22
HETATM   22  N6  UNL     1     -17.068  59.017  48.365  1.00  0.00    -0.366 N 
HETATM   23  C8  UNL     1     -16.570  59.717  47.409  1.00  0.00     0.196 C 
HETATM   24  N7  UNL     1     -17.310  60.645  46.647  1.00  0.00    -0.067 NA
HETATM   25  N8  UNL     1     -15.196  59.539  47.111  1.00  0.00    -0.067 NA
ATOM     26  H6  UNL     1     -16.445  58.374  48.854  1.00  0.00     0.161 HD
ENDBRANCH  21  22
ENDBRANCH  20  21
ENDBRANCH  17  20
ENDBRANCH  11  17
TORSDOF 6
ENDMDL
MODEL 2
REMARK VINA RESULT: -7.703587701      2.422      4.159
REMARK  6 active torsions:
REMARK  status: ('A' for Active; 'I' for Inactive)
REMARK    1  A    between atoms: C2_2  and  N1_3 
REMARK    2  A    between atoms: N1_3  and  C3_5 
REMARK    3  A    between atoms: N5_15  and  S1_17 
REMARK    4  A    between atoms: S1_17  and  C6_20 
REMARK    5  A    between atoms: C6_20  and  C7_21 
REMARK    6  A    between atoms: C7_21  and  N6_22 
ROOT
HETATM    1  C3  UNL     1     -15.207  55.437  50.021  1.00  0.00     0.152 A 
HETATM    2  N2  UNL     1     -13.979  55.415  50.561  1.00  0.00    -0.290 N 
ATOM      3  H2  UNL     1     -13.650  54.591  51.065  1.00  0.00     0.172 HD
HETATM    4  C4  UNL     1     -13.189  56.493  50.428  1.00  0.00     0.340 A 
HETATM    5  O1  UNL     1     -12.039  56.494  50.925  1.00  0.00    -0.245 OA
HETATM    6  N3  UNL     1     -13.576  57.598  49.775  1.00  0.00    -0.250 N 
ATOM      7  H3  UNL     1     -12.947  58.397  49.695  1.00  0.00     0.192 HD
HETATM    8  N4  UNL     1     -14.802  57.641  49.226  1.00  0.00    -0.278 N 
ATOM      9  H4  UNL     1     -15.105  58.477  48.726  1.00  0.00     0.189 HD
HETATM   10  C5  UNL     1     -15.627  56.590  49.331  1.00  0.00     0.174 A 
HETATM   11  N5  UNL     1     -16.797  56.562  48.838  1.00  0.00    -0.266 N 
ATOM     12  H5  UNL     1     -17.358  55.720  48.966  1.00  0.00     0.180 HD
ENDROOT
BRANCH   1  13
HETATM   13  N1  UNL     1     -16.049  54.470  50.081  1.00  0.00    -0.373 N 
ATOM     14  H1  UNL     1     -16.776  54.378  49.371  1.00  0.00     0.161 HD
BRANCH  13  15
HETATM   15  C2  UNL     1     -15.962  53.511  51.162  1.00  0.00     0.117 C 
HETATM   16  C1  UNL     1     -17.294  53.302  51.839  1.00  0.00     0.026 C 
ENDBRANCH  13  15
ENDBRANCH   1  13
BRANCH  11  17
HETATM   17  S1  UNL     1     -17.475  57.864  47.971  1.00  0.00     0.233 S 
HETATM   18  O2  UNL     1     -18.339  57.426  46.827  1.00  0.00    -0.206 OA
HETATM   19  O3  UNL     1     -16.356  58.688  47.307  1.00  0.00    -0.206 OA
BRANCH  17  20
HETATM   20  C6  UNL     1     -18.431  58.967  49.000  1.00  0.00     0.183 C 
BRANCH  20  21
HETATM   21  C7  UNL     1     -19.223  58.151  49.985  1.00  0.00     0.138 C 
BRANCH  21  22
HETATM   22  N6  UNL     1     -20.304  57.434  49.380  1.00  0.00    -0.366 N 
HETATM   23  C8  UNL     1     -20.333  56.162  49.202  1.00  0.00     0.196 C 
HETATM   24  N7  UNL     1     -19.290  55.292  49.585  1.00  0.00    -0.067 NA
HETATM   25  N8  UNL     1     -21.483  55.611  48.585  1.00  0.00    -0.067 NA
ATOM     26  H6  UNL     1     -21.111  57.973  49.066  1.00  0.00     0.161 HD
ENDBRANCH  21  22
ENDBRANCH  20  21
ENDBRANCH  17  20
ENDBRANCH  11  17
TORSDOF 6
ENDMDL
MODEL 3
REMARK VINA RESULT: -7.652887918      1.562      2.887
REMARK  6 active torsions:
REMARK  status: ('A' for Active; 'I' for Inactive)
REMARK    1  A    between atoms: C2_2  and  N1_3 
REMARK    2  A    between atoms: N1_3  and  C3_5 
REMARK    3  A    between atoms: N5_15  and  S1_17 
REMARK    4  A    between atoms: S1_17  and  C6_20 
REMARK    5  A    between atoms: C6_20  and  C7_21 
REMARK    6  A    between atoms: C7_21  and  N6_22 
ROOT
HETATM    1  C3  UNL     1     -15.584  54.729  50.434  1.00  0.00     0.152 A 
HETATM    2  N2  UNL     1     -14.295  55.010  50.679  1.00  0.00    -0.290 N 
ATOM      3  H2  UNL     1     -13.681  54.306  51.089  1.00  0.00     0.172 HD
HETATM    4  C4  UNL     1     -13.826  56.231  50.375  1.00  0.00     0.340 A 
HETATM    5  O1  UNL     1     -12.624  56.514  50.596  1.00  0.00    -0.245 OA
HETATM    6  N3  UNL     1     -14.593  57.188  49.835  1.00  0.00    -0.250 N 
ATOM      7  H3  UNL     1     -14.199  58.105  49.619  1.00  0.00     0.192 HD
HETATM    8  N4  UNL     1     -15.886  56.928  49.582  1.00  0.00    -0.278 N 
ATOM      9  H4  UNL     1     -16.478  57.650  49.171  1.00  0.00     0.189 HD
HETATM   10  C5  UNL     1     -16.402  55.725  49.867  1.00  0.00     0.174 A 
HETATM   11  N5  UNL     1     -17.614  55.411  49.654  1.00  0.00    -0.266 N 
ATOM     12  H5  UNL     1     -17.923  54.471  49.902  1.00  0.00     0.180 HD
ENDROOT
BRANCH   1  13
HETATM   13  N1  UNL     1     -16.146  53.601  50.679  1.00  0.00    -0.373 N 
ATOM     14  H1  UNL     1     -16.553  53.055  49.920  1.00  0.00     0.161 HD
BRANCH  13  15
HETATM   15  C2  UNL     1     -16.198  53.109  52.040  1.00  0.00     0.117 C 
HETATM   16  C1  UNL     1     -17.601  52.735  52.450  1.00  0.00     0.026 C 
ENDBRANCH  13  15
ENDBRANCH   1  13
BRANCH  11  17
HETATM   17  S1  UNL     1     -18.751  56.485  48.975  1.00  0.00     0.233 S 
HETATM   18  O2  UNL     1     -20.139  55.922  48.926  1.00  0.00    -0.206 OA
HETATM   19  O3  UNL     1     -18.398  56.752  47.499  1.00  0.00    -0.206 OA
BRANCH  17  20
HETATM   20  C6  UNL     1     -18.817  58.058  49.817  1.00  0.00     0.183 C 
BRANCH  20  21
HETATM   21  C7  UNL     1     -18.525  59.153  48.828  1.00  0.00     0.138 C 
BRANCH  21  22
HETATM   22  N6  UNL     1     -17.180  59.124  48.339  1.00  0.00    -0.366 N 
HETATM   23  C8  UNL     1     -16.736  59.839  47.368  1.00  0.00     0.196 C 
HETATM   24  N7  UNL     1     -17.525  60.759  46.646  1.00  0.00    -0.067 NA
HETATM   25  N8  UNL     1     -15.374  59.686  47.010  1.00  0.00    -0.067 NA
ATOM     26  H6  UNL     1     -16.526  58.488  48.796  1.00  0.00     0.161 HD
ENDBRANCH  21  22
ENDBRANCH  20  21
ENDBRANCH  17  20
ENDBRANCH  11  17
TORSDOF 6
ENDMDL
MODEL 4
REMARK VINA RESULT: -7.547254516      2.100      5.430
REMARK  6 active torsions:
REMARK  status: ('A' for Active; 'I' for Inactive)
REMARK    1  A    between atoms: C2_2  and  N1_3 
REMARK    2  A    between atoms: N1_3  and  C3_5 
REMARK    3  A    between atoms: N5_15  and  S1_17 
REMARK    4  A    between atoms: S1_17  and  C6_20 
REMARK    5  A    between atoms: C6_20  and  C7_21 
REMARK    6  A    between atoms: C7_21  and  N6_22 
ROOT
HETATM    1  C3  UNL     1     -15.837  58.231  48.558  1.00  0.00     0.152 A 
HETATM    2  N2  UNL     1     -15.258  59.248  47.901  1.00  0.00    -0.290 N 
ATOM      3  H2  UNL     1     -14.249  59.389  47.954  1.00  0.00     0.172 HD
HETATM    4  C4  UNL     1     -16.026  60.076  47.174  1.00  0.00     0.340 A 
HETATM    5  O1  UNL     1     -15.505  61.033  46.554  1.00  0.00    -0.245 OA
HETATM    6  N3  UNL     1     -17.355  59.931  47.075  1.00  0.00    -0.250 N 
ATOM      7  H3  UNL     1     -17.904  60.582  46.513  1.00  0.00     0.192 HD
HETATM    8  N4  UNL     1     -17.955  58.920  47.724  1.00  0.00    -0.278 N 
ATOM      9  H4  UNL     1     -18.966  58.801  47.655  1.00  0.00     0.189 HD
HETATM   10  C5  UNL     1     -17.232  58.067  48.462  1.00  0.00     0.174 A 
HETATM   11  N5  UNL     1     -17.734  57.090  49.101  1.00  0.00    -0.266 N 
ATOM     12  H5  UNL     1     -17.109  56.489  49.639  1.00  0.00     0.180 HD
ENDROOT
BRANCH   1  13
HETATM   13  N1  UNL     1     -15.210  57.377  49.281  1.00  0.00    -0.373 N 
ATOM     14  H1  UNL     1     -15.702  56.568  49.662  1.00  0.00     0.161 HD
BRANCH  13  15
HETATM   15  C2  UNL     1     -13.801  57.566  49.553  1.00  0.00     0.117 C 
HETATM   16  C1  UNL     1     -13.240  56.463  50.416  1.00  0.00     0.026 C 
ENDBRANCH  13  15
ENDBRANCH   1  13
BRANCH  11  17
HETATM   17  S1  UNL     1     -19.401  56.734  49.104  1.00  0.00     0.233 S 
HETATM   18  O2  UNL     1     -20.053  56.949  47.771  1.00  0.00    -0.206 OA
HETATM   19  O3  UNL     1     -20.139  57.703  50.047  1.00  0.00    -0.206 OA
BRANCH  17  20
HETATM   20  C6  UNL     1     -19.760  55.068  49.637  1.00  0.00     0.183 C 
BRANCH  20  21
HETATM   21  C7  UNL     1     -18.554  54.205  49.386  1.00  0.00     0.138 C 
BRANCH  21  22
HETATM   22  N6  UNL     1     -17.726  54.048  50.543  1.00  0.00    -0.366 N 
HETATM   23  C8  UNL     1     -16.441  54.069  50.534  1.00  0.00     0.196 C 
HETATM   24  N7  UNL     1     -15.667  54.252  49.370  1.00  0.00    -0.067 NA
HETATM   25  N8  UNL     1     -15.774  53.897  51.772  1.00  0.00    -0.067 NA
ATOM     26  H6  UNL     1     -18.190  53.908  51.441  1.00  0.00     0.161 HD
ENDBRANCH  21  22
ENDBRANCH  20  21
ENDBRANCH  17  20
ENDBRANCH  11  17
TORSDOF 6
ENDMDL
MODEL 5
REMARK VINA RESULT: -7.398902337      2.625      6.360
REMARK  6 active torsions:
REMARK  status: ('A' for Active; 'I' for Inactive)
REMARK    1  A    between atoms: C2_2  and  N1_3 
REMARK    2  A    between atoms: N1_3  and  C3_5 
REMARK    3  A    between atoms: N5_15  and  S1_17 
REMARK    4  A    between atoms: S1_17  and  C6_20 
REMARK    5  A    between atoms: C6_20  and  C7_21 
REMARK    6  A    between atoms: C7_21  and  N6_22 
ROOT
HETATM    1  C3  UNL     1     -17.362  58.454  48.485  1.00  0.00     0.152 A 
HETATM    2  N2  UNL     1     -17.376  59.454  47.590  1.00  0.00    -0.290 N 
ATOM      3  H2  UNL     1     -18.259  59.875  47.299  1.00  0.00     0.172 HD
HETATM    4  C4  UNL     1     -16.212  59.891  47.083  1.00  0.00     0.340 A 
HETATM    5  O1  UNL     1     -16.203  60.823  46.245  1.00  0.00    -0.245 OA
HETATM    6  N3  UNL     1     -15.028  59.370  47.434  1.00  0.00    -0.250 N 
ATOM      7  H3  UNL     1     -14.165  59.730  47.026  1.00  0.00     0.192 HD
HETATM    8  N4  UNL     1     -14.991  58.369  48.329  1.00  0.00    -0.278 N 
ATOM      9  H4  UNL     1     -14.094  57.966  48.603  1.00  0.00     0.189 HD
HETATM   10  C5  UNL     1     -16.125  57.898  48.864  1.00  0.00     0.174 A 
HETATM   11  N5  UNL     1     -16.163  56.955  49.714  1.00  0.00    -0.266 N 
ATOM     12  H5  UNL     1     -17.072  56.658  50.069  1.00  0.00     0.180 HD
ENDROOT
BRANCH   1  13
HETATM   13  N1  UNL     1     -18.406  57.953  49.038  1.00  0.00    -0.373 N 
ATOM     14  H1  UNL     1     -18.611  58.149  50.018  1.00  0.00     0.161 HD
BRANCH  13  15
HETATM   15  C2  UNL     1     -19.291  57.109  48.264  1.00  0.00     0.117 C 
HETATM   16  C1  UNL     1     -20.674  57.043  48.863  1.00  0.00     0.026 C 
ENDBRANCH  13  15
ENDBRANCH   1  13
BRANCH  11  17
HETATM   17  S1  UNL     1     -14.769  56.161  50.290  1.00  0.00     0.233 S 
HETATM   18  O2  UNL     1     -13.748  57.099  50.859  1.00  0.00    -0.206 OA
HETATM   19  O3  UNL     1     -14.041  55.472  49.120  1.00  0.00    -0.206 OA
BRANCH  17  20
HETATM   20  C6  UNL     1     -15.129  54.918  51.520  1.00  0.00     0.183 C 
BRANCH  20  21
HETATM   21  C7  UNL     1     -15.776  53.738  50.847  1.00  0.00     0.138 C 
BRANCH  21  22
HETATM   22  N6  UNL     1     -17.206  53.792  50.873  1.00  0.00    -0.366 N 
HETATM   23  C8  UNL     1     -17.950  54.036  49.854  1.00  0.00     0.196 C 
HETATM   24  N7  UNL     1     -17.451  54.286  48.559  1.00  0.00    -0.067 NA
HETATM   25  N8  UNL     1     -19.353  54.051  50.055  1.00  0.00    -0.067 NA
ATOM     26  H6  UNL     1     -17.669  53.624  51.767  1.00  0.00     0.161 HD
ENDBRANCH  21  22
ENDBRANCH  20  21
ENDBRANCH  17  20
ENDBRANCH  11  17
TORSDOF 6
ENDMDL
