MODEL 1
REMARK VINA RESULT: -7.807843217      0.000      0.000
REMARK  7 active torsions:
REMARK  status: ('A' for Active; 'I' for Inactive)
REMARK    1  A    between atoms: C4_4  and  C5_5 
REMARK       I    between atoms: C5_5  and  N1_7 
REMARK    2  A    between atoms: N1_7  and  N2_9 
REMARK       I    between atoms: N2_9  and  C6_11 
REMARK       I    between atoms: C6_11  and  N3_13 
REMARK    3  A    between atoms: N3_13  and  C7_15 
REMARK    4  A    between atoms: C7_15  and  C8_16 
REMARK       I    between atoms: C8_16  and  N4_18 
REMARK    5  A    between atoms: N4_18  and  C9_20 
REMARK    6  A    between atoms: C9_20  and  C10_21 
REMARK       I    between atoms: C10_21  and  N5_23 
REMARK    7  A    between atoms: N5_23  and  C11_25 
ROOT
HETATM    1  C8  UNL     1      11.311  16.136  15.091  1.00  0.00     0.235 C 
HETATM    2  O3  UNL     1      10.166  16.442  14.605  1.00  0.00    -0.272 OA
HETATM    3  N4  UNL     1      12.388  17.001  14.852  1.00  0.00    -0.351 N 
ATOM      4  H4  UNL     1      13.301  16.766  15.242  1.00  0.00     0.163 HD
ENDROOT
BRANCH   1   5
HETATM    5  C7  UNL     1      11.407  14.909  15.859  1.00  0.00     0.227 C 
BRANCH   5   6
HETATM    6  N3  UNL     1      12.731  14.508  16.225  1.00  0.00    -0.333 N 
HETATM    7  C6  UNL     1      13.238  14.854  17.530  1.00  0.00     0.335 C 
HETATM    8  N2  UNL     1      14.551  14.451  17.879  1.00  0.00    -0.249 N 
HETATM    9  O2  UNL     1      12.524  15.500  18.333  1.00  0.00    -0.246 OA
ATOM     10  H2  UNL     1      15.121  13.926  17.215  1.00  0.00     0.192 HD
ATOM     11  H3  UNL     1      13.310  13.983  15.570  1.00  0.00     0.164 HD
BRANCH   8  12
HETATM   12  N1  UNL     1      15.054  14.773  19.123  1.00  0.00    -0.263 N 
HETATM   13  C5  UNL     1      15.832  15.957  19.329  1.00  0.00     0.260 C 
HETATM   14  O1  UNL     1      16.038  16.687  18.337  1.00  0.00    -0.267 OA
ATOM     15  H1  UNL     1      14.868  14.155  19.913  1.00  0.00     0.190 HD
BRANCH  13  16
HETATM   16  C4  UNL     1      16.361  16.298  20.634  1.00  0.00     0.077 C 
HETATM   17  C2  UNL     1      17.588  16.748  20.796  1.00  0.00    -0.082 C 
HETATM   18  C1  UNL     1      18.539  16.949  19.679  1.00  0.00     0.043 C 
HETATM   19  C3  UNL     1      18.022  17.068  22.214  1.00  0.00     0.043 C 
ENDBRANCH  13  16
ENDBRANCH   8  12
ENDBRANCH   5   6
ENDBRANCH   1   5
BRANCH   3  20
HETATM   20  C9  UNL     1      12.256  18.222  14.070  1.00  0.00     0.225 C 
BRANCH  20  21
HETATM   21  C10 UNL     1      13.448  18.547  13.269  1.00  0.00     0.235 C 
HETATM   22  O4  UNL     1      13.358  19.350  12.317  1.00  0.00    -0.272 OA
HETATM   23  N5  UNL     1      14.682  17.961  13.573  1.00  0.00    -0.355 N 
ATOM     24  H5  UNL     1      14.737  17.309  14.355  1.00  0.00     0.162 HD
BRANCH  23  25
HETATM   25  C11 UNL     1      15.903  18.252  12.806  1.00  0.00     0.084 C 
HETATM   26  C12 UNL     1      16.841  18.945  13.762  1.00  0.00     0.025 C 
HETATM   27  C13 UNL     1      18.171  19.273  13.151  1.00  0.00     0.002 C 
HETATM   28  C14 UNL     1      18.910  18.061  12.659  1.00  0.00     0.000 C 
HETATM   29  C15 UNL     1      18.548  17.839  11.222  1.00  0.00     0.000 C 
HETATM   30  C16 UNL     1      17.256  17.128  11.014  1.00  0.00     0.002 C 
HETATM   31  C17 UNL     1      16.440  16.961  12.274  1.00  0.00     0.025 C 
ENDBRANCH  23  25
ENDBRANCH  20  21
ENDBRANCH   3  20
TORSDOF 7
ENDMDL
MODEL 2
REMARK VINA RESULT: -7.565960858      2.076      7.525
REMARK  7 active torsions:
REMARK  status: ('A' for Active; 'I' for Inactive)
REMARK    1  A    between atoms: C4_4  and  C5_5 
REMARK       I    between atoms: C5_5  and  N1_7 
REMARK    2  A    between atoms: N1_7  and  N2_9 
REMARK       I    between atoms: N2_9  and  C6_11 
REMARK       I    between atoms: C6_11  and  N3_13 
REMARK    3  A    between atoms: N3_13  and  C7_15 
REMARK    4  A    between atoms: C7_15  and  C8_16 
REMARK       I    between atoms: C8_16  and  N4_18 
REMARK    5  A    between atoms: N4_18  and  C9_20 
REMARK    6  A    between atoms: C9_20  and  C10_21 
REMARK       I    between atoms: C10_21  and  N5_23 
REMARK    7  A    between atoms: N5_23  and  C11_25 
ROOT
HETATM    1  C8  UNL     1      12.896  16.055  16.238  1.00  0.00     0.235 C 
HETATM    2  O3  UNL     1      12.648  16.942  17.128  1.00  0.00    -0.272 OA
HETATM    3  N4  UNL     1      13.150  14.743  16.661  1.00  0.00    -0.351 N 
ATOM      4  H4  UNL     1      13.342  14.030  15.956  1.00  0.00     0.163 HD
ENDROOT
BRANCH   1   5
HETATM    5  C7  UNL     1      12.894  16.478  14.851  1.00  0.00     0.227 C 
BRANCH   5   6
HETATM    6  N3  UNL     1      14.017  17.264  14.441  1.00  0.00    -0.333 N 
HETATM    7  C6  UNL     1      15.060  16.651  13.656  1.00  0.00     0.335 C 
HETATM    8  N2  UNL     1      16.166  17.441  13.257  1.00  0.00    -0.249 N 
HETATM    9  O2  UNL     1      14.980  15.441  13.337  1.00  0.00    -0.246 OA
ATOM     10  H2  UNL     1      16.217  18.425  13.523  1.00  0.00     0.192 HD
ATOM     11  H3  UNL     1      14.079  18.248  14.701  1.00  0.00     0.164 HD
BRANCH   8  12
HETATM   12  N1  UNL     1      17.174  16.872  12.505  1.00  0.00    -0.263 N 
HETATM   13  C5  UNL     1      18.249  17.659  11.981  1.00  0.00     0.260 C 
HETATM   14  O1  UNL     1      18.237  18.882  12.232  1.00  0.00    -0.267 OA
ATOM     15  H1  UNL     1      17.153  15.869  12.318  1.00  0.00     0.190 HD
BRANCH  13  16
HETATM   16  C4  UNL     1      19.308  17.065  11.192  1.00  0.00     0.077 C 
HETATM   17  C2  UNL     1      19.245  16.990   9.879  1.00  0.00    -0.082 C 
HETATM   18  C1  UNL     1      18.103  17.498   9.086  1.00  0.00     0.043 C 
HETATM   19  C3  UNL     1      20.420  16.344   9.170  1.00  0.00     0.043 C 
ENDBRANCH  13  16
ENDBRANCH   8  12
ENDBRANCH   5   6
ENDBRANCH   1   5
BRANCH   3  20
HETATM   20  C9  UNL     1      13.151  14.355  18.064  1.00  0.00     0.225 C 
BRANCH  20  21
HETATM   21  C10 UNL     1      14.470  14.462  18.710  1.00  0.00     0.235 C 
HETATM   22  O4  UNL     1      15.059  13.431  19.098  1.00  0.00    -0.272 OA
HETATM   23  N5  UNL     1      15.068  15.715  18.888  1.00  0.00    -0.355 N 
ATOM     24  H5  UNL     1      14.574  16.546  18.564  1.00  0.00     0.162 HD
BRANCH  23  25
HETATM   25  C11 UNL     1      16.384  15.877  19.527  1.00  0.00     0.084 C 
HETATM   26  C12 UNL     1      17.245  16.607  18.526  1.00  0.00     0.025 C 
HETATM   27  C13 UNL     1      18.622  16.903  19.039  1.00  0.00     0.002 C 
HETATM   28  C14 UNL     1      18.622  17.755  20.277  1.00  0.00     0.000 C 
HETATM   29  C15 UNL     1      18.607  16.850  21.471  1.00  0.00     0.000 C 
HETATM   30  C16 UNL     1      17.260  16.331  21.836  1.00  0.00     0.002 C 
HETATM   31  C17 UNL     1      16.192  16.626  20.808  1.00  0.00     0.025 C 
ENDBRANCH  23  25
ENDBRANCH  20  21
ENDBRANCH   3  20
TORSDOF 7
ENDMDL
MODEL 3
REMARK VINA RESULT: -7.553700969      3.438      5.718
REMARK  7 active torsions:
REMARK  status: ('A' for Active; 'I' for Inactive)
REMARK    1  A    between atoms: C4_4  and  C5_5 
REMARK       I    between atoms: C5_5  and  N1_7 
REMARK    2  A    between atoms: N1_7  and  N2_9 
REMARK       I    between atoms: N2_9  and  C6_11 
REMARK       I    between atoms: C6_11  and  N3_13 
REMARK    3  A    between atoms: N3_13  and  C7_15 
REMARK    4  A    between atoms: C7_15  and  C8_16 
REMARK       I    between atoms: C8_16  and  N4_18 
REMARK    5  A    between atoms: N4_18  and  C9_20 
REMARK    6  A    between atoms: C9_20  and  C10_21 
REMARK       I    between atoms: C10_21  and  N5_23 
REMARK    7  A    between atoms: N5_23  and  C11_25 
ROOT
HETATM    1  C8  UNL     1      11.133  16.057  15.197  1.00  0.00     0.235 C 
HETATM    2  O3  UNL     1      10.080  16.160  14.474  1.00  0.00    -0.272 OA
HETATM    3  N4  UNL     1      12.000  17.156  15.269  1.00  0.00    -0.351 N 
ATOM      4  H4  UNL     1      12.837  17.082  15.848  1.00  0.00     0.163 HD
ENDROOT
BRANCH   1   5
HETATM    5  C7  UNL     1      11.348  14.802  15.892  1.00  0.00     0.227 C 
BRANCH   5   6
HETATM    6  N3  UNL     1      12.708  14.498  16.216  1.00  0.00    -0.333 N 
HETATM    7  C6  UNL     1      13.212  14.822  17.528  1.00  0.00     0.335 C 
HETATM    8  N2  UNL     1      14.561  14.516  17.834  1.00  0.00    -0.249 N 
HETATM    9  O2  UNL     1      12.463  15.366  18.374  1.00  0.00    -0.246 OA
ATOM     10  H2  UNL     1      15.159  14.074  17.136  1.00  0.00     0.192 HD
ATOM     11  H3  UNL     1      13.316  14.056  15.527  1.00  0.00     0.164 HD
BRANCH   8  12
HETATM   12  N1  UNL     1      15.061  14.819  19.085  1.00  0.00    -0.263 N 
HETATM   13  C5  UNL     1      15.912  15.951  19.293  1.00  0.00     0.260 C 
HETATM   14  O1  UNL     1      16.184  16.654  18.297  1.00  0.00    -0.267 OA
ATOM     15  H1  UNL     1      14.820  14.223  19.878  1.00  0.00     0.190 HD
BRANCH  13  16
HETATM   16  C4  UNL     1      16.438  16.272  20.604  1.00  0.00     0.077 C 
HETATM   17  C2  UNL     1      17.652  16.755  20.772  1.00  0.00    -0.082 C 
HETATM   18  C1  UNL     1      18.590  17.015  19.656  1.00  0.00     0.043 C 
HETATM   19  C3  UNL     1      18.084  17.049  22.196  1.00  0.00     0.043 C 
ENDBRANCH  13  16
ENDBRANCH   8  12
ENDBRANCH   5   6
ENDBRANCH   1   5
BRANCH   3  20
HETATM   20  C9  UNL     1      11.755  18.398  14.551  1.00  0.00     0.225 C 
BRANCH  20  21
HETATM   21  C10 UNL     1      10.787  19.288  15.214  1.00  0.00     0.235 C 
HETATM   22  O4  UNL     1       9.709  19.567  14.650  1.00  0.00    -0.272 OA
HETATM   23  N5  UNL     1      11.071  19.821  16.477  1.00  0.00    -0.355 N 
ATOM     24  H5  UNL     1      11.956  19.582  16.924  1.00  0.00     0.162 HD
BRANCH  23  25
HETATM   25  C11 UNL     1      10.139  20.714  17.184  1.00  0.00     0.084 C 
HETATM   26  C12 UNL     1      10.182  20.298  18.633  1.00  0.00     0.025 C 
HETATM   27  C13 UNL     1       9.317  21.147  19.516  1.00  0.00     0.002 C 
HETATM   28  C14 UNL     1       9.699  22.601  19.495  1.00  0.00     0.000 C 
HETATM   29  C15 UNL     1       8.901  23.282  18.426  1.00  0.00     0.000 C 
HETATM   30  C16 UNL     1       9.451  23.125  17.051  1.00  0.00     0.002 C 
HETATM   31  C17 UNL     1      10.580  22.125  16.954  1.00  0.00     0.025 C 
ENDBRANCH  23  25
ENDBRANCH  20  21
ENDBRANCH   3  20
TORSDOF 7
ENDMDL
MODEL 4
REMARK VINA RESULT: -7.524986609      4.683      6.631
REMARK  7 active torsions:
REMARK  status: ('A' for Active; 'I' for Inactive)
REMARK    1  A    between atoms: C4_4  and  C5_5 
REMARK       I    between atoms: C5_5  and  N1_7 
REMARK    2  A    between atoms: N1_7  and  N2_9 
REMARK       I    between atoms: N2_9  and  C6_11 
REMARK       I    between atoms: C6_11  and  N3_13 
REMARK    3  A    between atoms: N3_13  and  C7_15 
REMARK    4  A    between atoms: C7_15  and  C8_16 
REMARK       I    between atoms: C8_16  and  N4_18 
REMARK    5  A    between atoms: N4_18  and  C9_20 
REMARK    6  A    between atoms: C9_20  and  C10_21 
REMARK       I    between atoms: C10_21  and  N5_23 
REMARK    7  A    between atoms: N5_23  and  C11_25 
ROOT
HETATM    1  C8  UNL     1      18.650  18.147  12.857  1.00  0.00     0.235 C 
HETATM    2  O3  UNL     1      19.243  19.252  12.596  1.00  0.00    -0.272 OA
HETATM    3  N4  UNL     1      18.677  17.134  11.889  1.00  0.00    -0.351 N 
ATOM      4  H4  UNL     1      18.212  16.249  12.093  1.00  0.00     0.163 HD
ENDROOT
BRANCH   1   5
HETATM    5  C7  UNL     1      17.993  18.026  14.145  1.00  0.00     0.227 C 
BRANCH   5   6
HETATM    6  N3  UNL     1      18.844  17.692  15.246  1.00  0.00    -0.333 N 
HETATM    7  C6  UNL     1      18.256  17.389  16.527  1.00  0.00     0.335 C 
HETATM    8  N2  UNL     1      19.110  17.060  17.608  1.00  0.00    -0.249 N 
HETATM    9  O2  UNL     1      17.010  17.419  16.672  1.00  0.00    -0.246 OA
ATOM     10  H2  UNL     1      20.121  17.039  17.475  1.00  0.00     0.192 HD
ATOM     11  H3  UNL     1      19.856  17.668  15.125  1.00  0.00     0.164 HD
BRANCH   8  12
HETATM   12  N1  UNL     1      18.565  16.767  18.842  1.00  0.00    -0.263 N 
HETATM   13  C5  UNL     1      18.835  17.581  19.988  1.00  0.00     0.260 C 
HETATM   14  O1  UNL     1      19.584  18.566  19.827  1.00  0.00    -0.267 OA
ATOM     15  H1  UNL     1      17.957  15.953  18.939  1.00  0.00     0.190 HD
BRANCH  13  16
HETATM   16  C4  UNL     1      18.265  17.276  21.285  1.00  0.00     0.077 C 
HETATM   17  C2  UNL     1      17.086  16.705  21.414  1.00  0.00    -0.082 C 
HETATM   18  C1  UNL     1      16.234  16.320  20.265  1.00  0.00     0.043 C 
HETATM   19  C3  UNL     1      16.601  16.440  22.826  1.00  0.00     0.043 C 
ENDBRANCH  13  16
ENDBRANCH   8  12
ENDBRANCH   5   6
ENDBRANCH   1   5
BRANCH   3  20
HETATM   20  C9  UNL     1      19.341  17.293  10.603  1.00  0.00     0.225 C 
BRANCH  20  21
HETATM   21  C10 UNL     1      20.737  16.822  10.592  1.00  0.00     0.235 C 
HETATM   22  O4  UNL     1      20.991  15.636  10.295  1.00  0.00    -0.272 OA
HETATM   23  N5  UNL     1      21.779  17.701  10.910  1.00  0.00    -0.355 N 
ATOM     24  H5  UNL     1      21.552  18.666  11.149  1.00  0.00     0.162 HD
BRANCH  23  25
HETATM   25  C11 UNL     1      23.189  17.282  10.913  1.00  0.00     0.084 C 
HETATM   26  C12 UNL     1      23.771  17.769   9.610  1.00  0.00     0.025 C 
HETATM   27  C13 UNL     1      25.233  17.468   9.467  1.00  0.00     0.002 C 
HETATM   28  C14 UNL     1      26.073  18.089  10.547  1.00  0.00     0.000 C 
HETATM   29  C15 UNL     1      26.201  17.104  11.669  1.00  0.00     0.000 C 
HETATM   30  C16 UNL     1      25.038  17.074  12.600  1.00  0.00     0.002 C 
HETATM   31  C17 UNL     1      23.850  17.873  12.119  1.00  0.00     0.025 C 
ENDBRANCH  23  25
ENDBRANCH  20  21
ENDBRANCH   3  20
TORSDOF 7
ENDMDL
MODEL 5
REMARK VINA RESULT: -7.454456856      3.413      5.064
REMARK  7 active torsions:
REMARK  status: ('A' for Active; 'I' for Inactive)
REMARK    1  A    between atoms: C4_4  and  C5_5 
REMARK       I    between atoms: C5_5  and  N1_7 
REMARK    2  A    between atoms: N1_7  and  N2_9 
REMARK       I    between atoms: N2_9  and  C6_11 
REMARK       I    between atoms: C6_11  and  N3_13 
REMARK    3  A    between atoms: N3_13  and  C7_15 
REMARK    4  A    between atoms: C7_15  and  C8_16 
REMARK       I    between atoms: C8_16  and  N4_18 
REMARK    5  A    between atoms: N4_18  and  C9_20 
REMARK    6  A    between atoms: C9_20  and  C10_21 
REMARK       I    between atoms: C10_21  and  N5_23 
REMARK    7  A    between atoms: N5_23  and  C11_25 
ROOT
HETATM    1  C8  UNL     1      11.020  16.149  15.535  1.00  0.00     0.235 C 
HETATM    2  O3  UNL     1       9.796  16.516  15.636  1.00  0.00    -0.272 OA
HETATM    3  N4  UNL     1      11.972  17.107  15.159  1.00  0.00    -0.351 N 
ATOM      4  H4  UNL     1      12.949  16.823  15.084  1.00  0.00     0.163 HD
ENDROOT
BRANCH   1   5
HETATM    5  C7  UNL     1      11.330  14.761  15.821  1.00  0.00     0.227 C 
BRANCH   5   6
HETATM    6  N3  UNL     1      12.693  14.487  16.158  1.00  0.00    -0.333 N 
HETATM    7  C6  UNL     1      13.171  14.802  17.482  1.00  0.00     0.335 C 
HETATM    8  N2  UNL     1      14.523  14.525  17.801  1.00  0.00    -0.249 N 
HETATM    9  O2  UNL     1      12.397  15.312  18.327  1.00  0.00    -0.246 OA
ATOM     10  H2  UNL     1      15.141  14.110  17.104  1.00  0.00     0.192 HD
ATOM     11  H3  UNL     1      13.320  14.072  15.470  1.00  0.00     0.164 HD
BRANCH   8  12
HETATM   12  N1  UNL     1      14.999  14.820  19.063  1.00  0.00    -0.263 N 
HETATM   13  C5  UNL     1      15.846  15.951  19.295  1.00  0.00     0.260 C 
HETATM   14  O1  UNL     1      16.137  16.659  18.310  1.00  0.00    -0.267 OA
ATOM     15  H1  UNL     1      14.742  14.219  19.847  1.00  0.00     0.190 HD
BRANCH  13  16
HETATM   16  C4  UNL     1      16.346  16.263  20.618  1.00  0.00     0.077 C 
HETATM   17  C2  UNL     1      17.555  16.747  20.812  1.00  0.00    -0.082 C 
HETATM   18  C1  UNL     1      18.513  17.017  19.716  1.00  0.00     0.043 C 
HETATM   19  C3  UNL     1      17.960  17.031  22.247  1.00  0.00     0.043 C 
ENDBRANCH  13  16
ENDBRANCH   8  12
ENDBRANCH   5   6
ENDBRANCH   1   5
BRANCH   3  20
HETATM   20  C9  UNL     1      11.623  18.491  14.873  1.00  0.00     0.225 C 
BRANCH  20  21
HETATM   21  C10 UNL     1      11.274  18.738  13.464  1.00  0.00     0.235 C 
HETATM   22  O4  UNL     1      12.107  19.270  12.700  1.00  0.00    -0.272 OA
HETATM   23  N5  UNL     1      10.013  18.376  12.976  1.00  0.00    -0.355 N 
ATOM     24  H5  UNL     1       9.346  17.942  13.613  1.00  0.00     0.162 HD
BRANCH  23  25
HETATM   25  C11 UNL     1       9.615  18.600  11.577  1.00  0.00     0.084 C 
HETATM   26  C12 UNL     1       9.070  17.283  11.084  1.00  0.00     0.025 C 
HETATM   27  C13 UNL     1       8.565  17.345   9.674  1.00  0.00     0.002 C 
HETATM   28  C14 UNL     1       7.457  18.343   9.485  1.00  0.00     0.000 C 
HETATM   29  C15 UNL     1       8.066  19.655   9.095  1.00  0.00     0.000 C 
HETATM   30  C16 UNL     1       8.587  20.458  10.236  1.00  0.00     0.002 C 
HETATM   31  C17 UNL     1       8.611  19.709  11.549  1.00  0.00     0.025 C 
ENDBRANCH  23  25
ENDBRANCH  20  21
ENDBRANCH   3  20
TORSDOF 7
ENDMDL
