MODEL 1
REMARK VINA RESULT: -8.789272170      0.000      0.000
REMARK  10 active torsions:
REMARK  status: ('A' for Active; 'I' for Inactive)
REMARK    1  A    between atoms: C2_2  and  C4_4 
REMARK    2  A    between atoms: C4_4  and  C5_5 
REMARK    3  A    between atoms: C5_5  and  C6_6 
REMARK    4  A    between atoms: C6_6  and  C7_7 
REMARK    5  A    between atoms: C7_7  and  C9_9 
REMARK    6  A    between atoms: C18_18  and  O1_19 
REMARK    7  A    between atoms: C21_23  and  O2_24 
REMARK    8  A    between atoms: C21_23  and  C22_26 
REMARK    9  A    between atoms: C24_28  and  O3_29 
REMARK   10  A    between atoms: C25_32  and  O5_33 
ROOT
HETATM    1  C9  UNL     1      20.557  -8.912  -2.663  1.00  0.00     0.034 C 
HETATM    2  C10 UNL     1      19.889  -7.581  -2.948  1.00  0.00     0.007 C 
HETATM    3  C11 UNL     1      18.466  -7.682  -2.621  1.00  0.00     0.006 C 
HETATM    4  C12 UNL     1      17.493  -7.573  -3.754  1.00  0.00     0.010 C 
HETATM    5  C13 UNL     1      18.184  -6.845  -4.896  1.00  0.00     0.050 C 
HETATM    6  C14 UNL     1      17.267  -6.444  -5.978  1.00  0.00     0.062 C 
HETATM    7  C15 UNL     1      17.131  -7.419  -7.114  1.00  0.00     0.032 C 
HETATM    8  C16 UNL     1      18.476  -7.676  -7.684  1.00  0.00     0.005 C 
HETATM    9  C17 UNL     1      19.618  -7.390  -6.747  1.00  0.00     0.039 C 
HETATM   10  C18 UNL     1      19.294  -7.831  -5.331  1.00  0.00     0.074 C 
HETATM   11  C19 UNL     1      20.376  -7.666  -4.354  1.00  0.00     0.028 C 
HETATM   12  C20 UNL     1      21.226  -6.437  -4.783  1.00  0.00     0.022 C 
HETATM   13  C21 UNL     1      21.318  -8.722  -3.955  1.00  0.00     0.104 C 
HETATM   14  S1  UNL     1      15.611  -6.072  -5.270  1.00  0.00    -0.147 SA
HETATM   15  C26 UNL     1      15.679  -4.248  -5.153  1.00  0.00     0.086 C 
HETATM   16  C27 UNL     1      16.199  -3.829  -6.508  1.00  0.00     0.086 C 
HETATM   17  S2  UNL     1      17.680  -4.826  -6.689  1.00  0.00    -0.147 SA
ENDROOT
BRANCH  13  18
HETATM   18  O2  UNL     1      22.587  -8.223  -3.540  1.00  0.00    -0.383 OA
ATOM     19  H2  UNL     1      22.752  -7.495  -4.126  1.00  0.00     0.211 HD
ENDBRANCH  13  18
BRANCH  13  20
HETATM   20  C22 UNL     1      21.500  -9.955  -4.736  1.00  0.00     0.040 A 
HETATM   21  C23 UNL     1      21.042 -11.223  -4.452  1.00  0.00     0.079 A 
HETATM   22  C24 UNL     1      21.436 -12.039  -5.463  1.00  0.00     0.186 A 
HETATM   23  O4  UNL     1      22.088 -11.316  -6.301  1.00  0.00    -0.264 OA
HETATM   24  C25 UNL     1      22.166 -10.068  -5.933  1.00  0.00     0.195 A 
BRANCH  22  25
HETATM   25  O3  UNL     1      21.171 -13.413  -5.556  1.00  0.00    -0.341 OA
ATOM     26  H3  UNL     1      21.812 -14.109  -5.461  1.00  0.00     0.220 HD
ENDBRANCH  22  25
BRANCH  24  27
HETATM   27  O5  UNL     1      22.830  -9.118  -6.696  1.00  0.00    -0.340 OA
ATOM     28  H5  UNL     1      22.712  -8.854  -7.601  1.00  0.00     0.220 HD
ENDBRANCH  24  27
ENDBRANCH  13  20
BRANCH   1  29
HETATM   29  C7  UNL     1      21.248  -9.074  -1.387  1.00  0.00    -0.011 C 
HETATM   30  C8  UNL     1      20.672 -10.063  -0.414  1.00  0.00     0.010 C 
BRANCH  29  31
HETATM   31  C6  UNL     1      21.541  -7.806  -0.631  1.00  0.00     0.005 C 
BRANCH  31  32
HETATM   32  C5  UNL     1      21.331  -8.000   0.862  1.00  0.00     0.001 C 
BRANCH  32  33
HETATM   33  C4  UNL     1      20.694  -6.774   1.483  1.00  0.00     0.004 C 
BRANCH  33  34
HETATM   34  C2  UNL     1      19.276  -7.006   1.884  1.00  0.00    -0.023 C 
HETATM   35  C1  UNL     1      19.035  -8.454   2.216  1.00  0.00     0.009 C 
HETATM   36  C3  UNL     1      18.277  -6.586   0.856  1.00  0.00     0.009 C 
ENDBRANCH  33  34
ENDBRANCH  32  33
ENDBRANCH  31  32
ENDBRANCH  29  31
ENDBRANCH   1  29
BRANCH  10  37
HETATM   37  O1  UNL     1      18.690  -9.066  -5.370  1.00  0.00    -0.388 OA
ATOM     38  H1  UNL     1      18.287  -9.177  -4.517  1.00  0.00     0.210 HD
ENDBRANCH  10  37
TORSDOF 10
ENDMDL
MODEL 2
REMARK VINA RESULT: -8.515274141      2.637      6.501
REMARK  10 active torsions:
REMARK  status: ('A' for Active; 'I' for Inactive)
REMARK    1  A    between atoms: C2_2  and  C4_4 
REMARK    2  A    between atoms: C4_4  and  C5_5 
REMARK    3  A    between atoms: C5_5  and  C6_6 
REMARK    4  A    between atoms: C6_6  and  C7_7 
REMARK    5  A    between atoms: C7_7  and  C9_9 
REMARK    6  A    between atoms: C18_18  and  O1_19 
REMARK    7  A    between atoms: C21_23  and  O2_24 
REMARK    8  A    between atoms: C21_23  and  C22_26 
REMARK    9  A    between atoms: C24_28  and  O3_29 
REMARK   10  A    between atoms: C25_32  and  O5_33 
ROOT
HETATM    1  C9  UNL     1      18.283  -7.705  -6.376  1.00  0.00     0.034 C 
HETATM    2  C10 UNL     1      18.270  -8.596  -5.149  1.00  0.00     0.007 C 
HETATM    3  C11 UNL     1      17.252  -8.109  -4.217  1.00  0.00     0.006 C 
HETATM    4  C12 UNL     1      17.726  -7.563  -2.906  1.00  0.00     0.010 C 
HETATM    5  C13 UNL     1      19.106  -8.138  -2.632  1.00  0.00     0.050 C 
HETATM    6  C14 UNL     1      19.585  -7.888  -1.261  1.00  0.00     0.062 C 
HETATM    7  C15 UNL     1      20.421  -6.653  -1.076  1.00  0.00     0.032 C 
HETATM    8  C16 UNL     1      21.584  -6.724  -1.993  1.00  0.00     0.005 C 
HETATM    9  C17 UNL     1      21.390  -7.629  -3.180  1.00  0.00     0.039 C 
HETATM   10  C18 UNL     1      19.984  -7.511  -3.741  1.00  0.00     0.074 C 
HETATM   11  C19 UNL     1      19.717  -8.298  -4.950  1.00  0.00     0.028 C 
HETATM   12  C20 UNL     1      20.603  -9.575  -4.896  1.00  0.00     0.022 C 
HETATM   13  C21 UNL     1      19.791  -7.780  -6.323  1.00  0.00     0.104 C 
HETATM   14  S1  UNL     1      18.151  -7.852  -0.109  1.00  0.00    -0.147 SA
HETATM   15  C26 UNL     1      18.207  -9.547   0.577  1.00  0.00     0.086 C 
HETATM   16  C27 UNL     1      19.660  -9.728   0.947  1.00  0.00     0.086 C 
HETATM   17  S2  UNL     1      20.512  -9.287  -0.570  1.00  0.00    -0.147 SA
ENDROOT
BRANCH  13  18
HETATM   18  O2  UNL     1      20.123  -8.776  -7.288  1.00  0.00    -0.383 OA
ATOM     19  H2  UNL     1      20.982  -8.518  -7.599  1.00  0.00     0.211 HD
ENDBRANCH  13  18
BRANCH  13  20
HETATM   20  C22 UNL     1      20.471  -6.519  -6.656  1.00  0.00     0.040 A 
HETATM   21  C23 UNL     1      19.909  -5.301  -6.971  1.00  0.00     0.079 A 
HETATM   22  C24 UNL     1      20.921  -4.424  -7.190  1.00  0.00     0.186 A 
HETATM   23  O4  UNL     1      22.022  -5.066  -7.020  1.00  0.00    -0.264 OA
HETATM   24  C25 UNL     1      21.829  -6.316  -6.702  1.00  0.00     0.195 A 
BRANCH  22  25
HETATM   25  O3  UNL     1      20.773  -3.073  -7.537  1.00  0.00    -0.341 OA
ATOM     26  H3  UNL     1      21.480  -2.477  -7.756  1.00  0.00     0.220 HD
ENDBRANCH  22  25
BRANCH  24  27
HETATM   27  O5  UNL     1      22.886  -7.186  -6.476  1.00  0.00    -0.340 OA
ATOM     28  H5  UNL     1      23.825  -7.054  -6.540  1.00  0.00     0.220 HD
ENDBRANCH  24  27
ENDBRANCH  13  20
BRANCH   1  29
HETATM   29  C7  UNL     1      17.537  -8.147  -7.551  1.00  0.00    -0.011 C 
HETATM   30  C8  UNL     1      17.773  -7.402  -8.835  1.00  0.00     0.010 C 
BRANCH  29  31
HETATM   31  C6  UNL     1      16.050  -8.292  -7.373  1.00  0.00     0.005 C 
BRANCH  31  32
HETATM   32  C5  UNL     1      15.346  -6.959  -7.565  1.00  0.00     0.001 C 
BRANCH  32  33
HETATM   33  C4  UNL     1      14.741  -6.475  -6.263  1.00  0.00     0.004 C 
BRANCH  33  34
HETATM   34  C2  UNL     1      15.160  -5.085  -5.919  1.00  0.00    -0.023 C 
HETATM   35  C1  UNL     1      16.275  -4.616  -6.814  1.00  0.00     0.009 C 
HETATM   36  C3  UNL     1      15.593  -4.914  -4.500  1.00  0.00     0.009 C 
ENDBRANCH  33  34
ENDBRANCH  32  33
ENDBRANCH  31  32
ENDBRANCH  29  31
ENDBRANCH   1  29
BRANCH  10  37
HETATM   37  O1  UNL     1      19.625  -6.185  -3.783  1.00  0.00    -0.388 OA
ATOM     38  H1  UNL     1      18.711  -6.179  -4.043  1.00  0.00     0.210 HD
ENDBRANCH  10  37
TORSDOF 10
ENDMDL
MODEL 3
REMARK VINA RESULT: -8.479770966      2.878      6.851
REMARK  10 active torsions:
REMARK  status: ('A' for Active; 'I' for Inactive)
REMARK    1  A    between atoms: C2_2  and  C4_4 
REMARK    2  A    between atoms: C4_4  and  C5_5 
REMARK    3  A    between atoms: C5_5  and  C6_6 
REMARK    4  A    between atoms: C6_6  and  C7_7 
REMARK    5  A    between atoms: C7_7  and  C9_9 
REMARK    6  A    between atoms: C18_18  and  O1_19 
REMARK    7  A    between atoms: C21_23  and  O2_24 
REMARK    8  A    between atoms: C21_23  and  C22_26 
REMARK    9  A    between atoms: C24_28  and  O3_29 
REMARK   10  A    between atoms: C25_32  and  O5_33 
ROOT
HETATM    1  C9  UNL     1      18.051  -7.594  -6.276  1.00  0.00     0.034 C 
HETATM    2  C10 UNL     1      18.093  -8.510  -5.069  1.00  0.00     0.007 C 
HETATM    3  C11 UNL     1      17.118  -8.042  -4.081  1.00  0.00     0.006 C 
HETATM    4  C12 UNL     1      17.653  -7.524  -2.783  1.00  0.00     0.010 C 
HETATM    5  C13 UNL     1      19.043  -8.106  -2.583  1.00  0.00     0.050 C 
HETATM    6  C14 UNL     1      19.584  -7.886  -1.231  1.00  0.00     0.062 C 
HETATM    7  C15 UNL     1      20.430  -6.655  -1.058  1.00  0.00     0.032 C 
HETATM    8  C16 UNL     1      21.550  -6.708  -2.029  1.00  0.00     0.005 C 
HETATM    9  C17 UNL     1      21.301  -7.587  -3.224  1.00  0.00     0.039 C 
HETATM   10  C18 UNL     1      19.871  -7.457  -3.718  1.00  0.00     0.074 C 
HETATM   11  C19 UNL     1      19.548  -8.217  -4.930  1.00  0.00     0.028 C 
HETATM   12  C20 UNL     1      20.432  -9.496  -4.943  1.00  0.00     0.022 C 
HETATM   13  C21 UNL     1      19.560  -7.671  -6.294  1.00  0.00     0.104 C 
HETATM   14  S1  UNL     1      18.204  -7.873  -0.014  1.00  0.00    -0.147 SA
HETATM   15  C26 UNL     1      18.288  -9.582   0.633  1.00  0.00     0.086 C 
HETATM   16  C27 UNL     1      19.757  -9.771   0.932  1.00  0.00     0.086 C 
HETATM   17  S2  UNL     1      20.540  -9.300  -0.613  1.00  0.00    -0.147 SA
ENDROOT
BRANCH  13  18
HETATM   18  O2  UNL     1      19.846  -8.647  -7.293  1.00  0.00    -0.383 OA
ATOM     19  H2  UNL     1      20.792  -8.719  -7.281  1.00  0.00     0.211 HD
ENDBRANCH  13  18
BRANCH  13  20
HETATM   20  C22 UNL     1      20.226  -6.404  -6.631  1.00  0.00     0.040 A 
HETATM   21  C23 UNL     1      19.652  -5.182  -6.907  1.00  0.00     0.079 A 
HETATM   22  C24 UNL     1      20.655  -4.300  -7.147  1.00  0.00     0.186 A 
HETATM   23  O4  UNL     1      21.761  -4.942  -7.027  1.00  0.00    -0.264 OA
HETATM   24  C25 UNL     1      21.582  -6.198  -6.722  1.00  0.00     0.195 A 
BRANCH  22  25
HETATM   25  O3  UNL     1      20.493  -2.944  -7.467  1.00  0.00    -0.341 OA
ATOM     26  H3  UNL     1      20.756  -2.532  -8.282  1.00  0.00     0.220 HD
ENDBRANCH  22  25
BRANCH  24  27
HETATM   27  O5  UNL     1      22.647  -7.070  -6.548  1.00  0.00    -0.340 OA
ATOM     28  H5  UNL     1      23.471  -7.147  -7.016  1.00  0.00     0.220 HD
ENDBRANCH  24  27
ENDBRANCH  13  20
BRANCH   1  29
HETATM   29  C7  UNL     1      17.252  -8.010  -7.425  1.00  0.00    -0.011 C 
HETATM   30  C8  UNL     1      17.260  -7.112  -8.630  1.00  0.00     0.010 C 
BRANCH  29  31
HETATM   31  C6  UNL     1      15.821  -8.375  -7.136  1.00  0.00     0.005 C 
BRANCH  31  32
HETATM   32  C5  UNL     1      15.056  -7.183  -6.584  1.00  0.00     0.001 C 
BRANCH  32  33
HETATM   33  C4  UNL     1      13.795  -6.932  -7.385  1.00  0.00     0.004 C 
BRANCH  33  34
HETATM   34  C2  UNL     1      13.444  -5.485  -7.463  1.00  0.00    -0.023 C 
HETATM   35  C1  UNL     1      14.113  -4.703  -6.364  1.00  0.00     0.009 C 
HETATM   36  C3  UNL     1      11.978  -5.210  -7.410  1.00  0.00     0.009 C 
ENDBRANCH  33  34
ENDBRANCH  32  33
ENDBRANCH  31  32
ENDBRANCH  29  31
ENDBRANCH   1  29
BRANCH  10  37
HETATM   37  O1  UNL     1      19.512  -6.129  -3.716  1.00  0.00    -0.388 OA
ATOM     38  H1  UNL     1      18.666  -6.096  -4.147  1.00  0.00     0.210 HD
ENDBRANCH  10  37
TORSDOF 10
ENDMDL
MODEL 4
REMARK VINA RESULT: -8.355298574      3.384      7.551
REMARK  10 active torsions:
REMARK  status: ('A' for Active; 'I' for Inactive)
REMARK    1  A    between atoms: C2_2  and  C4_4 
REMARK    2  A    between atoms: C4_4  and  C5_5 
REMARK    3  A    between atoms: C5_5  and  C6_6 
REMARK    4  A    between atoms: C6_6  and  C7_7 
REMARK    5  A    between atoms: C7_7  and  C9_9 
REMARK    6  A    between atoms: C18_18  and  O1_19 
REMARK    7  A    between atoms: C21_23  and  O2_24 
REMARK    8  A    between atoms: C21_23  and  C22_26 
REMARK    9  A    between atoms: C24_28  and  O3_29 
REMARK   10  A    between atoms: C25_32  and  O5_33 
ROOT
HETATM    1  C9  UNL     1      16.667  -7.288  -5.410  1.00  0.00     0.034 C 
HETATM    2  C10 UNL     1      17.153  -8.316  -4.406  1.00  0.00     0.007 C 
HETATM    3  C11 UNL     1      16.502  -8.070  -3.118  1.00  0.00     0.006 C 
HETATM    4  C12 UNL     1      17.374  -7.634  -1.982  1.00  0.00     0.010 C 
HETATM    5  C13 UNL     1      18.797  -8.071  -2.289  1.00  0.00     0.050 C 
HETATM    6  C14 UNL     1      19.714  -7.934  -1.144  1.00  0.00     0.062 C 
HETATM    7  C15 UNL     1      20.475  -6.640  -1.068  1.00  0.00     0.032 C 
HETATM    8  C16 UNL     1      21.237  -6.460  -2.327  1.00  0.00     0.005 C 
HETATM    9  C17 UNL     1      20.696  -7.231  -3.500  1.00  0.00     0.039 C 
HETATM   10  C18 UNL     1      19.178  -7.215  -3.520  1.00  0.00     0.074 C 
HETATM   11  C19 UNL     1      18.552  -7.875  -4.671  1.00  0.00     0.028 C 
HETATM   12  C20 UNL     1      19.484  -9.035  -5.123  1.00  0.00     0.022 C 
HETATM   13  C21 UNL     1      18.097  -7.190  -5.889  1.00  0.00     0.104 C 
HETATM   14  S1  UNL     1      18.786  -8.208   0.420  1.00  0.00    -0.147 SA
HETATM   15  C26 UNL     1      19.198  -9.954   0.774  1.00  0.00     0.086 C 
HETATM   16  C27 UNL     1      20.696 -10.005   0.590  1.00  0.00     0.086 C 
HETATM   17  S2  UNL     1      20.920  -9.286  -1.039  1.00  0.00    -0.147 SA
ENDROOT
BRANCH  13  18
HETATM   18  O2  UNL     1      18.131  -8.015  -7.051  1.00  0.00    -0.383 OA
ATOM     19  H2  UNL     1      18.991  -7.856  -7.421  1.00  0.00     0.211 HD
ENDBRANCH  13  18
BRANCH  13  20
HETATM   20  C22 UNL     1      18.526  -5.826  -6.235  1.00  0.00     0.040 A 
HETATM   21  C23 UNL     1      17.854  -4.640  -6.032  1.00  0.00     0.079 A 
HETATM   22  C24 UNL     1      18.640  -3.636  -6.497  1.00  0.00     0.186 A 
HETATM   23  O4  UNL     1      19.715  -4.175  -6.950  1.00  0.00    -0.264 OA
HETATM   24  C25 UNL     1      19.715  -5.474  -6.828  1.00  0.00     0.195 A 
BRANCH  22  25
HETATM   25  O3  UNL     1      18.321  -2.271  -6.477  1.00  0.00    -0.341 OA
ATOM     26  H3  UNL     1      18.913  -1.560  -6.696  1.00  0.00     0.220 HD
ENDBRANCH  22  25
BRANCH  24  27
HETATM   27  O5  UNL     1      20.781  -6.251  -7.257  1.00  0.00    -0.340 OA
ATOM     28  H5  UNL     1      21.576  -6.015  -7.721  1.00  0.00     0.220 HD
ENDBRANCH  24  27
ENDBRANCH  13  20
BRANCH   1  29
HETATM   29  C7  UNL     1      15.584  -7.670  -6.312  1.00  0.00    -0.011 C 
HETATM   30  C8  UNL     1      15.794  -8.894  -7.157  1.00  0.00     0.010 C 
BRANCH  29  31
HETATM   31  C6  UNL     1      15.056  -6.581  -7.206  1.00  0.00     0.005 C 
BRANCH  31  32
HETATM   32  C5  UNL     1      13.572  -6.769  -7.476  1.00  0.00     0.001 C 
BRANCH  32  33
HETATM   33  C4  UNL     1      12.853  -5.436  -7.499  1.00  0.00     0.004 C 
BRANCH  33  34
HETATM   34  C2  UNL     1      11.522  -5.514  -8.169  1.00  0.00    -0.023 C 
HETATM   35  C1  UNL     1      10.945  -6.901  -8.071  1.00  0.00     0.009 C 
HETATM   36  C3  UNL     1      11.540  -5.112  -9.607  1.00  0.00     0.009 C 
ENDBRANCH  33  34
ENDBRANCH  32  33
ENDBRANCH  31  32
ENDBRANCH  29  31
ENDBRANCH   1  29
BRANCH  10  37
HETATM   37  O1  UNL     1      18.737  -5.944  -3.231  1.00  0.00    -0.388 OA
ATOM     38  H1  UNL     1      18.094  -5.742  -3.900  1.00  0.00     0.210 HD
ENDBRANCH  10  37
TORSDOF 10
ENDMDL
MODEL 5
REMARK VINA RESULT: -8.022554140      4.281      8.176
REMARK  10 active torsions:
REMARK  status: ('A' for Active; 'I' for Inactive)
REMARK    1  A    between atoms: C2_2  and  C4_4 
REMARK    2  A    between atoms: C4_4  and  C5_5 
REMARK    3  A    between atoms: C5_5  and  C6_6 
REMARK    4  A    between atoms: C6_6  and  C7_7 
REMARK    5  A    between atoms: C7_7  and  C9_9 
REMARK    6  A    between atoms: C18_18  and  O1_19 
REMARK    7  A    between atoms: C21_23  and  O2_24 
REMARK    8  A    between atoms: C21_23  and  C22_26 
REMARK    9  A    between atoms: C24_28  and  O3_29 
REMARK   10  A    between atoms: C25_32  and  O5_33 
ROOT
HETATM    1  C9  UNL     1      16.837  -6.062  -6.895  1.00  0.00     0.034 C 
HETATM    2  C10 UNL     1      17.367  -7.472  -7.070  1.00  0.00     0.007 C 
HETATM    3  C11 UNL     1      17.636  -8.047  -5.751  1.00  0.00     0.006 C 
HETATM    4  C12 UNL     1      19.063  -8.344  -5.411  1.00  0.00     0.010 C 
HETATM    5  C13 UNL     1      19.835  -8.483  -6.713  1.00  0.00     0.050 C 
HETATM    6  C14 UNL     1      21.194  -9.025  -6.536  1.00  0.00     0.062 C 
HETATM    7  C15 UNL     1      22.288  -8.007  -6.375  1.00  0.00     0.032 C 
HETATM    8  C16 UNL     1      22.273  -7.102  -7.550  1.00  0.00     0.005 C 
HETATM    9  C17 UNL     1      20.959  -7.047  -8.280  1.00  0.00     0.039 C 
HETATM   10  C18 UNL     1      19.788  -7.057  -7.312  1.00  0.00     0.074 C 
HETATM   11  C19 UNL     1      18.461  -6.927  -7.923  1.00  0.00     0.028 C 
HETATM   12  C20 UNL     1      18.517  -7.576  -9.335  1.00  0.00     0.022 C 
HETATM   13  C21 UNL     1      17.717  -5.667  -8.058  1.00  0.00     0.104 C 
HETATM   14  S1  UNL     1      21.207 -10.189  -5.112  1.00  0.00    -0.147 SA
HETATM   15  C26 UNL     1      21.077 -11.799  -5.971  1.00  0.00     0.086 C 
HETATM   16  C27 UNL     1      22.112 -11.697  -7.066  1.00  0.00     0.086 C 
HETATM   17  S2  UNL     1      21.685 -10.151  -7.872  1.00  0.00    -0.147 SA
ENDROOT
BRANCH  13  18
HETATM   18  O2  UNL     1      16.831  -5.648  -9.174  1.00  0.00    -0.383 OA
ATOM     19  H2  UNL     1      17.163  -6.331  -9.745  1.00  0.00     0.211 HD
ENDBRANCH  13  18
BRANCH  13  20
HETATM   20  C22 UNL     1      18.358  -4.351  -7.911  1.00  0.00     0.040 A 
HETATM   21  C23 UNL     1      18.532  -3.608  -6.764  1.00  0.00     0.079 A 
HETATM   22  C24 UNL     1      19.188  -2.470  -7.106  1.00  0.00     0.186 A 
HETATM   23  O4  UNL     1      19.397  -2.519  -8.373  1.00  0.00    -0.264 OA
HETATM   24  C25 UNL     1      18.930  -3.608  -8.916  1.00  0.00     0.195 A 
BRANCH  22  25
HETATM   25  O3  UNL     1      19.559  -1.443  -6.225  1.00  0.00    -0.341 OA
ATOM     26  H3  UNL     1      19.476  -0.511  -6.394  1.00  0.00     0.220 HD
ENDBRANCH  22  25
BRANCH  24  27
HETATM   27  O5  UNL     1      19.048  -3.859 -10.276  1.00  0.00    -0.340 OA
ATOM     28  H5  UNL     1      18.534  -3.550 -11.012  1.00  0.00     0.220 HD
ENDBRANCH  24  27
ENDBRANCH  13  20
BRANCH   1  29
HETATM   29  C7  UNL     1      15.390  -5.864  -6.932  1.00  0.00    -0.011 C 
HETATM   30  C8  UNL     1      14.766  -5.142  -5.771  1.00  0.00     0.010 C 
BRANCH  29  31
HETATM   31  C6  UNL     1      14.564  -7.091  -7.206  1.00  0.00     0.005 C 
BRANCH  31  32
HETATM   32  C5  UNL     1      13.093  -6.736  -7.356  1.00  0.00     0.001 C 
BRANCH  32  33
HETATM   33  C4  UNL     1      12.890  -5.740  -8.480  1.00  0.00     0.004 C 
BRANCH  33  34
HETATM   34  C2  UNL     1      11.449  -5.501  -8.780  1.00  0.00    -0.023 C 
HETATM   35  C1  UNL     1      10.615  -6.707  -8.437  1.00  0.00     0.009 C 
HETATM   36  C3  UNL     1      11.177  -5.130 -10.200  1.00  0.00     0.009 C 
ENDBRANCH  33  34
ENDBRANCH  32  33
ENDBRANCH  31  32
ENDBRANCH  29  31
ENDBRANCH   1  29
BRANCH  10  37
HETATM   37  O1  UNL     1      20.063  -6.212  -6.263  1.00  0.00    -0.388 OA
ATOM     38  H1  UNL     1      19.266  -5.714  -6.124  1.00  0.00     0.210 HD
ENDBRANCH  10  37
TORSDOF 10
ENDMDL
