MODEL 1
REMARK VINA RESULT: -8.880266440      0.000      0.000
REMARK  12 active torsions:
REMARK  status: ('A' for Active; 'I' for Inactive)
REMARK    1  A    between atoms: O1_2  and  C2_3 
REMARK    2  A    between atoms: C4_5  and  C5_6 
REMARK    3  A    between atoms: C6_7  and  C7_8 
REMARK       I    between atoms: C7_8  and  N1_10 
REMARK    4  A    between atoms: N1_10  and  C8_12 
REMARK    5  A    between atoms: C8_12  and  C9_13 
REMARK    6  A    between atoms: C9_13  and  C10_14 
REMARK    7  A    between atoms: C10_14  and  N2_15 
REMARK    8  A    between atoms: N2_15  and  C11_17 
REMARK    9  A    between atoms: C14_20  and  N3_21 
REMARK   10  A    between atoms: C20_27  and  N4_28 
REMARK   11  A    between atoms: C26_39  and  O3_40 
REMARK   12  A    between atoms: C28_42  and  O4_43 
ROOT
HETATM    1  N2  UNL     1     -10.176  15.968  23.194  1.00  0.00    -0.376 N 
ATOM      2  H2  UNL     1     -10.454  15.200  22.583  1.00  0.00     0.161 HD
ENDROOT
BRANCH   1   3
HETATM    3  C10 UNL     1     -11.029  16.210  24.310  1.00  0.00     0.123 C 
BRANCH   3   4
HETATM    4  C9  UNL     1     -11.471  14.828  24.817  1.00  0.00     0.039 C 
BRANCH   4   5
HETATM    5  C8  UNL     1     -10.393  14.214  25.656  1.00  0.00     0.124 C 
BRANCH   5   6
HETATM    6  N1  UNL     1      -9.806  15.086  26.626  1.00  0.00    -0.358 N 
HETATM    7  C7  UNL     1      -8.514  14.827  27.260  1.00  0.00     0.241 C 
HETATM    8  O2  UNL     1      -7.992  13.781  26.869  1.00  0.00    -0.269 OA
ATOM      9  H1  UNL     1     -10.315  15.929  26.889  1.00  0.00     0.162 HD
BRANCH   7  10
HETATM   10  C6  UNL     1      -8.039  15.771  28.205  1.00  0.00     0.075 C 
HETATM   11  C5  UNL     1      -8.418  16.164  29.343  1.00  0.00     0.017 C 
BRANCH  11  12
HETATM   12  C4  UNL     1      -9.494  15.871  30.227  1.00  0.00    -0.031 A 
HETATM   13  C3  UNL     1      -9.406  16.419  31.544  1.00  0.00     0.051 A 
HETATM   14  C2  UNL     1     -10.413  16.260  32.453  1.00  0.00     0.105 A 
HETATM   15  C28 UNL     1     -11.561  15.564  32.140  1.00  0.00     0.135 A 
HETATM   16  C26 UNL     1     -11.698  15.020  30.897  1.00  0.00     0.105 A 
HETATM   17  C25 UNL     1     -10.653  15.193  29.971  1.00  0.00     0.051 A 
BRANCH  14  18
HETATM   18  O1  UNL     1     -10.350  16.786  33.748  1.00  0.00    -0.353 OA
HETATM   19  C1  UNL     1      -9.263  16.371  34.561  1.00  0.00     0.210 C 
ENDBRANCH  14  18
BRANCH  15  20
HETATM   20  O4  UNL     1     -12.571  15.410  33.071  1.00  0.00    -0.351 OA
HETATM   21  C29 UNL     1     -12.516  14.217  33.868  1.00  0.00     0.210 C 
ENDBRANCH  15  20
BRANCH  16  22
HETATM   22  O3  UNL     1     -12.844  14.317  30.561  1.00  0.00    -0.353 OA
HETATM   23  C27 UNL     1     -13.121  14.123  29.192  1.00  0.00     0.210 C 
ENDBRANCH  16  22
ENDBRANCH  11  12
ENDBRANCH   7  10
ENDBRANCH   5   6
ENDBRANCH   4   5
ENDBRANCH   3   4
ENDBRANCH   1   3
BRANCH   1  24
HETATM   24  C11 UNL     1      -9.117  16.582  22.862  1.00  0.00     0.102 A 
HETATM   25  C12 UNL     1      -8.796  16.941  21.578  1.00  0.00     0.050 A 
HETATM   26  C13 UNL     1      -7.650  17.597  21.258  1.00  0.00     0.037 A 
HETATM   27  C14 UNL     1      -6.746  17.931  22.274  1.00  0.00     0.074 A 
HETATM   28  C20 UNL     1      -7.063  17.575  23.546  1.00  0.00     0.132 A 
HETATM   29  N6  UNL     1      -8.232  16.914  23.815  1.00  0.00    -0.327 N 
ATOM     30  H6  UNL     1      -8.439  16.663  24.781  1.00  0.00     0.169 HD
BRANCH  27  31
HETATM   31  N3  UNL     1      -5.598  18.623  21.856  1.00  0.00    -0.378 N 
HETATM   32  C15 UNL     1      -5.405  20.006  22.166  1.00  0.00     0.123 C 
HETATM   33  C16 UNL     1      -4.038  20.383  22.634  1.00  0.00     0.020 C 
HETATM   34  C17 UNL     1      -2.970  19.397  22.289  1.00  0.00     0.003 C 
HETATM   35  C18 UNL     1      -3.266  18.597  21.055  1.00  0.00     0.020 C 
HETATM   36  C19 UNL     1      -4.596  17.917  21.091  1.00  0.00     0.123 C 
ENDBRANCH  27  31
BRANCH  28  37
HETATM   37  N4  UNL     1      -6.185  17.868  24.618  1.00  0.00    -0.362 N 
HETATM   38  C21 UNL     1      -6.362  18.972  25.515  1.00  0.00     0.152 C 
HETATM   39  C22 UNL     1      -6.151  18.505  26.945  1.00  0.00     0.252 C 
HETATM   40  N5  UNL     1      -4.821  17.964  27.023  1.00  0.00    -0.072 N 
HETATM   41  C23 UNL     1      -4.693  16.776  26.232  1.00  0.00     0.252 C 
ATOM     42  H52 UNL     1      -4.120  18.659  26.769  1.00  0.00     0.277 HD
ATOM     43  H51 UNL     1      -4.540  17.801  27.990  1.00  0.00     0.277 HD
HETATM   44  C24 UNL     1      -5.055  16.949  24.784  1.00  0.00     0.152 C 
ENDBRANCH  28  37
ENDBRANCH   1  24
TORSDOF 12
ENDMDL
MODEL 2
REMARK VINA RESULT: -8.777101621      3.716      9.881
REMARK  12 active torsions:
REMARK  status: ('A' for Active; 'I' for Inactive)
REMARK    1  A    between atoms: O1_2  and  C2_3 
REMARK    2  A    between atoms: C4_5  and  C5_6 
REMARK    3  A    between atoms: C6_7  and  C7_8 
REMARK       I    between atoms: C7_8  and  N1_10 
REMARK    4  A    between atoms: N1_10  and  C8_12 
REMARK    5  A    between atoms: C8_12  and  C9_13 
REMARK    6  A    between atoms: C9_13  and  C10_14 
REMARK    7  A    between atoms: C10_14  and  N2_15 
REMARK    8  A    between atoms: N2_15  and  C11_17 
REMARK    9  A    between atoms: C14_20  and  N3_21 
REMARK   10  A    between atoms: C20_27  and  N4_28 
REMARK   11  A    between atoms: C26_39  and  O3_40 
REMARK   12  A    between atoms: C28_42  and  O4_43 
ROOT
HETATM    1  N2  UNL     1     -10.115  17.448  24.989  1.00  0.00    -0.376 N 
ATOM      2  H2  UNL     1     -10.519  18.380  24.895  1.00  0.00     0.161 HD
ENDROOT
BRANCH   1   3
HETATM    3  C10 UNL     1      -9.601  16.871  23.791  1.00  0.00     0.123 C 
BRANCH   3   4
HETATM    4  C9  UNL     1     -10.712  15.959  23.246  1.00  0.00     0.039 C 
BRANCH   4   5
HETATM    5  C8  UNL     1     -10.703  15.969  21.748  1.00  0.00     0.124 C 
BRANCH   5   6
HETATM    6  N1  UNL     1      -9.429  15.724  21.146  1.00  0.00    -0.358 N 
HETATM    7  C7  UNL     1      -8.940  16.457  19.979  1.00  0.00     0.241 C 
HETATM    8  O2  UNL     1      -9.744  17.300  19.574  1.00  0.00    -0.269 OA
ATOM      9  H1  UNL     1      -8.833  15.003  21.551  1.00  0.00     0.162 HD
BRANCH   7  10
HETATM   10  C6  UNL     1      -7.657  16.124  19.477  1.00  0.00     0.075 C 
HETATM   11  C5  UNL     1      -6.470  16.411  19.798  1.00  0.00     0.017 C 
BRANCH  11  12
HETATM   12  C4  UNL     1      -5.838  17.203  20.796  1.00  0.00    -0.031 A 
HETATM   13  C3  UNL     1      -4.623  17.855  20.419  1.00  0.00     0.051 A 
HETATM   14  C2  UNL     1      -3.968  18.696  21.274  1.00  0.00     0.105 A 
HETATM   15  C28 UNL     1      -4.450  18.953  22.540  1.00  0.00     0.135 A 
HETATM   16  C26 UNL     1      -5.605  18.357  22.951  1.00  0.00     0.105 A 
HETATM   17  C25 UNL     1      -6.269  17.495  22.060  1.00  0.00     0.051 A 
BRANCH  14  18
HETATM   18  O1  UNL     1      -2.778  19.345  20.928  1.00  0.00    -0.353 OA
HETATM   19  C1  UNL     1      -1.657  18.526  20.637  1.00  0.00     0.210 C 
ENDBRANCH  14  18
BRANCH  15  20
HETATM   20  O4  UNL     1      -3.774  19.805  23.394  1.00  0.00    -0.351 OA
HETATM   21  C29 UNL     1      -4.192  21.178  23.371  1.00  0.00     0.210 C 
ENDBRANCH  15  20
BRANCH  16  22
HETATM   22  O3  UNL     1      -6.107  18.602  24.220  1.00  0.00    -0.353 OA
HETATM   23  C27 UNL     1      -6.110  17.536  25.145  1.00  0.00     0.210 C 
ENDBRANCH  16  22
ENDBRANCH  11  12
ENDBRANCH   7  10
ENDBRANCH   5   6
ENDBRANCH   4   5
ENDBRANCH   3   4
ENDBRANCH   1   3
BRANCH   1  24
HETATM   24  C11 UNL     1     -10.135  16.954  26.158  1.00  0.00     0.102 A 
HETATM   25  C12 UNL     1      -9.273  17.303  27.164  1.00  0.00     0.050 A 
HETATM   26  C13 UNL     1      -9.322  16.751  28.405  1.00  0.00     0.037 A 
HETATM   27  C14 UNL     1     -10.292  15.781  28.685  1.00  0.00     0.074 A 
HETATM   28  C20 UNL     1     -11.147  15.434  27.687  1.00  0.00     0.132 A 
HETATM   29  N6  UNL     1     -11.054  16.021  26.454  1.00  0.00    -0.327 N 
ATOM     30  H6  UNL     1     -11.712  15.737  25.728  1.00  0.00     0.169 HD
BRANCH  27  31
HETATM   31  N3  UNL     1     -10.282  15.277  29.996  1.00  0.00    -0.378 N 
HETATM   32  C15 UNL     1      -9.521  14.117  30.344  1.00  0.00     0.123 C 
HETATM   33  C16 UNL     1      -8.749  14.205  31.620  1.00  0.00     0.020 C 
HETATM   34  C17 UNL     1      -9.218  15.269  32.557  1.00  0.00     0.003 C 
HETATM   35  C18 UNL     1     -10.672  15.604  32.408  1.00  0.00     0.020 C 
HETATM   36  C19 UNL     1     -11.064  15.948  31.008  1.00  0.00     0.123 C 
ENDBRANCH  27  31
BRANCH  28  37
HETATM   37  N4  UNL     1     -12.142  14.448  27.898  1.00  0.00    -0.362 N 
HETATM   38  C21 UNL     1     -11.917  13.042  27.737  1.00  0.00     0.152 C 
HETATM   39  C22 UNL     1     -12.514  12.292  28.916  1.00  0.00     0.252 C 
HETATM   40  N5  UNL     1     -13.916  12.607  28.953  1.00  0.00    -0.072 N 
HETATM   41  C23 UNL     1     -14.134  13.990  29.257  1.00  0.00     0.252 C 
ATOM     42  H52 UNL     1     -14.383  12.336  28.088  1.00  0.00     0.277 HD
ATOM     43  H51 UNL     1     -14.419  11.999  29.600  1.00  0.00     0.277 HD
HETATM   44  C24 UNL     1     -13.454  14.948  28.320  1.00  0.00     0.152 C 
ENDBRANCH  28  37
ENDBRANCH   1  24
TORSDOF 12
ENDMDL
MODEL 3
REMARK VINA RESULT: -8.659386319      0.200      2.061
REMARK  12 active torsions:
REMARK  status: ('A' for Active; 'I' for Inactive)
REMARK    1  A    between atoms: O1_2  and  C2_3 
REMARK    2  A    between atoms: C4_5  and  C5_6 
REMARK    3  A    between atoms: C6_7  and  C7_8 
REMARK       I    between atoms: C7_8  and  N1_10 
REMARK    4  A    between atoms: N1_10  and  C8_12 
REMARK    5  A    between atoms: C8_12  and  C9_13 
REMARK    6  A    between atoms: C9_13  and  C10_14 
REMARK    7  A    between atoms: C10_14  and  N2_15 
REMARK    8  A    between atoms: N2_15  and  C11_17 
REMARK    9  A    between atoms: C14_20  and  N3_21 
REMARK   10  A    between atoms: C20_27  and  N4_28 
REMARK   11  A    between atoms: C26_39  and  O3_40 
REMARK   12  A    between atoms: C28_42  and  O4_43 
ROOT
HETATM    1  N2  UNL     1     -10.112  15.957  23.271  1.00  0.00    -0.376 N 
ATOM      2  H2  UNL     1     -10.403  15.202  22.650  1.00  0.00     0.161 HD
ENDROOT
BRANCH   1   3
HETATM    3  C10 UNL     1     -10.940  16.176  24.411  1.00  0.00     0.123 C 
BRANCH   3   4
HETATM    4  C9  UNL     1     -11.425  14.788  24.859  1.00  0.00     0.039 C 
BRANCH   4   5
HETATM    5  C8  UNL     1     -10.462  14.193  25.841  1.00  0.00     0.124 C 
BRANCH   5   6
HETATM    6  N1  UNL     1      -9.809  15.134  26.698  1.00  0.00    -0.358 N 
HETATM    7  C7  UNL     1      -8.525  14.872  27.346  1.00  0.00     0.241 C 
HETATM    8  O2  UNL     1      -8.074  13.757  27.076  1.00  0.00    -0.269 OA
ATOM      9  H1  UNL     1     -10.262  16.033  26.865  1.00  0.00     0.162 HD
BRANCH   7  10
HETATM   10  C6  UNL     1      -7.980  15.888  28.171  1.00  0.00     0.075 C 
HETATM   11  C5  UNL     1      -8.295  16.406  29.278  1.00  0.00     0.017 C 
BRANCH  11  12
HETATM   12  C4  UNL     1      -9.339  16.240  30.230  1.00  0.00    -0.031 A 
HETATM   13  C3  UNL     1     -10.494  15.520  29.794  1.00  0.00     0.051 A 
HETATM   14  C2  UNL     1     -11.526  15.241  30.644  1.00  0.00     0.105 A 
HETATM   15  C28 UNL     1     -11.500  15.643  31.963  1.00  0.00     0.135 A 
HETATM   16  C26 UNL     1     -10.422  16.333  32.432  1.00  0.00     0.105 A 
HETATM   17  C25 UNL     1      -9.367  16.612  31.546  1.00  0.00     0.051 A 
BRANCH  14  18
HETATM   18  O1  UNL     1     -12.666  14.539  30.240  1.00  0.00    -0.353 OA
HETATM   19  C1  UNL     1     -12.796  14.260  28.855  1.00  0.00     0.210 C 
ENDBRANCH  14  18
BRANCH  15  20
HETATM   20  O4  UNL     1     -12.553  15.354  32.811  1.00  0.00    -0.351 OA
HETATM   21  C29 UNL     1     -12.438  14.138  33.564  1.00  0.00     0.210 C 
ENDBRANCH  15  20
BRANCH  16  22
HETATM   22  O3  UNL     1     -10.376  16.746  33.755  1.00  0.00    -0.353 OA
HETATM   23  C27 UNL     1      -9.299  16.297  34.548  1.00  0.00     0.210 C 
ENDBRANCH  16  22
ENDBRANCH  11  12
ENDBRANCH   7  10
ENDBRANCH   5   6
ENDBRANCH   4   5
ENDBRANCH   3   4
ENDBRANCH   1   3
BRANCH   1  24
HETATM   24  C11 UNL     1      -9.059  16.578  22.929  1.00  0.00     0.102 A 
HETATM   25  C12 UNL     1      -8.755  16.941  21.643  1.00  0.00     0.050 A 
HETATM   26  C13 UNL     1      -7.616  17.605  21.312  1.00  0.00     0.037 A 
HETATM   27  C14 UNL     1      -6.703  17.941  22.318  1.00  0.00     0.074 A 
HETATM   28  C20 UNL     1      -7.003  17.580  23.593  1.00  0.00     0.132 A 
HETATM   29  N6  UNL     1      -8.165  16.912  23.873  1.00  0.00    -0.327 N 
ATOM     30  H6  UNL     1      -8.360  16.657  24.841  1.00  0.00     0.169 HD
BRANCH  27  31
HETATM   31  N3  UNL     1      -5.563  18.640  21.889  1.00  0.00    -0.378 N 
HETATM   32  C15 UNL     1      -5.401  20.037  22.151  1.00  0.00     0.123 C 
HETATM   33  C16 UNL     1      -4.047  20.459  22.621  1.00  0.00     0.020 C 
HETATM   34  C17 UNL     1      -2.957  19.482  22.325  1.00  0.00     0.003 C 
HETATM   35  C18 UNL     1      -3.221  18.632  21.117  1.00  0.00     0.020 C 
HETATM   36  C19 UNL     1      -4.538  17.928  21.162  1.00  0.00     0.123 C 
ENDBRANCH  27  31
BRANCH  28  37
HETATM   37  N4  UNL     1      -6.115  17.876  24.656  1.00  0.00    -0.362 N 
HETATM   38  C21 UNL     1      -6.222  19.040  25.485  1.00  0.00     0.152 C 
HETATM   39  C22 UNL     1      -6.054  18.645  26.942  1.00  0.00     0.252 C 
HETATM   40  N5  UNL     1      -4.765  18.020  27.066  1.00  0.00    -0.072 N 
HETATM   41  C23 UNL     1      -4.713  16.781  26.347  1.00  0.00     0.252 C 
ATOM     42  H52 UNL     1      -4.016  18.649  26.780  1.00  0.00     0.277 HD
ATOM     43  H51 UNL     1      -4.503  17.895  28.044  1.00  0.00     0.277 HD
HETATM   44  C24 UNL     1      -5.052  16.893  24.888  1.00  0.00     0.152 C 
ENDBRANCH  28  37
ENDBRANCH   1  24
TORSDOF 12
ENDMDL
MODEL 4
REMARK VINA RESULT: -8.540735228      3.486     10.403
REMARK  12 active torsions:
REMARK  status: ('A' for Active; 'I' for Inactive)
REMARK    1  A    between atoms: O1_2  and  C2_3 
REMARK    2  A    between atoms: C4_5  and  C5_6 
REMARK    3  A    between atoms: C6_7  and  C7_8 
REMARK       I    between atoms: C7_8  and  N1_10 
REMARK    4  A    between atoms: N1_10  and  C8_12 
REMARK    5  A    between atoms: C8_12  and  C9_13 
REMARK    6  A    between atoms: C9_13  and  C10_14 
REMARK    7  A    between atoms: C10_14  and  N2_15 
REMARK    8  A    between atoms: N2_15  and  C11_17 
REMARK    9  A    between atoms: C14_20  and  N3_21 
REMARK   10  A    between atoms: C20_27  and  N4_28 
REMARK   11  A    between atoms: C26_39  and  O3_40 
REMARK   12  A    between atoms: C28_42  and  O4_43 
ROOT
HETATM    1  N2  UNL     1      -9.314  17.210  25.775  1.00  0.00    -0.376 N 
ATOM      2  H2  UNL     1     -10.148  17.424  25.229  1.00  0.00     0.161 HD
ENDROOT
BRANCH   1   3
HETATM    3  C10 UNL     1      -8.068  17.464  25.130  1.00  0.00     0.123 C 
BRANCH   3   4
HETATM    4  C9  UNL     1      -7.448  16.087  24.845  1.00  0.00     0.039 C 
BRANCH   4   5
HETATM    5  C8  UNL     1      -8.446  15.198  24.166  1.00  0.00     0.124 C 
BRANCH   5   6
HETATM    6  N1  UNL     1      -8.632  15.448  22.771  1.00  0.00    -0.358 N 
HETATM    7  C7  UNL     1      -9.863  16.006  22.213  1.00  0.00     0.241 C 
HETATM    8  O2  UNL     1     -10.716  16.233  23.075  1.00  0.00    -0.269 OA
ATOM      9  H1  UNL     1      -7.868  15.226  22.133  1.00  0.00     0.162 HD
BRANCH   7  10
HETATM   10  C6  UNL     1      -9.923  16.210  20.812  1.00  0.00     0.075 C 
HETATM   11  C5  UNL     1      -9.084  16.503  19.915  1.00  0.00     0.017 C 
BRANCH  11  12
HETATM   12  C4  UNL     1      -7.689  16.777  19.862  1.00  0.00    -0.031 A 
HETATM   13  C3  UNL     1      -7.237  17.932  20.574  1.00  0.00     0.051 A 
HETATM   14  C2  UNL     1      -5.912  18.252  20.649  1.00  0.00     0.105 A 
HETATM   15  C28 UNL     1      -4.948  17.474  20.042  1.00  0.00     0.135 A 
HETATM   16  C26 UNL     1      -5.324  16.361  19.350  1.00  0.00     0.105 A 
HETATM   17  C25 UNL     1      -6.692  16.044  19.282  1.00  0.00     0.051 A 
BRANCH  14  18
HETATM   18  O1  UNL     1      -5.446  19.376  21.339  1.00  0.00    -0.353 OA
HETATM   19  C1  UNL     1      -5.445  19.310  22.756  1.00  0.00     0.210 C 
ENDBRANCH  14  18
BRANCH  15  20
HETATM   20  O4  UNL     1      -3.610  17.812  20.127  1.00  0.00    -0.351 OA
HETATM   21  C29 UNL     1      -2.868  17.180  21.180  1.00  0.00     0.210 C 
ENDBRANCH  15  20
BRANCH  16  22
HETATM   22  O3  UNL     1      -4.371  15.565  18.733  1.00  0.00    -0.353 OA
HETATM   23  C27 UNL     1      -4.076  15.822  17.377  1.00  0.00     0.210 C 
ENDBRANCH  16  22
ENDBRANCH  11  12
ENDBRANCH   7  10
ENDBRANCH   5   6
ENDBRANCH   4   5
ENDBRANCH   3   4
ENDBRANCH   1   3
BRANCH   1  24
HETATM   24  C11 UNL     1      -9.521  16.753  26.941  1.00  0.00     0.102 A 
HETATM   25  C12 UNL     1      -8.760  17.056  28.041  1.00  0.00     0.050 A 
HETATM   26  C13 UNL     1      -9.010  16.547  29.275  1.00  0.00     0.037 A 
HETATM   27  C14 UNL     1     -10.089  15.671  29.449  1.00  0.00     0.074 A 
HETATM   28  C20 UNL     1     -10.843  15.370  28.359  1.00  0.00     0.132 A 
HETATM   29  N6  UNL     1     -10.548  15.911  27.137  1.00  0.00    -0.327 N 
ATOM     30  H6  UNL     1     -11.134  15.664  26.340  1.00  0.00     0.169 HD
BRANCH  27  31
HETATM   31  N3  UNL     1     -10.284  15.207  30.760  1.00  0.00    -0.378 N 
HETATM   32  C15 UNL     1      -9.478  14.160  31.310  1.00  0.00     0.123 C 
HETATM   33  C16 UNL     1      -8.994  14.377  32.706  1.00  0.00     0.020 C 
HETATM   34  C17 UNL     1      -9.764  15.398  33.478  1.00  0.00     0.003 C 
HETATM   35  C18 UNL     1     -11.188  15.543  33.029  1.00  0.00     0.020 C 
HETATM   36  C19 UNL     1     -11.327  15.800  31.564  1.00  0.00     0.123 C 
ENDBRANCH  27  31
BRANCH  28  37
HETATM   37  N4  UNL     1     -11.939  14.479  28.463  1.00  0.00    -0.362 N 
HETATM   38  C21 UNL     1     -11.804  13.075  28.714  1.00  0.00     0.152 C 
HETATM   39  C22 UNL     1     -12.800  12.650  29.779  1.00  0.00     0.252 C 
HETATM   40  N5  UNL     1     -14.111  12.979  29.289  1.00  0.00    -0.072 N 
HETATM   41  C23 UNL     1     -14.286  14.397  29.176  1.00  0.00     0.252 C 
ATOM     42  H52 UNL     1     -14.310  12.507  28.407  1.00  0.00     0.277 HD
ATOM     43  H51 UNL     1     -14.841  12.558  29.863  1.00  0.00     0.277 HD
HETATM   44  C24 UNL     1     -13.266  15.084  28.312  1.00  0.00     0.152 C 
ENDBRANCH  28  37
ENDBRANCH   1  24
TORSDOF 12
ENDMDL
MODEL 5
REMARK VINA RESULT: -8.534797059      3.767      9.913
REMARK  12 active torsions:
REMARK  status: ('A' for Active; 'I' for Inactive)
REMARK    1  A    between atoms: O1_2  and  C2_3 
REMARK    2  A    between atoms: C4_5  and  C5_6 
REMARK    3  A    between atoms: C6_7  and  C7_8 
REMARK       I    between atoms: C7_8  and  N1_10 
REMARK    4  A    between atoms: N1_10  and  C8_12 
REMARK    5  A    between atoms: C8_12  and  C9_13 
REMARK    6  A    between atoms: C9_13  and  C10_14 
REMARK    7  A    between atoms: C10_14  and  N2_15 
REMARK    8  A    between atoms: N2_15  and  C11_17 
REMARK    9  A    between atoms: C14_20  and  N3_21 
REMARK   10  A    between atoms: C20_27  and  N4_28 
REMARK   11  A    between atoms: C26_39  and  O3_40 
REMARK   12  A    between atoms: C28_42  and  O4_43 
ROOT
HETATM    1  N2  UNL     1      -9.013  14.768  24.600  1.00  0.00    -0.376 N 
ATOM      2  H2  UNL     1      -8.889  13.827  24.226  1.00  0.00     0.161 HD
ENDROOT
BRANCH   1   3
HETATM    3  C10 UNL     1      -9.090  15.813  23.633  1.00  0.00     0.123 C 
BRANCH   3   4
HETATM    4  C9  UNL     1     -10.558  15.872  23.184  1.00  0.00     0.039 C 
BRANCH   4   5
HETATM    5  C8  UNL     1     -10.643  15.892  21.688  1.00  0.00     0.124 C 
BRANCH   5   6
HETATM    6  N1  UNL     1      -9.421  15.599  21.006  1.00  0.00    -0.358 N 
HETATM    7  C7  UNL     1      -8.887  16.426  19.925  1.00  0.00     0.241 C 
HETATM    8  O2  UNL     1      -9.604  17.396  19.668  1.00  0.00    -0.269 OA
ATOM      9  H1  UNL     1      -8.895  14.771  21.287  1.00  0.00     0.162 HD
BRANCH   7  10
HETATM   10  C6  UNL     1      -7.662  16.031  19.331  1.00  0.00     0.075 C 
HETATM   11  C5  UNL     1      -6.449  16.340  19.494  1.00  0.00     0.017 C 
BRANCH  11  12
HETATM   12  C4  UNL     1      -5.717  17.228  20.331  1.00  0.00    -0.031 A 
HETATM   13  C3  UNL     1      -6.252  17.462  21.635  1.00  0.00     0.051 A 
HETATM   14  C2  UNL     1      -5.598  18.241  22.547  1.00  0.00     0.105 A 
HETATM   15  C28 UNL     1      -4.390  18.836  22.249  1.00  0.00     0.135 A 
HETATM   16  C26 UNL     1      -3.834  18.645  21.019  1.00  0.00     0.105 A 
HETATM   17  C25 UNL     1      -4.519  17.840  20.091  1.00  0.00     0.051 A 
BRANCH  14  18
HETATM   18  O1  UNL     1      -6.101  18.485  23.829  1.00  0.00    -0.353 OA
HETATM   19  C1  UNL     1      -5.916  17.467  24.800  1.00  0.00     0.210 C 
ENDBRANCH  14  18
BRANCH  15  20
HETATM   20  O4  UNL     1      -3.740  19.623  23.182  1.00  0.00    -0.351 OA
HETATM   21  C29 UNL     1      -4.160  20.994  23.249  1.00  0.00     0.210 C 
ENDBRANCH  15  20
BRANCH  16  22
HETATM   22  O3  UNL     1      -2.621  19.235  20.699  1.00  0.00    -0.353 OA
HETATM   23  C27 UNL     1      -1.535  18.385  20.399  1.00  0.00     0.210 C 
ENDBRANCH  16  22
ENDBRANCH  11  12
ENDBRANCH   7  10
ENDBRANCH   5   6
ENDBRANCH   4   5
ENDBRANCH   3   4
ENDBRANCH   1   3
BRANCH   1  24
HETATM   24  C11 UNL     1      -9.079  14.856  25.864  1.00  0.00     0.102 A 
HETATM   25  C12 UNL     1      -8.028  15.198  26.675  1.00  0.00     0.050 A 
HETATM   26  C13 UNL     1      -8.135  15.280  28.027  1.00  0.00     0.037 A 
HETATM   27  C14 UNL     1      -9.366  15.006  28.635  1.00  0.00     0.074 A 
HETATM   28  C20 UNL     1     -10.407  14.666  27.831  1.00  0.00     0.132 A 
HETATM   29  N6  UNL     1     -10.246  14.597  26.474  1.00  0.00    -0.327 N 
ATOM     30  H6  UNL     1     -11.049  14.339  25.900  1.00  0.00     0.169 HD
BRANCH  27  31
HETATM   31  N3  UNL     1      -9.389  15.131  30.034  1.00  0.00    -0.378 N 
HETATM   32  C15 UNL     1      -9.999  16.257  30.672  1.00  0.00     0.123 C 
HETATM   33  C16 UNL     1     -10.857  15.947  31.856  1.00  0.00     0.020 C 
HETATM   34  C17 UNL     1     -10.604  14.610  32.471  1.00  0.00     0.003 C 
HETATM   35  C18 UNL     1      -9.205  14.109  32.270  1.00  0.00     0.020 C 
HETATM   36  C19 UNL     1      -8.776  14.100  30.838  1.00  0.00     0.123 C 
ENDBRANCH  27  31
BRANCH  28  37
HETATM   37  N4  UNL     1     -11.675  14.360  28.383  1.00  0.00    -0.362 N 
HETATM   38  C21 UNL     1     -12.781  15.271  28.392  1.00  0.00     0.152 C 
HETATM   39  C22 UNL     1     -14.043  14.546  27.957  1.00  0.00     0.252 C 
HETATM   40  N5  UNL     1     -14.243  13.456  28.874  1.00  0.00    -0.072 N 
HETATM   41  C23 UNL     1     -13.204  12.476  28.757  1.00  0.00     0.252 C 
ATOM     42  H52 UNL     1     -14.338  13.788  29.833  1.00  0.00     0.277 HD
ATOM     43  H51 UNL     1     -15.166  13.037  28.760  1.00  0.00     0.277 HD
HETATM   44  C24 UNL     1     -11.815  13.016  28.951  1.00  0.00     0.152 C 
ENDBRANCH  28  37
ENDBRANCH   1  24
TORSDOF 12
ENDMDL
