MODEL 1
REMARK VINA RESULT: -8.463095552      0.000      0.000
REMARK  13 active torsions:
REMARK  status: ('A' for Active; 'I' for Inactive)
REMARK    1  A    between atoms: O1_2  and  C2_3 
REMARK    2  A    between atoms: C3_4  and  N1_5 
REMARK    3  A    between atoms: N1_5  and  C4_7 
REMARK    4  A    between atoms: C8_15  and  O2_16 
REMARK    5  A    between atoms: O2_16  and  C9_17 
REMARK    6  A    between atoms: C9_17  and  C10_18 
REMARK    7  A    between atoms: C10_18  and  N4_19 
REMARK    8  A    between atoms: C15_24  and  O3_25 
REMARK    9  A    between atoms: O3_25  and  C16_26 
REMARK   10  A    between atoms: C16_26  and  C17_27 
REMARK   11  A    between atoms: C17_27  and  N5_28 
REMARK   12  A    between atoms: C24_36  and  N6_37 
REMARK       I    between atoms: N6_37  and  C25_39 
REMARK   13  A    between atoms: C25_39  and  C26_41 
ROOT
HETATM    1  C4  UNL     1      19.790  27.709  12.124  1.00  0.00     0.119 A 
HETATM    2  N2  UNL     1      18.855  26.740  12.133  1.00  0.00    -0.338 N 
ATOM      3  H2  UNL     1      19.073  25.788  11.839  1.00  0.00     0.168 HD
HETATM    4  C5  UNL     1      17.612  27.087  12.551  1.00  0.00     0.182 A 
HETATM    5  N3  UNL     1      17.325  28.340  12.939  1.00  0.00    -0.351 N 
ATOM      6  H3  UNL     1      16.378  28.564  13.246  1.00  0.00     0.166 HD
HETATM    7  C6  UNL     1      18.261  29.306  12.930  1.00  0.00     0.050 A 
HETATM    8  C7  UNL     1      17.961  30.602  13.339  1.00  0.00     0.070 A 
HETATM    9  C8  UNL     1      18.865  31.622  13.357  1.00  0.00     0.104 A 
HETATM   10  C15 UNL     1      20.158  31.312  12.937  1.00  0.00     0.103 A 
HETATM   11  C20 UNL     1      20.482  30.017  12.522  1.00  0.00     0.057 A 
HETATM   12  C21 UNL     1      19.538  29.007  12.515  1.00  0.00     0.038 A 
ENDROOT
BRANCH   1  13
HETATM   13  N1  UNL     1      20.992  27.431  11.729  1.00  0.00    -0.339 N 
ATOM     14  H1  UNL     1      21.786  27.738  12.290  1.00  0.00     0.167 HD
BRANCH  13  15
HETATM   15  C3  UNL     1      21.228  26.700  10.524  1.00  0.00     0.072 A 
HETATM   16  C2  UNL     1      22.322  25.862  10.504  1.00  0.00     0.136 A 
HETATM   17  C27 UNL     1      22.558  25.138   9.361  1.00  0.00     0.179 A 
HETATM   18  C24 UNL     1      21.747  25.209   8.226  1.00  0.00     0.094 A 
HETATM   19  F1  UNL     1      23.633  24.293   9.301  1.00  0.00    -0.201 F 
HETATM   20  C23 UNL     1      20.653  26.054   8.256  1.00  0.00     0.043 A 
HETATM   21  C22 UNL     1      20.416  26.787   9.414  1.00  0.00     0.054 A 
HETATM   22 BR1  UNL     1      19.506  26.192   6.728  1.00  0.00    -0.049 Br
BRANCH  16  23
HETATM   23  O1  UNL     1      23.176  25.742  11.603  1.00  0.00    -0.351 OA
HETATM   24  C1  UNL     1      24.390  26.453  11.645  1.00  0.00     0.210 C 
ENDBRANCH  16  23
BRANCH  18  25
HETATM   25  N6  UNL     1      22.013  24.434   7.074  1.00  0.00    -0.323 N 
HETATM   26  C25 UNL     1      22.957  24.815   6.091  1.00  0.00     0.232 C 
HETATM   27  O4  UNL     1      23.596  25.886   6.235  1.00  0.00    -0.272 OA
ATOM     28  H6  UNL     1      21.501  23.560   6.945  1.00  0.00     0.169 HD
BRANCH  26  29
HETATM   29  C26 UNL     1      23.211  23.988   4.898  1.00  0.00     0.188 C 
HETATM   30 BR2  UNL     1      24.000  24.974   3.455  1.00  0.00    -0.087 Br
ENDBRANCH  26  29
ENDBRANCH  18  25
ENDBRANCH  13  15
ENDBRANCH   1  13
BRANCH  10  31
HETATM   31  O3  UNL     1      21.088  32.322  12.949  1.00  0.00    -0.347 OA
BRANCH  31  32
HETATM   32  C16 UNL     1      22.159  32.413  13.849  1.00  0.00     0.206 C 
BRANCH  32  33
HETATM   33  C17 UNL     1      21.823  33.323  15.002  1.00  0.00     0.297 C 
BRANCH  33  34
HETATM   34  N5  UNL     1      21.869  32.685  16.271  1.00  0.00     0.082 N 
HETATM   35  C18 UNL     1      21.986  33.572  17.385  1.00  0.00     0.309 C 
HETATM   36  C19 UNL     1      20.895  31.670  16.499  1.00  0.00     0.309 C 
ENDBRANCH  33  34
ENDBRANCH  32  33
ENDBRANCH  31  32
ENDBRANCH  10  31
BRANCH   9  37
HETATM   37  O2  UNL     1      18.564  32.897  13.757  1.00  0.00    -0.346 OA
BRANCH  37  38
HETATM   38  C9  UNL     1      17.564  33.318  14.616  1.00  0.00     0.206 C 
BRANCH  38  39
HETATM   39  C10 UNL     1      18.067  33.905  15.897  1.00  0.00     0.299 C 
BRANCH  39  40
HETATM   40  N4  UNL     1      17.180  33.718  17.005  1.00  0.00     0.090 N 
HETATM   41  C11 UNL     1      15.823  33.434  16.686  1.00  0.00     0.272 C 
HETATM   42  C12 UNL     1      15.020  34.611  17.255  1.00  0.00     0.032 C 
HETATM   43  C13 UNL     1      15.867  35.138  18.365  1.00  0.00     0.032 C 
HETATM   44  C14 UNL     1      17.260  34.687  18.040  1.00  0.00     0.272 C 
ENDBRANCH  39  40
ENDBRANCH  38  39
ENDBRANCH  37  38
ENDBRANCH   9  37
TORSDOF 13
ENDMDL
MODEL 2
REMARK VINA RESULT: -8.457621427      5.458     11.804
REMARK  13 active torsions:
REMARK  status: ('A' for Active; 'I' for Inactive)
REMARK    1  A    between atoms: O1_2  and  C2_3 
REMARK    2  A    between atoms: C3_4  and  N1_5 
REMARK    3  A    between atoms: N1_5  and  C4_7 
REMARK    4  A    between atoms: C8_15  and  O2_16 
REMARK    5  A    between atoms: O2_16  and  C9_17 
REMARK    6  A    between atoms: C9_17  and  C10_18 
REMARK    7  A    between atoms: C10_18  and  N4_19 
REMARK    8  A    between atoms: C15_24  and  O3_25 
REMARK    9  A    between atoms: O3_25  and  C16_26 
REMARK   10  A    between atoms: C16_26  and  C17_27 
REMARK   11  A    between atoms: C17_27  and  N5_28 
REMARK   12  A    between atoms: C24_36  and  N6_37 
REMARK       I    between atoms: N6_37  and  C25_39 
REMARK   13  A    between atoms: C25_39  and  C26_41 
ROOT
HETATM    1  C4  UNL     1      20.183  32.605  16.420  1.00  0.00     0.119 A 
HETATM    2  N2  UNL     1      21.153  32.837  17.325  1.00  0.00    -0.338 N 
ATOM      3  H2  UNL     1      20.952  33.289  18.217  1.00  0.00     0.168 HD
HETATM    4  C5  UNL     1      22.409  32.444  16.995  1.00  0.00     0.182 A 
HETATM    5  N3  UNL     1      22.675  31.849  15.822  1.00  0.00    -0.351 N 
ATOM      6  H3  UNL     1      23.632  31.568  15.609  1.00  0.00     0.166 HD
HETATM    7  C6  UNL     1      21.704  31.617  14.921  1.00  0.00     0.050 A 
HETATM    8  C7  UNL     1      21.982  30.994  13.708  1.00  0.00     0.070 A 
HETATM    9  C8  UNL     1      21.042  30.726  12.758  1.00  0.00     0.104 A 
HETATM   10  C15 UNL     1      19.735  31.111  13.052  1.00  0.00     0.103 A 
HETATM   11  C20 UNL     1      19.433  31.738  14.264  1.00  0.00     0.057 A 
HETATM   12  C21 UNL     1      20.413  31.996  15.206  1.00  0.00     0.038 A 
ENDROOT
BRANCH   1  13
HETATM   13  N1  UNL     1      18.967  32.964  16.685  1.00  0.00    -0.339 N 
ATOM     14  H1  UNL     1      18.203  32.313  16.505  1.00  0.00     0.167 HD
BRANCH  13  15
HETATM   15  C3  UNL     1      18.675  34.256  17.223  1.00  0.00     0.072 A 
HETATM   16  C2  UNL     1      17.366  34.505  17.576  1.00  0.00     0.136 A 
HETATM   17  C27 UNL     1      17.066  35.733  18.111  1.00  0.00     0.179 A 
HETATM   18  C24 UNL     1      18.017  36.737  18.312  1.00  0.00     0.094 A 
HETATM   19  F1  UNL     1      15.779  36.021  18.476  1.00  0.00    -0.201 F 
HETATM   20  C23 UNL     1      19.327  36.476  17.953  1.00  0.00     0.043 A 
HETATM   21  C22 UNL     1      19.629  35.232  17.411  1.00  0.00     0.054 A 
HETATM   22 BR1  UNL     1      20.674  37.814  18.207  1.00  0.00    -0.049 Br
BRANCH  16  23
HETATM   23  O1  UNL     1      16.363  33.548  17.402  1.00  0.00    -0.351 OA
HETATM   24  C1  UNL     1      15.555  33.563  16.249  1.00  0.00     0.210 C 
ENDBRANCH  16  23
BRANCH  18  25
HETATM   25  N6  UNL     1      17.672  37.983  18.882  1.00  0.00    -0.323 N 
HETATM   26  C25 UNL     1      17.190  39.072  18.116  1.00  0.00     0.232 C 
HETATM   27  O4  UNL     1      17.055  38.939  16.876  1.00  0.00    -0.272 OA
ATOM     28  H6  UNL     1      17.776  38.104  19.890  1.00  0.00     0.169 HD
BRANCH  26  29
HETATM   29  C26 UNL     1      16.840  40.362  18.737  1.00  0.00     0.188 C 
HETATM   30 BR2  UNL     1      15.177  41.074  18.105  1.00  0.00    -0.087 Br
ENDBRANCH  26  29
ENDBRANCH  18  25
ENDBRANCH  13  15
ENDBRANCH   1  13
BRANCH  10  31
HETATM   31  O3  UNL     1      18.770  30.851  12.112  1.00  0.00    -0.347 OA
BRANCH  31  32
HETATM   32  C16 UNL     1      17.568  30.174  12.365  1.00  0.00     0.206 C 
BRANCH  32  33
HETATM   33  C17 UNL     1      17.486  28.898  11.569  1.00  0.00     0.297 C 
BRANCH  33  34
HETATM   34  N5  UNL     1      17.490  27.721  12.367  1.00  0.00     0.082 N 
HETATM   35  C18 UNL     1      18.224  26.626  11.816  1.00  0.00     0.309 C 
HETATM   36  C19 UNL     1      17.764  27.903  13.752  1.00  0.00     0.309 C 
ENDBRANCH  33  34
ENDBRANCH  32  33
ENDBRANCH  31  32
ENDBRANCH  10  31
BRANCH   9  37
HETATM   37  O2  UNL     1      21.322  30.116  11.563  1.00  0.00    -0.346 OA
BRANCH  37  38
HETATM   38  C9  UNL     1      21.393  28.763  11.282  1.00  0.00     0.206 C 
BRANCH  38  39
HETATM   39  C10 UNL     1      22.087  27.957  12.334  1.00  0.00     0.299 C 
BRANCH  39  40
HETATM   40  N4  UNL     1      22.990  26.978  11.808  1.00  0.00     0.090 N 
HETATM   41  C11 UNL     1      24.375  27.215  12.025  1.00  0.00     0.272 C 
HETATM   42  C12 UNL     1      24.981  27.379  10.624  1.00  0.00     0.032 C 
HETATM   43  C13 UNL     1      24.057  26.622   9.729  1.00  0.00     0.032 C 
HETATM   44  C14 UNL     1      22.754  26.567  10.469  1.00  0.00     0.272 C 
ENDBRANCH  39  40
ENDBRANCH  38  39
ENDBRANCH  37  38
ENDBRANCH   9  37
TORSDOF 13
ENDMDL
MODEL 3
REMARK VINA RESULT: -8.347003306      2.021      2.467
REMARK  13 active torsions:
REMARK  status: ('A' for Active; 'I' for Inactive)
REMARK    1  A    between atoms: O1_2  and  C2_3 
REMARK    2  A    between atoms: C3_4  and  N1_5 
REMARK    3  A    between atoms: N1_5  and  C4_7 
REMARK    4  A    between atoms: C8_15  and  O2_16 
REMARK    5  A    between atoms: O2_16  and  C9_17 
REMARK    6  A    between atoms: C9_17  and  C10_18 
REMARK    7  A    between atoms: C10_18  and  N4_19 
REMARK    8  A    between atoms: C15_24  and  O3_25 
REMARK    9  A    between atoms: O3_25  and  C16_26 
REMARK   10  A    between atoms: C16_26  and  C17_27 
REMARK   11  A    between atoms: C17_27  and  N5_28 
REMARK   12  A    between atoms: C24_36  and  N6_37 
REMARK       I    between atoms: N6_37  and  C25_39 
REMARK   13  A    between atoms: C25_39  and  C26_41 
ROOT
HETATM    1  C4  UNL     1      19.043  27.736  11.783  1.00  0.00     0.119 A 
HETATM    2  N2  UNL     1      18.519  27.506  10.565  1.00  0.00    -0.338 N 
ATOM      3  H2  UNL     1      18.807  26.704  10.003  1.00  0.00     0.168 HD
HETATM    4  C5  UNL     1      17.590  28.388  10.117  1.00  0.00     0.182 A 
HETATM    5  N3  UNL     1      17.210  29.443  10.854  1.00  0.00    -0.351 N 
ATOM      6  H3  UNL     1      16.509  30.085  10.484  1.00  0.00     0.166 HD
HETATM    7  C6  UNL     1      17.734  29.670  12.072  1.00  0.00     0.050 A 
HETATM    8  C7  UNL     1      17.333  30.762  12.836  1.00  0.00     0.070 A 
HETATM    9  C8  UNL     1      17.822  31.042  14.076  1.00  0.00     0.104 A 
HETATM   10  C15 UNL     1      18.779  30.162  14.579  1.00  0.00     0.103 A 
HETATM   11  C20 UNL     1      19.197  29.059  13.830  1.00  0.00     0.057 A 
HETATM   12  C21 UNL     1      18.680  28.806  12.572  1.00  0.00     0.038 A 
ENDROOT
BRANCH   1  13
HETATM   13  N1  UNL     1      19.937  26.926  12.255  1.00  0.00    -0.339 N 
ATOM     14  H1  UNL     1      19.908  26.670  13.241  1.00  0.00     0.167 HD
BRANCH  13  15
HETATM   15  C3  UNL     1      20.962  26.382  11.420  1.00  0.00     0.072 A 
HETATM   16  C2  UNL     1      20.606  25.339  10.592  1.00  0.00     0.136 A 
HETATM   17  C27 UNL     1      21.571  24.812   9.769  1.00  0.00     0.179 A 
HETATM   18  C24 UNL     1      22.887  25.280   9.731  1.00  0.00     0.094 A 
HETATM   19  F1  UNL     1      21.260  23.776   8.931  1.00  0.00    -0.201 F 
HETATM   20  C23 UNL     1      23.233  26.326  10.567  1.00  0.00     0.043 A 
HETATM   21  C22 UNL     1      22.255  26.858  11.400  1.00  0.00     0.054 A 
HETATM   22 BR1  UNL     1      25.022  27.009  10.557  1.00  0.00    -0.049 Br
BRANCH  16  23
HETATM   23  O1  UNL     1      19.309  24.820  10.578  1.00  0.00    -0.351 OA
HETATM   24  C1  UNL     1      18.968  23.730  11.401  1.00  0.00     0.210 C 
ENDBRANCH  16  23
BRANCH  18  25
HETATM   25  N6  UNL     1      23.848  24.723   8.857  1.00  0.00    -0.323 N 
HETATM   26  C25 UNL     1      23.970  25.111   7.501  1.00  0.00     0.232 C 
HETATM   27  O4  UNL     1      23.199  25.987   7.041  1.00  0.00    -0.272 OA
ATOM     28  H6  UNL     1      24.483  24.011   9.219  1.00  0.00     0.169 HD
BRANCH  26  29
HETATM   29  C26 UNL     1      24.980  24.512   6.611  1.00  0.00     0.188 C 
HETATM   30 BR2  UNL     1      24.494  24.594   4.759  1.00  0.00    -0.087 Br
ENDBRANCH  26  29
ENDBRANCH  18  25
ENDBRANCH  13  15
ENDBRANCH   1  13
BRANCH  10  31
HETATM   31  O3  UNL     1      19.286  30.422  15.828  1.00  0.00    -0.347 OA
BRANCH  31  32
HETATM   32  C16 UNL     1      20.595  30.855  16.087  1.00  0.00     0.206 C 
BRANCH  32  33
HETATM   33  C17 UNL     1      20.674  32.359  16.114  1.00  0.00     0.297 C 
BRANCH  33  34
HETATM   34  N5  UNL     1      21.617  32.902  15.199  1.00  0.00     0.082 N 
HETATM   35  C18 UNL     1      22.929  33.088  15.730  1.00  0.00     0.309 C 
HETATM   36  C19 UNL     1      21.645  32.313  13.903  1.00  0.00     0.309 C 
ENDBRANCH  33  34
ENDBRANCH  32  33
ENDBRANCH  31  32
ENDBRANCH  10  31
BRANCH   9  37
HETATM   37  O2  UNL     1      17.427  32.121  14.823  1.00  0.00    -0.346 OA
BRANCH  37  38
HETATM   38  C9  UNL     1      17.656  33.465  14.585  1.00  0.00     0.206 C 
BRANCH  38  39
HETATM   39  C10 UNL     1      16.514  34.355  14.961  1.00  0.00     0.299 C 
BRANCH  39  40
HETATM   40  N4  UNL     1      16.454  34.657  16.360  1.00  0.00     0.090 N 
HETATM   41  C11 UNL     1      15.477  33.953  17.117  1.00  0.00     0.272 C 
HETATM   42  C12 UNL     1      14.522  35.031  17.646  1.00  0.00     0.032 C 
HETATM   43  C13 UNL     1      15.347  36.273  17.683  1.00  0.00     0.032 C 
HETATM   44  C14 UNL     1      16.455  36.035  16.701  1.00  0.00     0.272 C 
ENDBRANCH  39  40
ENDBRANCH  38  39
ENDBRANCH  37  38
ENDBRANCH   9  37
TORSDOF 13
ENDMDL
MODEL 4
REMARK VINA RESULT: -8.294579279      1.948      2.462
REMARK  13 active torsions:
REMARK  status: ('A' for Active; 'I' for Inactive)
REMARK    1  A    between atoms: O1_2  and  C2_3 
REMARK    2  A    between atoms: C3_4  and  N1_5 
REMARK    3  A    between atoms: N1_5  and  C4_7 
REMARK    4  A    between atoms: C8_15  and  O2_16 
REMARK    5  A    between atoms: O2_16  and  C9_17 
REMARK    6  A    between atoms: C9_17  and  C10_18 
REMARK    7  A    between atoms: C10_18  and  N4_19 
REMARK    8  A    between atoms: C15_24  and  O3_25 
REMARK    9  A    between atoms: O3_25  and  C16_26 
REMARK   10  A    between atoms: C16_26  and  C17_27 
REMARK   11  A    between atoms: C17_27  and  N5_28 
REMARK   12  A    between atoms: C24_36  and  N6_37 
REMARK       I    between atoms: N6_37  and  C25_39 
REMARK   13  A    between atoms: C25_39  and  C26_41 
ROOT
HETATM    1  C4  UNL     1      18.975  28.468  11.987  1.00  0.00     0.119 A 
HETATM    2  N2  UNL     1      18.184  27.379  12.026  1.00  0.00    -0.338 N 
ATOM      3  H2  UNL     1      18.153  26.715  11.252  1.00  0.00     0.168 HD
HETATM    4  C5  UNL     1      17.431  27.205  13.141  1.00  0.00     0.182 A 
HETATM    5  N3  UNL     1      17.471  28.078  14.160  1.00  0.00    -0.351 N 
ATOM      6  H3  UNL     1      16.890  27.914  14.982  1.00  0.00     0.166 HD
HETATM    7  C6  UNL     1      18.263  29.164  14.119  1.00  0.00     0.050 A 
HETATM    8  C7  UNL     1      18.307  30.063  15.180  1.00  0.00     0.070 A 
HETATM    9  C8  UNL     1      19.092  31.177  15.200  1.00  0.00     0.104 A 
HETATM   10  C15 UNL     1      19.885  31.398  14.075  1.00  0.00     0.103 A 
HETATM   11  C20 UNL     1      19.857  30.508  12.998  1.00  0.00     0.057 A 
HETATM   12  C21 UNL     1      19.047  29.387  13.011  1.00  0.00     0.038 A 
ENDROOT
BRANCH   1  13
HETATM   13  N1  UNL     1      19.711  28.682  10.943  1.00  0.00    -0.339 N 
ATOM     14  H1  UNL     1      19.699  29.602  10.503  1.00  0.00     0.167 HD
BRANCH  13  15
HETATM   15  C3  UNL     1      20.540  27.655  10.395  1.00  0.00     0.072 A 
HETATM   16  C2  UNL     1      20.007  26.899   9.373  1.00  0.00     0.136 A 
HETATM   17  C27 UNL     1      20.792  25.917   8.821  1.00  0.00     0.179 A 
HETATM   18  C24 UNL     1      22.097  25.649   9.242  1.00  0.00     0.094 A 
HETATM   19  F1  UNL     1      20.302  25.145   7.803  1.00  0.00    -0.201 F 
HETATM   20  C23 UNL     1      22.622  26.414  10.269  1.00  0.00     0.043 A 
HETATM   21  C22 UNL     1      21.825  27.406  10.827  1.00  0.00     0.054 A 
HETATM   22 BR1  UNL     1      24.406  26.092  10.887  1.00  0.00    -0.049 Br
BRANCH  16  23
HETATM   23  O1  UNL     1      18.709  27.111   8.902  1.00  0.00    -0.351 OA
HETATM   24  C1  UNL     1      18.491  27.797   7.692  1.00  0.00     0.210 C 
ENDBRANCH  16  23
BRANCH  18  25
HETATM   25  N6  UNL     1      22.881  24.642   8.636  1.00  0.00    -0.323 N 
HETATM   26  C25 UNL     1      23.587  24.840   7.425  1.00  0.00     0.232 C 
HETATM   27  O4  UNL     1      23.524  25.955   6.853  1.00  0.00    -0.272 OA
ATOM     28  H6  UNL     1      22.942  23.731   9.092  1.00  0.00     0.169 HD
BRANCH  26  29
HETATM   29  C26 UNL     1      24.395  23.770   6.814  1.00  0.00     0.188 C 
HETATM   30 BR2  UNL     1      25.051  24.225   5.071  1.00  0.00    -0.087 Br
ENDBRANCH  26  29
ENDBRANCH  18  25
ENDBRANCH  13  15
ENDBRANCH   1  13
BRANCH  10  31
HETATM   31  O3  UNL     1      20.686  32.513  14.072  1.00  0.00    -0.347 OA
BRANCH  31  32
HETATM   32  C16 UNL     1      22.082  32.495  13.940  1.00  0.00     0.206 C 
BRANCH  32  33
HETATM   33  C17 UNL     1      22.740  33.308  15.023  1.00  0.00     0.297 C 
BRANCH  33  34
HETATM   34  N5  UNL     1      21.927  33.500  16.173  1.00  0.00     0.082 N 
HETATM   35  C18 UNL     1      22.363  32.801  17.340  1.00  0.00     0.309 C 
HETATM   36  C19 UNL     1      21.559  34.845  16.465  1.00  0.00     0.309 C 
ENDBRANCH  33  34
ENDBRANCH  32  33
ENDBRANCH  31  32
ENDBRANCH  10  31
BRANCH   9  37
HETATM   37  O2  UNL     1      19.128  32.062  16.246  1.00  0.00    -0.346 OA
BRANCH  37  38
HETATM   38  C9  UNL     1      18.114  32.872  16.725  1.00  0.00     0.206 C 
BRANCH  38  39
HETATM   39  C10 UNL     1      17.714  33.969  15.788  1.00  0.00     0.299 C 
BRANCH  39  40
HETATM   40  N4  UNL     1      16.373  34.430  15.980  1.00  0.00     0.090 N 
HETATM   41  C11 UNL     1      16.219  35.805  16.311  1.00  0.00     0.272 C 
HETATM   42  C12 UNL     1      15.585  35.816  17.709  1.00  0.00     0.032 C 
HETATM   43  C13 UNL     1      14.868  34.511  17.802  1.00  0.00     0.032 C 
HETATM   44  C14 UNL     1      15.545  33.621  16.804  1.00  0.00     0.272 C 
ENDBRANCH  39  40
ENDBRANCH  38  39
ENDBRANCH  37  38
ENDBRANCH   9  37
TORSDOF 13
ENDMDL
MODEL 5
REMARK VINA RESULT: -8.269322373      5.397     11.610
REMARK  13 active torsions:
REMARK  status: ('A' for Active; 'I' for Inactive)
REMARK    1  A    between atoms: O1_2  and  C2_3 
REMARK    2  A    between atoms: C3_4  and  N1_5 
REMARK    3  A    between atoms: N1_5  and  C4_7 
REMARK    4  A    between atoms: C8_15  and  O2_16 
REMARK    5  A    between atoms: O2_16  and  C9_17 
REMARK    6  A    between atoms: C9_17  and  C10_18 
REMARK    7  A    between atoms: C10_18  and  N4_19 
REMARK    8  A    between atoms: C15_24  and  O3_25 
REMARK    9  A    between atoms: O3_25  and  C16_26 
REMARK   10  A    between atoms: C16_26  and  C17_27 
REMARK   11  A    between atoms: C17_27  and  N5_28 
REMARK   12  A    between atoms: C24_36  and  N6_37 
REMARK       I    between atoms: N6_37  and  C25_39 
REMARK   13  A    between atoms: C25_39  and  C26_41 
ROOT
HETATM    1  C4  UNL     1      20.895  32.433  16.215  1.00  0.00     0.119 A 
HETATM    2  N2  UNL     1      21.890  33.340  16.230  1.00  0.00    -0.338 N 
ATOM      3  H2  UNL     1      21.844  34.172  16.819  1.00  0.00     0.168 HD
HETATM    4  C5  UNL     1      22.956  33.097  15.428  1.00  0.00     0.182 A 
HETATM    5  N3  UNL     1      23.018  32.003  14.653  1.00  0.00    -0.351 N 
ATOM      6  H3  UNL     1      23.837  31.854  14.062  1.00  0.00     0.166 HD
HETATM    7  C6  UNL     1      22.023  31.098  14.641  1.00  0.00     0.050 A 
HETATM    8  C7  UNL     1      22.095  29.961  13.841  1.00  0.00     0.070 A 
HETATM    9  C8  UNL     1      21.123  29.007  13.788  1.00  0.00     0.104 A 
HETATM   10  C15 UNL     1      20.007  29.213  14.598  1.00  0.00     0.103 A 
HETATM   11  C20 UNL     1      19.914  30.347  15.409  1.00  0.00     0.057 A 
HETATM   12  C21 UNL     1      20.919  31.297  15.436  1.00  0.00     0.038 A 
ENDROOT
BRANCH   1  13
HETATM   13  N1  UNL     1      19.852  32.620  16.961  1.00  0.00    -0.339 N 
ATOM     14  H1  UNL     1      19.480  31.842  17.504  1.00  0.00     0.167 HD
BRANCH  13  15
HETATM   15  C3  UNL     1      19.212  33.896  17.037  1.00  0.00     0.072 A 
HETATM   16  C2  UNL     1      17.967  34.007  16.457  1.00  0.00     0.136 A 
HETATM   17  C27 UNL     1      17.327  35.219  16.532  1.00  0.00     0.179 A 
HETATM   18  C24 UNL     1      17.873  36.339  17.165  1.00  0.00     0.094 A 
HETATM   19  F1  UNL     1      16.088  35.372  15.971  1.00  0.00    -0.201 F 
HETATM   20  C23 UNL     1      19.124  36.216  17.743  1.00  0.00     0.043 A 
HETATM   21  C22 UNL     1      19.771  34.988  17.664  1.00  0.00     0.054 A 
HETATM   22 BR1  UNL     1      19.923  37.717  18.624  1.00  0.00    -0.049 Br
BRANCH  16  23
HETATM   23  O1  UNL     1      17.360  32.929  15.807  1.00  0.00    -0.351 OA
HETATM   24  C1  UNL     1      17.418  32.817  14.405  1.00  0.00     0.210 C 
ENDBRANCH  16  23
BRANCH  18  25
HETATM   25  N6  UNL     1      17.176  37.566  17.238  1.00  0.00    -0.323 N 
HETATM   26  C25 UNL     1      16.304  37.892  18.304  1.00  0.00     0.232 C 
HETATM   27  O4  UNL     1      16.134  37.067  19.234  1.00  0.00    -0.272 OA
ATOM     28  H6  UNL     1      17.306  38.246  16.489  1.00  0.00     0.169 HD
BRANCH  26  29
HETATM   29  C26 UNL     1      15.587  39.179  18.353  1.00  0.00     0.188 C 
HETATM   30 BR2  UNL     1      16.415  40.541  17.288  1.00  0.00    -0.087 Br
ENDBRANCH  26  29
ENDBRANCH  18  25
ENDBRANCH  13  15
ENDBRANCH   1  13
BRANCH  10  31
HETATM   31  O3  UNL     1      19.015  28.264  14.564  1.00  0.00    -0.347 OA
BRANCH  31  32
HETATM   32  C16 UNL     1      17.848  28.352  13.791  1.00  0.00     0.206 C 
BRANCH  32  33
HETATM   33  C17 UNL     1      17.810  27.273  12.742  1.00  0.00     0.297 C 
BRANCH  33  34
HETATM   34  N5  UNL     1      17.738  27.766  11.411  1.00  0.00     0.082 N 
HETATM   35  C18 UNL     1      18.207  29.105  11.242  1.00  0.00     0.309 C 
HETATM   36  C19 UNL     1      18.225  26.898  10.392  1.00  0.00     0.309 C 
ENDBRANCH  33  34
ENDBRANCH  32  33
ENDBRANCH  31  32
ENDBRANCH  10  31
BRANCH   9  37
HETATM   37  O2  UNL     1      21.196  27.891  12.996  1.00  0.00    -0.346 OA
BRANCH  37  38
HETATM   38  C9  UNL     1      21.720  27.773  11.721  1.00  0.00     0.206 C 
BRANCH  38  39
HETATM   39  C10 UNL     1      21.861  26.360  11.248  1.00  0.00     0.299 C 
BRANCH  39  40
HETATM   40  N4  UNL     1      23.219  25.935  11.096  1.00  0.00     0.090 N 
HETATM   41  C11 UNL     1      24.203  26.707  11.774  1.00  0.00     0.272 C 
HETATM   42  C12 UNL     1      25.089  27.296  10.668  1.00  0.00     0.032 C 
HETATM   43  C13 UNL     1      24.941  26.344   9.528  1.00  0.00     0.032 C 
HETATM   44  C14 UNL     1      23.638  25.644   9.770  1.00  0.00     0.272 C 
ENDBRANCH  39  40
ENDBRANCH  38  39
ENDBRANCH  37  38
ENDBRANCH   9  37
TORSDOF 13
ENDMDL
