MODEL 1
REMARK VINA RESULT: -9.810260037      0.000      0.000
REMARK  12 active torsions:
REMARK  status: ('A' for Active; 'I' for Inactive)
REMARK    1  A    between atoms: N2_5  and  C3_6 
REMARK    2  A    between atoms: C3_6  and  C4_7 
REMARK    3  A    between atoms: C4_7  and  N3_8 
REMARK    4  A    between atoms: C7_11  and  C8_12 
REMARK    5  A    between atoms: C11_15  and  C12_16 
REMARK       I    between atoms: C12_16  and  N4_18 
REMARK    6  A    between atoms: N4_18  and  C13_20 
REMARK    7  A    between atoms: C24_31  and  O2_32 
REMARK    8  A    between atoms: O2_32  and  C25_33 
REMARK    9  A    between atoms: C25_33  and  C26_34 
REMARK   10  A    between atoms: N5_37  and  C29_38 
REMARK   11  A    between atoms: C29_38  and  C30_39 
REMARK   12  A    between atoms: C35_49  and  C36_50 
ROOT
HETATM    1  C8  UNL     1      19.716  32.252  14.400  1.00  0.00    -0.017 A 
HETATM    2  C9  UNL     1      21.050  32.484  14.319  1.00  0.00     0.011 A 
HETATM    3  C10 UNL     1      21.599  33.544  15.016  1.00  0.00     0.018 A 
HETATM    4  C11 UNL     1      20.871  34.400  15.808  1.00  0.00     0.034 A 
HETATM    5  C23 UNL     1      19.496  34.142  15.874  1.00  0.00     0.054 A 
HETATM    6  C24 UNL     1      18.930  33.101  15.192  1.00  0.00     0.076 A 
ENDROOT
BRANCH   1   7
HETATM    7  C7  UNL     1      18.993  31.110  13.766  1.00  0.00     0.062 C 
HETATM    8  C6  UNL     1      19.323  30.860  12.346  1.00  0.00     0.057 C 
HETATM    9  C5  UNL     1      20.025  29.534  12.078  1.00  0.00     0.064 C 
HETATM   10  N3  UNL     1      21.085  29.409  12.983  1.00  0.00    -0.369 N 
HETATM   11  C34 UNL     1      20.643  29.302  14.326  1.00  0.00     0.165 C 
HETATM   12  C33 UNL     1      19.309  29.902  14.647  1.00  0.00     0.197 C 
HETATM   13  F3  UNL     1      18.337  28.933  14.556  1.00  0.00    -0.247 F 
BRANCH  10  14
HETATM   14  C4  UNL     1      22.378  29.070  12.659  1.00  0.00     0.086 C 
BRANCH  14  15
HETATM   15  C3  UNL     1      22.779  27.717  12.232  1.00  0.00     0.214 C 
BRANCH  15  16
HETATM   16  N2  UNL     1      21.853  26.961  11.459  1.00  0.00    -0.229 N 
HETATM   17  N1  UNL     1      21.697  27.041  10.124  1.00  0.00    -0.286 N 
HETATM   18  C2  UNL     1      20.719  26.239   9.746  1.00  0.00     0.057 A 
ATOM     19  H1  UNL     1      22.250  27.631   9.501  1.00  0.00     0.188 HD
HETATM   20  C1  UNL     1      20.223  26.040   8.345  1.00  0.00     0.072 C 
HETATM   21  C35 UNL     1      20.206  25.602  10.860  1.00  0.00     0.138 A 
HETATM   22  N6  UNL     1      20.944  26.087  11.889  1.00  0.00    -0.277 N 
ATOM     23  H6  UNL     1      20.819  25.818  12.864  1.00  0.00     0.189 HD
BRANCH  21  24
HETATM   24  C36 UNL     1      19.130  24.628  10.921  1.00  0.00     0.284 C 
HETATM   25  N7  UNL     1      17.804  25.054  11.125  1.00  0.00    -0.056 NA
HETATM   26  O3  UNL     1      19.402  23.398  10.787  1.00  0.00    -0.269 OA
ENDBRANCH  21  24
ENDBRANCH  15  16
ENDBRANCH  14  15
ENDBRANCH  10  14
ENDBRANCH   1   7
BRANCH   6  27
HETATM   27  O2  UNL     1      17.567  32.864  15.263  1.00  0.00    -0.350 OA
BRANCH  27  28
HETATM   28  C25 UNL     1      16.848  32.775  16.460  1.00  0.00     0.180 C 
BRANCH  28  29
HETATM   29  C26 UNL     1      15.621  33.672  16.330  1.00  0.00     0.013 C 
HETATM   30  C27 UNL     1      15.092  33.974  17.699  1.00  0.00     0.037 C 
HETATM   31  C28 UNL     1      14.634  35.421  17.796  1.00  0.00     0.273 C 
HETATM   32  N5  UNL     1      15.640  36.368  17.440  1.00  0.00     0.093 N 
HETATM   33  C31 UNL     1      16.669  35.853  16.585  1.00  0.00     0.273 C 
HETATM   34  C32 UNL     1      16.038  34.914  15.582  1.00  0.00     0.037 C 
BRANCH  32  35
HETATM   35  C29 UNL     1      16.162  37.139  18.535  1.00  0.00     0.343 C 
BRANCH  35  36
HETATM   36  C30 UNL     1      15.833  38.598  18.324  1.00  0.00     0.381 C 
HETATM   37  F1  UNL     1      16.506  39.306  19.303  1.00  0.00    -0.213 F 
HETATM   38  F2  UNL     1      16.370  38.965  17.107  1.00  0.00    -0.213 F 
ENDBRANCH  35  36
ENDBRANCH  32  35
ENDBRANCH  28  29
ENDBRANCH  27  28
ENDBRANCH   6  27
BRANCH   4  39
HETATM   39  C12 UNL     1      21.482  35.499  16.531  1.00  0.00     0.252 C 
HETATM   40  O1  UNL     1      22.401  35.305  17.355  1.00  0.00    -0.268 OA
HETATM   41  N4  UNL     1      21.069  36.856  16.346  1.00  0.00    -0.352 N 
ATOM     42  H4  UNL     1      20.321  37.055  15.681  1.00  0.00     0.163 HD
BRANCH  41  43
HETATM   43  C13 UNL     1      21.663  37.940  17.054  1.00  0.00     0.093 C 
HETATM   44  C14 UNL     1      20.889  38.259  18.313  1.00  0.00     0.009 C 
HETATM   45  C15 UNL     1      19.570  38.890  17.970  1.00  0.00     0.011 C 
HETATM   46  C19 UNL     1      21.740  39.195  19.156  1.00  0.00     0.011 C 
HETATM   47  C16 UNL     1      19.793  40.196  17.256  1.00  0.00    -0.013 C 
HETATM   48  C17 UNL     1      20.668  41.125  18.061  1.00  0.00     0.009 C 
HETATM   49  C22 UNL     1      20.500  39.858  15.953  1.00  0.00     0.011 C 
HETATM   50  C18 UNL     1      21.990  40.439  18.349  1.00  0.00    -0.013 C 
HETATM   51  C20 UNL     1      22.682  40.142  17.048  1.00  0.00     0.011 C 
HETATM   52  C21 UNL     1      21.824  39.184  16.248  1.00  0.00     0.009 C 
ENDBRANCH  41  43
ENDBRANCH   4  39
TORSDOF 12
ENDMDL
MODEL 2
REMARK VINA RESULT: -9.805190057      3.069      8.754
REMARK  12 active torsions:
REMARK  status: ('A' for Active; 'I' for Inactive)
REMARK    1  A    between atoms: N2_5  and  C3_6 
REMARK    2  A    between atoms: C3_6  and  C4_7 
REMARK    3  A    between atoms: C4_7  and  N3_8 
REMARK    4  A    between atoms: C7_11  and  C8_12 
REMARK    5  A    between atoms: C11_15  and  C12_16 
REMARK       I    between atoms: C12_16  and  N4_18 
REMARK    6  A    between atoms: N4_18  and  C13_20 
REMARK    7  A    between atoms: C24_31  and  O2_32 
REMARK    8  A    between atoms: O2_32  and  C25_33 
REMARK    9  A    between atoms: C25_33  and  C26_34 
REMARK   10  A    between atoms: N5_37  and  C29_38 
REMARK   11  A    between atoms: C29_38  and  C30_39 
REMARK   12  A    between atoms: C35_49  and  C36_50 
ROOT
HETATM    1  C8  UNL     1      19.336  33.863  16.463  1.00  0.00    -0.017 A 
HETATM    2  C9  UNL     1      18.918  34.660  17.477  1.00  0.00     0.011 A 
HETATM    3  C10 UNL     1      19.788  35.593  18.011  1.00  0.00     0.018 A 
HETATM    4  C11 UNL     1      21.078  35.775  17.575  1.00  0.00     0.034 A 
HETATM    5  C23 UNL     1      21.488  34.938  16.528  1.00  0.00     0.054 A 
HETATM    6  C24 UNL     1      20.646  34.009  15.985  1.00  0.00     0.076 A 
ENDROOT
BRANCH   1   7
HETATM    7  C7  UNL     1      18.493  32.866  15.739  1.00  0.00     0.062 C 
HETATM    8  C6  UNL     1      17.454  32.201  16.555  1.00  0.00     0.057 C 
HETATM    9  C5  UNL     1      16.020  32.526  16.151  1.00  0.00     0.064 C 
HETATM   10  N3  UNL     1      15.905  33.915  16.025  1.00  0.00    -0.369 N 
HETATM   11  C34 UNL     1      16.689  34.432  14.964  1.00  0.00     0.165 C 
HETATM   12  C33 UNL     1      17.891  33.633  14.562  1.00  0.00     0.197 C 
HETATM   13  F3  UNL     1      17.558  32.797  13.522  1.00  0.00    -0.247 F 
BRANCH  10  14
HETATM   14  C4  UNL     1      14.914  34.688  16.585  1.00  0.00     0.086 C 
BRANCH  14  15
HETATM   15  C3  UNL     1      15.006  35.267  17.938  1.00  0.00     0.214 C 
BRANCH  15  16
HETATM   16  N2  UNL     1      15.718  36.489  18.092  1.00  0.00    -0.229 N 
HETATM   17  N1  UNL     1      15.704  37.272  19.188  1.00  0.00    -0.286 N 
HETATM   18  C2  UNL     1      16.435  38.349  18.968  1.00  0.00     0.057 A 
ATOM     19  H1  UNL     1      15.206  37.064  20.053  1.00  0.00     0.188 HD
HETATM   20  C1  UNL     1      16.671  39.475  19.931  1.00  0.00     0.072 C 
HETATM   21  C35 UNL     1      16.956  38.285  17.690  1.00  0.00     0.138 A 
HETATM   22  N6  UNL     1      16.479  37.116  17.196  1.00  0.00    -0.277 N 
ATOM     23  H6  UNL     1      16.677  36.763  16.260  1.00  0.00     0.189 HD
BRANCH  21  24
HETATM   24  C36 UNL     1      17.822  39.243  17.025  1.00  0.00     0.284 C 
HETATM   25  N7  UNL     1      17.279  40.416  16.465  1.00  0.00    -0.056 NA
HETATM   26  O3  UNL     1      19.065  39.009  16.959  1.00  0.00    -0.269 OA
ENDBRANCH  21  24
ENDBRANCH  15  16
ENDBRANCH  14  15
ENDBRANCH  10  14
ENDBRANCH   1   7
BRANCH   6  27
HETATM   27  O2  UNL     1      21.068  33.185  14.955  1.00  0.00    -0.350 OA
BRANCH  27  28
HETATM   28  C25 UNL     1      21.630  31.917  15.144  1.00  0.00     0.180 C 
BRANCH  28  29
HETATM   29  C26 UNL     1      21.989  31.361  13.770  1.00  0.00     0.013 C 
HETATM   30  C27 UNL     1      22.233  29.887  13.891  1.00  0.00     0.037 C 
HETATM   31  C28 UNL     1      21.656  29.143  12.697  1.00  0.00     0.273 C 
HETATM   32  N5  UNL     1      20.268  29.393  12.479  1.00  0.00     0.093 N 
HETATM   33  C31 UNL     1      19.790  30.628  13.028  1.00  0.00     0.273 C 
HETATM   34  C32 UNL     1      20.854  31.686  12.832  1.00  0.00     0.037 C 
BRANCH  32  35
HETATM   35  C29 UNL     1      19.399  28.285  12.767  1.00  0.00     0.343 C 
BRANCH  35  36
HETATM   36  C30 UNL     1      18.634  28.564  14.039  1.00  0.00     0.381 C 
HETATM   37  F1  UNL     1      17.593  27.654  14.089  1.00  0.00    -0.213 F 
HETATM   38  F2  UNL     1      19.479  28.280  15.093  1.00  0.00    -0.213 F 
ENDBRANCH  35  36
ENDBRANCH  32  35
ENDBRANCH  28  29
ENDBRANCH  27  28
ENDBRANCH   6  27
BRANCH   4  39
HETATM   39  C12 UNL     1      21.963  36.768  18.154  1.00  0.00     0.252 C 
HETATM   40  O1  UNL     1      22.717  36.490  19.111  1.00  0.00    -0.268 OA
HETATM   41  N4  UNL     1      22.022  38.111  17.667  1.00  0.00    -0.352 N 
ATOM     42  H4  UNL     1      21.422  38.377  16.886  1.00  0.00     0.163 HD
BRANCH  41  43
HETATM   43  C13 UNL     1      22.887  39.093  18.232  1.00  0.00     0.093 C 
HETATM   44  C14 UNL     1      22.208  39.836  19.360  1.00  0.00     0.009 C 
HETATM   45  C15 UNL     1      21.139  40.742  18.819  1.00  0.00     0.011 C 
HETATM   46  C19 UNL     1      23.272  40.629  20.101  1.00  0.00     0.011 C 
HETATM   47  C16 UNL     1      21.749  41.783  17.920  1.00  0.00    -0.013 C 
HETATM   48  C17 UNL     1      22.836  42.555  18.627  1.00  0.00     0.009 C 
HETATM   49  C22 UNL     1      22.360  41.032  16.747  1.00  0.00     0.011 C 
HETATM   50  C18 UNL     1      23.894  41.587  19.122  1.00  0.00    -0.013 C 
HETATM   51  C20 UNL     1      24.502  40.881  17.943  1.00  0.00     0.011 C 
HETATM   52  C21 UNL     1      23.423  40.077  17.248  1.00  0.00     0.009 C 
ENDBRANCH  41  43
ENDBRANCH   4  39
TORSDOF 12
ENDMDL
MODEL 3
REMARK VINA RESULT: -9.749891671      0.879      1.203
REMARK  12 active torsions:
REMARK  status: ('A' for Active; 'I' for Inactive)
REMARK    1  A    between atoms: N2_5  and  C3_6 
REMARK    2  A    between atoms: C3_6  and  C4_7 
REMARK    3  A    between atoms: C4_7  and  N3_8 
REMARK    4  A    between atoms: C7_11  and  C8_12 
REMARK    5  A    between atoms: C11_15  and  C12_16 
REMARK       I    between atoms: C12_16  and  N4_18 
REMARK    6  A    between atoms: N4_18  and  C13_20 
REMARK    7  A    between atoms: C24_31  and  O2_32 
REMARK    8  A    between atoms: O2_32  and  C25_33 
REMARK    9  A    between atoms: C25_33  and  C26_34 
REMARK   10  A    between atoms: N5_37  and  C29_38 
REMARK   11  A    between atoms: C29_38  and  C30_39 
REMARK   12  A    between atoms: C35_49  and  C36_50 
ROOT
HETATM    1  C8  UNL     1      19.550  32.078  14.180  1.00  0.00    -0.017 A 
HETATM    2  C9  UNL     1      20.887  32.258  14.044  1.00  0.00     0.011 A 
HETATM    3  C10 UNL     1      21.507  33.286  14.731  1.00  0.00     0.018 A 
HETATM    4  C11 UNL     1      20.848  34.157  15.564  1.00  0.00     0.034 A 
HETATM    5  C23 UNL     1      19.468  33.952  15.687  1.00  0.00     0.054 A 
HETATM    6  C24 UNL     1      18.833  32.945  15.016  1.00  0.00     0.076 A 
ENDROOT
BRANCH   1   7
HETATM    7  C7  UNL     1      18.756  30.974  13.562  1.00  0.00     0.062 C 
HETATM    8  C6  UNL     1      19.185  30.564  12.208  1.00  0.00     0.057 C 
HETATM    9  C5  UNL     1      19.742  29.148  12.117  1.00  0.00     0.064 C 
HETATM   10  N3  UNL     1      20.688  28.983  13.134  1.00  0.00    -0.369 N 
HETATM   11  C34 UNL     1      20.111  29.046  14.427  1.00  0.00     0.165 C 
HETATM   12  C33 UNL     1      18.837  29.820  14.561  1.00  0.00     0.197 C 
HETATM   13  F3  UNL     1      17.766  28.964  14.443  1.00  0.00    -0.247 F 
BRANCH  10  14
HETATM   14  C4  UNL     1      21.955  28.472  12.973  1.00  0.00     0.086 C 
BRANCH  14  15
HETATM   15  C3  UNL     1      22.443  27.901  11.704  1.00  0.00     0.214 C 
BRANCH  15  16
HETATM   16  N2  UNL     1      21.692  26.844  11.117  1.00  0.00    -0.229 N 
HETATM   17  N1  UNL     1      21.024  25.888  11.792  1.00  0.00    -0.286 N 
HETATM   18  C2  UNL     1      20.482  25.042  10.935  1.00  0.00     0.057 A 
ATOM     19  H1  UNL     1      20.949  25.828  12.807  1.00  0.00     0.188 HD
HETATM   20  C1  UNL     1      19.665  23.833  11.277  1.00  0.00     0.072 C 
HETATM   21  C35 UNL     1      20.794  25.444   9.650  1.00  0.00     0.138 A 
HETATM   22  N6  UNL     1      21.543  26.560   9.824  1.00  0.00    -0.277 N 
ATOM     23  H6  UNL     1      21.940  27.111   9.064  1.00  0.00     0.189 HD
BRANCH  21  24
HETATM   24  C36 UNL     1      20.404  24.821   8.397  1.00  0.00     0.284 C 
HETATM   25  N7  UNL     1      19.389  25.397   7.609  1.00  0.00    -0.056 NA
HETATM   26  O3  UNL     1      20.989  23.761   8.026  1.00  0.00    -0.269 OA
ENDBRANCH  21  24
ENDBRANCH  15  16
ENDBRANCH  14  15
ENDBRANCH  10  14
ENDBRANCH   1   7
BRANCH   6  27
HETATM   27  O2  UNL     1      17.466  32.760  15.143  1.00  0.00    -0.350 OA
BRANCH  27  28
HETATM   28  C25 UNL     1      16.790  32.717  16.367  1.00  0.00     0.180 C 
BRANCH  28  29
HETATM   29  C26 UNL     1      15.582  33.642  16.263  1.00  0.00     0.013 C 
HETATM   30  C27 UNL     1      15.068  33.927  17.641  1.00  0.00     0.037 C 
HETATM   31  C28 UNL     1      14.641  35.381  17.770  1.00  0.00     0.273 C 
HETATM   32  N5  UNL     1      15.666  36.314  17.428  1.00  0.00     0.093 N 
HETATM   33  C31 UNL     1      16.679  35.795  16.557  1.00  0.00     0.273 C 
HETATM   34  C32 UNL     1      16.022  34.890  15.538  1.00  0.00     0.037 C 
BRANCH  32  35
HETATM   35  C29 UNL     1      16.210  37.051  18.535  1.00  0.00     0.343 C 
BRANCH  35  36
HETATM   36  C30 UNL     1      15.958  38.526  18.329  1.00  0.00     0.381 C 
HETATM   37  F1  UNL     1      16.621  39.191  19.345  1.00  0.00    -0.213 F 
HETATM   38  F2  UNL     1      16.565  38.880  17.141  1.00  0.00    -0.213 F 
ENDBRANCH  35  36
ENDBRANCH  32  35
ENDBRANCH  28  29
ENDBRANCH  27  28
ENDBRANCH   6  27
BRANCH   4  39
HETATM   39  C12 UNL     1      21.532  35.221  16.275  1.00  0.00     0.252 C 
HETATM   40  O1  UNL     1      22.558  34.997  16.951  1.00  0.00    -0.268 OA
HETATM   41  N4  UNL     1      21.074  36.576  16.242  1.00  0.00    -0.352 N 
ATOM     42  H4  UNL     1      20.240  36.799  15.700  1.00  0.00     0.163 HD
BRANCH  41  43
HETATM   43  C13 UNL     1      21.740  37.625  16.940  1.00  0.00     0.093 C 
HETATM   44  C14 UNL     1      21.333  37.658  18.395  1.00  0.00     0.009 C 
HETATM   45  C15 UNL     1      19.917  38.140  18.531  1.00  0.00     0.011 C 
HETATM   46  C19 UNL     1      22.297  38.579  19.126  1.00  0.00     0.011 C 
HETATM   47  C16 UNL     1      19.800  39.550  18.017  1.00  0.00    -0.013 C 
HETATM   48  C17 UNL     1      20.777  40.473  18.703  1.00  0.00     0.009 C 
HETATM   49  C22 UNL     1      20.132  39.494  16.534  1.00  0.00     0.011 C 
HETATM   50  C18 UNL     1      22.185  39.944  18.505  1.00  0.00    -0.013 C 
HETATM   51  C20 UNL     1      22.500  39.928  17.035  1.00  0.00     0.011 C 
HETATM   52  C21 UNL     1      21.543  38.978  16.344  1.00  0.00     0.009 C 
ENDBRANCH  41  43
ENDBRANCH   4  39
TORSDOF 12
ENDMDL
MODEL 4
REMARK VINA RESULT: -9.666709519      1.410      1.619
REMARK  12 active torsions:
REMARK  status: ('A' for Active; 'I' for Inactive)
REMARK    1  A    between atoms: N2_5  and  C3_6 
REMARK    2  A    between atoms: C3_6  and  C4_7 
REMARK    3  A    between atoms: C4_7  and  N3_8 
REMARK    4  A    between atoms: C7_11  and  C8_12 
REMARK    5  A    between atoms: C11_15  and  C12_16 
REMARK       I    between atoms: C12_16  and  N4_18 
REMARK    6  A    between atoms: N4_18  and  C13_20 
REMARK    7  A    between atoms: C24_31  and  O2_32 
REMARK    8  A    between atoms: O2_32  and  C25_33 
REMARK    9  A    between atoms: C25_33  and  C26_34 
REMARK   10  A    between atoms: N5_37  and  C29_38 
REMARK   11  A    between atoms: C29_38  and  C30_39 
REMARK   12  A    between atoms: C35_49  and  C36_50 
ROOT
HETATM    1  C8  UNL     1      19.239  31.709  13.925  1.00  0.00    -0.017 A 
HETATM    2  C9  UNL     1      20.552  31.914  13.654  1.00  0.00     0.011 A 
HETATM    3  C10 UNL     1      21.241  32.897  14.340  1.00  0.00     0.018 A 
HETATM    4  C11 UNL     1      20.677  33.699  15.303  1.00  0.00     0.034 A 
HETATM    5  C23 UNL     1      19.319  33.469  15.563  1.00  0.00     0.054 A 
HETATM    6  C24 UNL     1      18.617  32.505  14.897  1.00  0.00     0.076 A 
ENDROOT
BRANCH   1   7
HETATM    7  C7  UNL     1      18.385  30.643  13.321  1.00  0.00     0.062 C 
HETATM    8  C6  UNL     1      18.778  30.205  11.965  1.00  0.00     0.057 C 
HETATM    9  C5  UNL     1      19.264  28.763  11.875  1.00  0.00     0.064 C 
HETATM   10  N3  UNL     1      20.211  28.556  12.884  1.00  0.00    -0.369 N 
HETATM   11  C34 UNL     1      19.653  28.654  14.182  1.00  0.00     0.165 C 
HETATM   12  C33 UNL     1      18.419  29.490  14.325  1.00  0.00     0.197 C 
HETATM   13  F3  UNL     1      17.307  28.688  14.223  1.00  0.00    -0.247 F 
BRANCH  10  14
HETATM   14  C4  UNL     1      21.450  27.983  12.712  1.00  0.00     0.086 C 
BRANCH  14  15
HETATM   15  C3  UNL     1      22.256  28.146  11.488  1.00  0.00     0.214 C 
BRANCH  15  16
HETATM   16  N2  UNL     1      22.204  27.110  10.514  1.00  0.00    -0.229 N 
HETATM   17  N1  UNL     1      23.200  26.249  10.232  1.00  0.00    -0.286 N 
HETATM   18  C2  UNL     1      22.830  25.456   9.243  1.00  0.00     0.057 A 
ATOM     19  H1  UNL     1      24.101  26.214  10.709  1.00  0.00     0.188 HD
HETATM   20  C1  UNL     1      23.651  24.365   8.624  1.00  0.00     0.072 C 
HETATM   21  C35 UNL     1      21.548  25.795   8.853  1.00  0.00     0.138 A 
HETATM   22  N6  UNL     1      21.213  26.823   9.671  1.00  0.00    -0.277 N 
ATOM     23  H6  UNL     1      20.319  27.312   9.645  1.00  0.00     0.189 HD
BRANCH  21  24
HETATM   24  C36 UNL     1      20.737  25.187   7.812  1.00  0.00     0.284 C 
HETATM   25  N7  UNL     1      20.018  24.006   8.078  1.00  0.00    -0.056 NA
HETATM   26  O3  UNL     1      20.688  25.733   6.671  1.00  0.00    -0.269 OA
ENDBRANCH  21  24
ENDBRANCH  15  16
ENDBRANCH  14  15
ENDBRANCH  10  14
ENDBRANCH   1   7
BRANCH   6  27
HETATM   27  O2  UNL     1      17.273  32.295  15.162  1.00  0.00    -0.350 OA
BRANCH  27  28
HETATM   28  C25 UNL     1      16.681  32.491  16.414  1.00  0.00     0.180 C 
BRANCH  28  29
HETATM   29  C26 UNL     1      15.536  33.482  16.234  1.00  0.00     0.013 C 
HETATM   30  C27 UNL     1      14.981  33.834  17.581  1.00  0.00     0.037 C 
HETATM   31  C28 UNL     1      14.637  35.312  17.656  1.00  0.00     0.273 C 
HETATM   32  N5  UNL     1      15.729  36.175  17.337  1.00  0.00     0.093 N 
HETATM   33  C31 UNL     1      16.745  35.574  16.524  1.00  0.00     0.273 C 
HETATM   34  C32 UNL     1      16.079  34.682  15.499  1.00  0.00     0.037 C 
BRANCH  32  35
HETATM   35  C29 UNL     1      16.269  36.908  18.449  1.00  0.00     0.343 C 
BRANCH  35  36
HETATM   36  C30 UNL     1      16.008  38.382  18.253  1.00  0.00     0.381 C 
HETATM   37  F1  UNL     1      16.705  39.048  19.245  1.00  0.00    -0.213 F 
HETATM   38  F2  UNL     1      16.572  38.737  17.044  1.00  0.00    -0.213 F 
ENDBRANCH  35  36
ENDBRANCH  32  35
ENDBRANCH  28  29
ENDBRANCH  27  28
ENDBRANCH   6  27
BRANCH   4  39
HETATM   39  C12 UNL     1      21.432  34.717  16.008  1.00  0.00     0.252 C 
HETATM   40  O1  UNL     1      22.544  34.466  16.519  1.00  0.00    -0.268 OA
HETATM   41  N4  UNL     1      20.950  36.055  16.158  1.00  0.00    -0.352 N 
ATOM     42  H4  UNL     1      20.046  36.300  15.754  1.00  0.00     0.163 HD
BRANCH  41  43
HETATM   43  C13 UNL     1      21.686  37.060  16.851  1.00  0.00     0.093 C 
HETATM   44  C14 UNL     1      21.528  36.918  18.348  1.00  0.00     0.009 C 
HETATM   45  C15 UNL     1      20.138  37.308  18.765  1.00  0.00     0.011 C 
HETATM   46  C19 UNL     1      22.567  37.808  19.011  1.00  0.00     0.011 C 
HETATM   47  C16 UNL     1      19.887  38.755  18.438  1.00  0.00    -0.013 C 
HETATM   48  C17 UNL     1      20.932  39.652  19.056  1.00  0.00     0.009 C 
HETATM   49  C22 UNL     1      19.968  38.873  16.924  1.00  0.00     0.011 C 
HETATM   50  C18 UNL     1      22.305  39.223  18.574  1.00  0.00    -0.013 C 
HETATM   51  C20 UNL     1      22.369  39.377  17.080  1.00  0.00     0.011 C 
HETATM   52  C21 UNL     1      21.345  38.456  16.451  1.00  0.00     0.009 C 
ENDBRANCH  41  43
ENDBRANCH   4  39
TORSDOF 12
ENDMDL
MODEL 5
REMARK VINA RESULT: -9.572198316      4.107     13.409
REMARK  12 active torsions:
REMARK  status: ('A' for Active; 'I' for Inactive)
REMARK    1  A    between atoms: N2_5  and  C3_6 
REMARK    2  A    between atoms: C3_6  and  C4_7 
REMARK    3  A    between atoms: C4_7  and  N3_8 
REMARK    4  A    between atoms: C7_11  and  C8_12 
REMARK    5  A    between atoms: C11_15  and  C12_16 
REMARK       I    between atoms: C12_16  and  N4_18 
REMARK    6  A    between atoms: N4_18  and  C13_20 
REMARK    7  A    between atoms: C24_31  and  O2_32 
REMARK    8  A    between atoms: O2_32  and  C25_33 
REMARK    9  A    between atoms: C25_33  and  C26_34 
REMARK   10  A    between atoms: N5_37  and  C29_38 
REMARK   11  A    between atoms: C29_38  and  C30_39 
REMARK   12  A    between atoms: C35_49  and  C36_50 
ROOT
HETATM    1  C8  UNL     1      20.181  28.655  12.591  1.00  0.00    -0.017 A 
HETATM    2  C9  UNL     1      19.042  29.294  12.224  1.00  0.00     0.011 A 
HETATM    3  C10 UNL     1      18.473  29.016  10.995  1.00  0.00     0.018 A 
HETATM    4  C11 UNL     1      18.992  28.114  10.097  1.00  0.00     0.034 A 
HETATM    5  C23 UNL     1      20.170  27.469  10.497  1.00  0.00     0.054 A 
HETATM    6  C24 UNL     1      20.751  27.729  11.707  1.00  0.00     0.076 A 
ENDROOT
BRANCH   1   7
HETATM    7  C7  UNL     1      20.869  28.796  13.909  1.00  0.00     0.062 C 
HETATM    8  C6  UNL     1      21.914  29.840  13.972  1.00  0.00     0.057 C 
HETATM    9  C5  UNL     1      21.598  31.003  14.906  1.00  0.00     0.064 C 
HETATM   10  N3  UNL     1      20.302  31.450  14.626  1.00  0.00    -0.369 N 
HETATM   11  C34 UNL     1      19.314  30.481  14.933  1.00  0.00     0.165 C 
HETATM   12  C33 UNL     1      19.747  29.048  14.917  1.00  0.00     0.197 C 
HETATM   13  F3  UNL     1      20.105  28.663  16.188  1.00  0.00    -0.247 F 
BRANCH  10  14
HETATM   14  C4  UNL     1      19.935  32.760  14.418  1.00  0.00     0.086 C 
BRANCH  14  15
HETATM   15  C3  UNL     1      18.545  33.239  14.522  1.00  0.00     0.214 C 
BRANCH  15  16
HETATM   16  N2  UNL     1      18.151  33.881  15.730  1.00  0.00    -0.229 N 
HETATM   17  N1  UNL     1      18.968  34.192  16.754  1.00  0.00    -0.286 N 
HETATM   18  C2  UNL     1      18.263  34.733  17.731  1.00  0.00     0.057 A 
ATOM     19  H1  UNL     1      19.976  34.034  16.773  1.00  0.00     0.188 HD
HETATM   20  C1  UNL     1      18.791  35.210  19.050  1.00  0.00     0.072 C 
HETATM   21  C35 UNL     1      16.936  34.787  17.348  1.00  0.00     0.138 A 
HETATM   22  N6  UNL     1      16.927  34.247  16.105  1.00  0.00    -0.277 N 
ATOM     23  H6  UNL     1      16.091  34.136  15.532  1.00  0.00     0.189 HD
BRANCH  21  24
HETATM   24  C36 UNL     1      15.807  35.311  18.098  1.00  0.00     0.284 C 
HETATM   25  N7  UNL     1      15.381  36.638  17.897  1.00  0.00    -0.056 NA
HETATM   26  O3  UNL     1      15.217  34.560  18.929  1.00  0.00    -0.269 OA
ENDBRANCH  21  24
ENDBRANCH  15  16
ENDBRANCH  14  15
ENDBRANCH  10  14
ENDBRANCH   1   7
BRANCH   6  27
HETATM   27  O2  UNL     1      21.920  27.088  12.084  1.00  0.00    -0.350 OA
BRANCH  27  28
HETATM   28  C25 UNL     1      23.183  27.391  11.567  1.00  0.00     0.180 C 
BRANCH  28  29
HETATM   29  C26 UNL     1      23.844  26.079  11.157  1.00  0.00     0.013 C 
HETATM   30  C27 UNL     1      22.842  25.239  10.424  1.00  0.00     0.037 C 
HETATM   31  C28 UNL     1      23.490  24.525   9.249  1.00  0.00     0.273 C 
HETATM   32  N5  UNL     1      24.153  25.401   8.338  1.00  0.00     0.093 N 
HETATM   33  C31 UNL     1      24.554  26.656   8.902  1.00  0.00     0.273 C 
HETATM   34  C32 UNL     1      25.047  26.415  10.312  1.00  0.00     0.037 C 
BRANCH  32  35
HETATM   35  C29 UNL     1      23.511  25.547   7.060  1.00  0.00     0.343 C 
BRANCH  35  36
HETATM   36  C30 UNL     1      24.169  24.627   6.060  1.00  0.00     0.381 C 
HETATM   37  F1  UNL     1      24.249  25.324   4.867  1.00  0.00    -0.213 F 
HETATM   38  F2  UNL     1      25.460  24.408   6.496  1.00  0.00    -0.213 F 
ENDBRANCH  35  36
ENDBRANCH  32  35
ENDBRANCH  28  29
ENDBRANCH  27  28
ENDBRANCH   6  27
BRANCH   4  39
HETATM   39  C12 UNL     1      18.365  27.842   8.817  1.00  0.00     0.252 C 
HETATM   40  O1  UNL     1      17.468  28.581   8.361  1.00  0.00    -0.268 OA
HETATM   41  N4  UNL     1      18.736  26.720   8.011  1.00  0.00    -0.352 N 
ATOM     42  H4  UNL     1      19.466  26.093   8.349  1.00  0.00     0.163 HD
BRANCH  41  43
HETATM   43  C13 UNL     1      18.124  26.445   6.754  1.00  0.00     0.093 C 
HETATM   44  C14 UNL     1      17.899  24.961   6.569  1.00  0.00     0.009 C 
HETATM   45  C15 UNL     1      19.208  24.257   6.357  1.00  0.00     0.011 C 
HETATM   46  C19 UNL     1      16.979  24.777   5.373  1.00  0.00     0.011 C 
HETATM   47  C16 UNL     1      19.866  24.756   5.098  1.00  0.00    -0.013 C 
HETATM   48  C17 UNL     1      18.953  24.617   3.905  1.00  0.00     0.009 C 
HETATM   49  C22 UNL     1      20.161  26.231   5.324  1.00  0.00     0.011 C 
HETATM   50  C18 UNL     1      17.664  25.371   4.173  1.00  0.00    -0.013 C 
HETATM   51  C20 UNL     1      17.980  26.829   4.362  1.00  0.00     0.011 C 
HETATM   52  C21 UNL     1      18.870  26.979   5.579  1.00  0.00     0.009 C 
ENDBRANCH  41  43
ENDBRANCH   4  39
TORSDOF 12
ENDMDL
