MODEL 1
REMARK VINA RESULT: -7.293379498      0.000      0.000
REMARK  4 active torsions:
REMARK  status: ('A' for Active; 'I' for Inactive)
REMARK    1  A    between atoms: C2_2  and  C3_3 
REMARK    2  A    between atoms: C2_2  and  C6_6 
REMARK    3  A    between atoms: C7_7  and  O1_8 
REMARK       I    between atoms: N1_15  and  C13_16 
REMARK       I    between atoms: C13_16  and  N2_18 
REMARK    4  A    between atoms: N2_18  and  C14_20 
ROOT
HETATM    1  C3  UNL     1      48.756  53.791  10.405  1.00  0.00    -0.070 C 
HETATM    2  C4  UNL     1      48.667  54.843  10.992  1.00  0.00    -0.106 C 
HETATM    3  C5  UNL     1      48.573  56.126  11.695  1.00  0.00     0.112 C 
ENDROOT
BRANCH   1   4
HETATM    4  C2  UNL     1      48.879  52.518   9.699  1.00  0.00     0.011 C 
HETATM    5  C1  UNL     1      47.919  52.202   8.878  1.00  0.00     0.031 C 
BRANCH   4   6
HETATM    6  C6  UNL     1      50.080  51.675   9.973  1.00  0.00     0.159 C 
HETATM    7  C7  UNL     1      49.864  50.681  11.037  1.00  0.00     0.156 C 
HETATM    8  C8  UNL     1      50.681  49.493  10.610  1.00  0.00     0.062 C 
HETATM    9  C9  UNL     1      50.005  48.213  10.863  1.00  0.00    -0.021 C 
HETATM   10  C12 UNL     1      50.701  49.618   9.095  1.00  0.00     0.103 C 
HETATM   11  C10 UNL     1      49.340  47.849   9.807  1.00  0.00    -0.028 C 
HETATM   12  C11 UNL     1      49.493  48.843   8.726  1.00  0.00     0.053 C 
HETATM   13  N1  UNL     1      50.654  51.039   8.860  1.00  0.00    -0.317 N 
HETATM   14  C13 UNL     1      51.167  51.642   7.668  1.00  0.00     0.319 C 
HETATM   15  O2  UNL     1      51.135  52.886   7.576  1.00  0.00    -0.247 OA
HETATM   16  N2  UNL     1      51.702  50.889   6.602  1.00  0.00    -0.339 N 
ATOM     17  H2  UNL     1      51.721  49.873   6.688  1.00  0.00     0.164 HD
BRANCH   7  18
HETATM   18  O1  UNL     1      48.500  50.387  11.085  1.00  0.00    -0.392 OA
ATOM     19  H1  UNL     1      48.221  50.135  10.213  1.00  0.00     0.210 HD
ENDBRANCH   7  18
BRANCH  16  20
HETATM   20  C14 UNL     1      52.218  51.476   5.407  1.00  0.00     0.078 C 
HETATM   21  C15 UNL     1      52.136  50.604   4.196  1.00  0.00     0.032 C 
HETATM   22  C16 UNL     1      53.673  51.880   5.618  1.00  0.00     0.032 C 
ENDBRANCH  16  20
ENDBRANCH   4   6
ENDBRANCH   1   4
TORSDOF 4
ENDMDL
MODEL 2
REMARK VINA RESULT: -7.188337728      2.830      3.985
REMARK  4 active torsions:
REMARK  status: ('A' for Active; 'I' for Inactive)
REMARK    1  A    between atoms: C2_2  and  C3_3 
REMARK    2  A    between atoms: C2_2  and  C6_6 
REMARK    3  A    between atoms: C7_7  and  O1_8 
REMARK       I    between atoms: N1_15  and  C13_16 
REMARK       I    between atoms: C13_16  and  N2_18 
REMARK    4  A    between atoms: N2_18  and  C14_20 
ROOT
HETATM    1  C3  UNL     1      49.910  53.931   9.266  1.00  0.00    -0.070 C 
HETATM    2  C4  UNL     1      50.674  54.848   9.078  1.00  0.00    -0.106 C 
HETATM    3  C5  UNL     1      51.614  55.950   8.858  1.00  0.00     0.112 C 
ENDROOT
BRANCH   1   4
HETATM    4  C2  UNL     1      48.989  52.822   9.510  1.00  0.00     0.011 C 
HETATM    5  C1  UNL     1      47.831  53.118  10.026  1.00  0.00     0.031 C 
BRANCH   4   6
HETATM    6  C6  UNL     1      49.440  51.444   9.159  1.00  0.00     0.159 C 
HETATM    7  C7  UNL     1      50.339  50.852  10.163  1.00  0.00     0.156 C 
HETATM    8  C8  UNL     1      49.994  49.388  10.156  1.00  0.00     0.062 C 
HETATM    9  C9  UNL     1      49.979  48.797  11.501  1.00  0.00    -0.021 C 
HETATM   10  C12 UNL     1      48.537  49.381   9.723  1.00  0.00     0.103 C 
HETATM   11  C10 UNL     1      48.776  48.845  11.991  1.00  0.00    -0.028 C 
HETATM   12  C11 UNL     1      47.847  49.475  11.031  1.00  0.00     0.053 C 
HETATM   13  N1  UNL     1      48.426  50.523   8.850  1.00  0.00    -0.317 N 
HETATM   14  C13 UNL     1      47.432  50.617   7.824  1.00  0.00     0.319 C 
HETATM   15  O2  UNL     1      47.448  51.618   7.079  1.00  0.00    -0.247 OA
HETATM   16  N2  UNL     1      46.444  49.630   7.627  1.00  0.00    -0.339 N 
ATOM     17  H2  UNL     1      46.442  48.817   8.243  1.00  0.00     0.164 HD
BRANCH   7  18
HETATM   18  O1  UNL     1      50.064  51.447  11.397  1.00  0.00    -0.392 OA
ATOM     19  H1  UNL     1      50.720  52.115  11.555  1.00  0.00     0.210 HD
ENDBRANCH   7  18
BRANCH  16  20
HETATM   20  C14 UNL     1      45.448  49.710   6.607  1.00  0.00     0.078 C 
HETATM   21  C15 UNL     1      44.087  49.256   7.027  1.00  0.00     0.032 C 
HETATM   22  C16 UNL     1      45.881  48.891   5.397  1.00  0.00     0.032 C 
ENDBRANCH  16  20
ENDBRANCH   4   6
ENDBRANCH   1   4
TORSDOF 4
ENDMDL
MODEL 3
REMARK VINA RESULT: -7.155496692      2.091      5.106
REMARK  4 active torsions:
REMARK  status: ('A' for Active; 'I' for Inactive)
REMARK    1  A    between atoms: C2_2  and  C3_3 
REMARK    2  A    between atoms: C2_2  and  C6_6 
REMARK    3  A    between atoms: C7_7  and  O1_8 
REMARK       I    between atoms: N1_15  and  C13_16 
REMARK       I    between atoms: C13_16  and  N2_18 
REMARK    4  A    between atoms: N2_18  and  C14_20 
ROOT
HETATM    1  C3  UNL     1      47.489  52.670   9.116  1.00  0.00    -0.070 C 
HETATM    2  C4  UNL     1      47.984  53.479   9.865  1.00  0.00    -0.106 C 
HETATM    3  C5  UNL     1      48.595  54.466  10.760  1.00  0.00     0.112 C 
ENDROOT
BRANCH   1   4
HETATM    4  C2  UNL     1      46.904  51.686   8.207  1.00  0.00     0.011 C 
HETATM    5  C1  UNL     1      45.710  51.937   7.754  1.00  0.00     0.031 C 
BRANCH   4   6
HETATM    6  C6  UNL     1      47.707  50.473   7.874  1.00  0.00     0.159 C 
HETATM    7  C7  UNL     1      48.598  50.664   6.717  1.00  0.00     0.156 C 
HETATM    8  C8  UNL     1      49.814  49.842   7.043  1.00  0.00     0.062 C 
HETATM    9  C9  UNL     1      51.071  50.501   6.661  1.00  0.00    -0.021 C 
HETATM   10  C12 UNL     1      49.833  49.845   8.564  1.00  0.00     0.103 C 
HETATM   11  C10 UNL     1      51.538  51.178   7.667  1.00  0.00    -0.028 C 
HETATM   12  C11 UNL     1      50.649  51.051   8.839  1.00  0.00     0.053 C 
HETATM   13  N1  UNL     1      48.440  49.910   8.931  1.00  0.00    -0.317 N 
HETATM   14  C13 UNL     1      47.948  49.420  10.182  1.00  0.00     0.319 C 
HETATM   15  O2  UNL     1      46.718  49.465  10.390  1.00  0.00    -0.247 OA
HETATM   16  N2  UNL     1      48.794  48.893  11.181  1.00  0.00    -0.339 N 
ATOM     17  H2  UNL     1      49.797  48.863  10.999  1.00  0.00     0.164 HD
BRANCH   7  18
HETATM   18  O1  UNL     1      48.898  52.025   6.620  1.00  0.00    -0.392 OA
ATOM     19  H1  UNL     1      49.177  52.203   5.730  1.00  0.00     0.210 HD
ENDBRANCH   7  18
BRANCH  16  20
HETATM   20  C14 UNL     1      48.317  48.400  12.433  1.00  0.00     0.078 C 
HETATM   21  C15 UNL     1      49.297  48.499  13.557  1.00  0.00     0.032 C 
HETATM   22  C16 UNL     1      47.892  46.944  12.286  1.00  0.00     0.032 C 
ENDBRANCH  16  20
ENDBRANCH   4   6
ENDBRANCH   1   4
TORSDOF 4
ENDMDL
MODEL 4
REMARK VINA RESULT: -7.141710655      2.461      5.108
REMARK  4 active torsions:
REMARK  status: ('A' for Active; 'I' for Inactive)
REMARK    1  A    between atoms: C2_2  and  C3_3 
REMARK    2  A    between atoms: C2_2  and  C6_6 
REMARK    3  A    between atoms: C7_7  and  O1_8 
REMARK       I    between atoms: N1_15  and  C13_16 
REMARK       I    between atoms: C13_16  and  N2_18 
REMARK    4  A    between atoms: N2_18  and  C14_20 
ROOT
HETATM    1  C3  UNL     1      51.580  51.236   7.564  1.00  0.00    -0.070 C 
HETATM    2  C4  UNL     1      52.458  51.492   6.775  1.00  0.00    -0.106 C 
HETATM    3  C5  UNL     1      53.521  51.821   5.821  1.00  0.00     0.112 C 
ENDROOT
BRANCH   1   4
HETATM    4  C2  UNL     1      50.508  50.934   8.510  1.00  0.00     0.011 C 
HETATM    5  C1  UNL     1      50.194  51.865   9.364  1.00  0.00     0.031 C 
BRANCH   4   6
HETATM    6  C6  UNL     1      49.861  49.591   8.435  1.00  0.00     0.159 C 
HETATM    7  C7  UNL     1      50.548  48.568   9.239  1.00  0.00     0.156 C 
HETATM    8  C8  UNL     1      49.441  47.684   9.744  1.00  0.00     0.062 C 
HETATM    9  C9  UNL     1      49.636  47.261  11.138  1.00  0.00    -0.021 C 
HETATM   10  C12 UNL     1      48.248  48.626   9.797  1.00  0.00     0.103 C 
HETATM   11  C10 UNL     1      49.032  48.089  11.938  1.00  0.00    -0.028 C 
HETATM   12  C11 UNL     1      48.365  49.162  11.173  1.00  0.00     0.053 C 
HETATM   13  N1  UNL     1      48.486  49.553   8.719  1.00  0.00    -0.317 N 
HETATM   14  C13 UNL     1      47.430  50.261   8.063  1.00  0.00     0.319 C 
HETATM   15  O2  UNL     1      47.725  51.001   7.102  1.00  0.00    -0.247 OA
HETATM   16  N2  UNL     1      46.080  50.156   8.459  1.00  0.00    -0.339 N 
ATOM     17  H2  UNL     1      45.852  49.549   9.246  1.00  0.00     0.164 HD
BRANCH   7  18
HETATM   18  O1  UNL     1      51.218  49.212  10.282  1.00  0.00    -0.392 OA
ATOM     19  H1  UNL     1      50.757  49.022  11.091  1.00  0.00     0.210 HD
ENDBRANCH   7  18
BRANCH  16  20
HETATM   20  C14 UNL     1      45.016  50.856   7.813  1.00  0.00     0.078 C 
HETATM   21  C15 UNL     1      44.438  51.983   8.606  1.00  0.00     0.032 C 
HETATM   22  C16 UNL     1      43.896  49.882   7.464  1.00  0.00     0.032 C 
ENDBRANCH  16  20
ENDBRANCH   4   6
ENDBRANCH   1   4
TORSDOF 4
ENDMDL
MODEL 5
REMARK VINA RESULT: -7.094878078      2.510      6.815
REMARK  4 active torsions:
REMARK  status: ('A' for Active; 'I' for Inactive)
REMARK    1  A    between atoms: C2_2  and  C3_3 
REMARK    2  A    between atoms: C2_2  and  C6_6 
REMARK    3  A    between atoms: C7_7  and  O1_8 
REMARK       I    between atoms: N1_15  and  C13_16 
REMARK       I    between atoms: C13_16  and  N2_18 
REMARK    4  A    between atoms: N2_18  and  C14_20 
ROOT
HETATM    1  C3  UNL     1      50.687  48.960   3.755  1.00  0.00    -0.070 C 
HETATM    2  C4  UNL     1      50.696  47.958   3.080  1.00  0.00    -0.106 C 
HETATM    3  C5  UNL     1      50.690  46.740   2.265  1.00  0.00     0.112 C 
ENDROOT
BRANCH   1   4
HETATM    4  C2  UNL     1      50.670  50.163   4.585  1.00  0.00     0.011 C 
HETATM    5  C1  UNL     1      49.628  50.937   4.481  1.00  0.00     0.031 C 
BRANCH   4   6
HETATM    6  C6  UNL     1      51.839  50.420   5.476  1.00  0.00     0.159 C 
HETATM    7  C7  UNL     1      52.822  51.347   4.894  1.00  0.00     0.156 C 
HETATM    8  C8  UNL     1      53.351  52.118   6.072  1.00  0.00     0.062 C 
HETATM    9  C9  UNL     1      53.548  53.545   5.781  1.00  0.00    -0.021 C 
HETATM   10  C12 UNL     1      52.186  52.089   7.050  1.00  0.00     0.103 C 
HETATM   11  C10 UNL     1      52.483  54.214   6.110  1.00  0.00    -0.028 C 
HETATM   12  C11 UNL     1      51.449  53.313   6.657  1.00  0.00     0.053 C 
HETATM   13  N1  UNL     1      51.538  50.830   6.784  1.00  0.00    -0.317 N 
HETATM   14  C13 UNL     1      50.754  50.143   7.766  1.00  0.00     0.319 C 
HETATM   15  O2  UNL     1      50.277  49.030   7.464  1.00  0.00    -0.247 OA
HETATM   16  N2  UNL     1      50.502  50.673   9.048  1.00  0.00    -0.339 N 
ATOM     17  H2  UNL     1      50.897  51.584   9.282  1.00  0.00     0.164 HD
BRANCH   7  18
HETATM   18  O1  UNL     1      52.156  52.173   3.986  1.00  0.00    -0.392 OA
ATOM     19  H1  UNL     1      51.250  52.244   4.262  1.00  0.00     0.210 HD
ENDBRANCH   7  18
BRANCH  16  20
HETATM   20  C14 UNL     1      49.723  49.999  10.037  1.00  0.00     0.078 C 
HETATM   21  C15 UNL     1      48.372  50.591  10.278  1.00  0.00     0.032 C 
HETATM   22  C16 UNL     1      50.482  49.968  11.358  1.00  0.00     0.032 C 
ENDBRANCH  16  20
ENDBRANCH   4   6
ENDBRANCH   1   4
TORSDOF 4
ENDMDL
