MODEL 1
REMARK VINA RESULT: -6.357264225      0.000      0.000
REMARK  3 active torsions:
REMARK  status: ('A' for Active; 'I' for Inactive)
REMARK    1  A    between atoms: C3_3  and  C4_4 
REMARK    2  A    between atoms: C4_4  and  C5_5 
REMARK    3  A    between atoms: C5_5  and  C6_6 
ROOT
HETATM    1  C1  UNL     1      -4.076  -1.294  16.151  1.00  0.00     0.012 C 
HETATM    2  C2  UNL     1      -3.772  -2.350  15.664  1.00  0.00    -0.117 C 
HETATM    3  C3  UNL     1      -3.395  -3.637  15.046  1.00  0.00     0.093 C 
ENDROOT
BRANCH   3   4
HETATM    4  C4  UNL     1      -2.616  -4.489  16.061  1.00  0.00     0.014 C 
BRANCH   4   5
HETATM    5  C5  UNL     1      -3.567  -4.766  17.188  1.00  0.00     0.026 C 
BRANCH   5   6
HETATM    6  C6  UNL     1      -4.642  -5.757  16.858  1.00  0.00     0.083 C 
HETATM    7  C7  UNL     1      -6.024  -5.158  17.001  1.00  0.00     0.027 C 
HETATM    8  C8  UNL     1      -6.761  -6.111  17.951  1.00  0.00     0.022 C 
HETATM    9  C9  UNL     1      -5.994  -7.402  17.653  1.00  0.00     0.122 C 
HETATM   10  N1  UNL     1      -4.640  -6.921  17.697  1.00  0.00    -0.395 N 
HETATM   11  C10 UNL     1      -3.655  -7.432  18.345  1.00  0.00     0.115 C 
ENDBRANCH   5   6
ENDBRANCH   4   5
ENDBRANCH   3   4
TORSDOF 3
ENDMDL
MODEL 2
REMARK VINA RESULT: -6.343744691      1.844      4.610
REMARK  3 active torsions:
REMARK  status: ('A' for Active; 'I' for Inactive)
REMARK    1  A    between atoms: C3_3  and  C4_4 
REMARK    2  A    between atoms: C4_4  and  C5_5 
REMARK    3  A    between atoms: C5_5  and  C6_6 
ROOT
HETATM    1  C1  UNL     1      -7.802  -8.047  17.056  1.00  0.00     0.012 C 
HETATM    2  C2  UNL     1      -6.665  -7.797  17.357  1.00  0.00    -0.117 C 
HETATM    3  C3  UNL     1      -5.262  -7.502  17.711  1.00  0.00     0.093 C 
ENDROOT
BRANCH   3   4
HETATM    4  C4  UNL     1      -5.142  -6.042  18.174  1.00  0.00     0.014 C 
BRANCH   4   5
HETATM    5  C5  UNL     1      -3.696  -5.673  18.017  1.00  0.00     0.026 C 
BRANCH   5   6
HETATM    6  C6  UNL     1      -3.464  -4.390  17.277  1.00  0.00     0.083 C 
HETATM    7  C7  UNL     1      -4.520  -4.150  16.221  1.00  0.00     0.027 C 
HETATM    8  C8  UNL     1      -3.728  -3.931  14.926  1.00  0.00     0.022 C 
HETATM    9  C9  UNL     1      -2.424  -3.393  15.521  1.00  0.00     0.122 C 
HETATM   10  N1  UNL     1      -2.208  -4.335  16.585  1.00  0.00    -0.395 N 
HETATM   11  C10 UNL     1      -1.127  -4.977  16.848  1.00  0.00     0.115 C 
ENDBRANCH   5   6
ENDBRANCH   4   5
ENDBRANCH   3   4
TORSDOF 3
ENDMDL
MODEL 3
REMARK VINA RESULT: -6.320366674      1.880      3.041
REMARK  3 active torsions:
REMARK  status: ('A' for Active; 'I' for Inactive)
REMARK    1  A    between atoms: C3_3  and  C4_4 
REMARK    2  A    between atoms: C4_4  and  C5_5 
REMARK    3  A    between atoms: C5_5  and  C6_6 
ROOT
HETATM    1  C1  UNL     1      -4.392  -3.310  16.204  1.00  0.00     0.012 C 
HETATM    2  C2  UNL     1      -4.137  -4.417  16.600  1.00  0.00    -0.117 C 
HETATM    3  C3  UNL     1      -3.803  -5.771  17.082  1.00  0.00     0.093 C 
ENDROOT
BRANCH   3   4
HETATM    4  C4  UNL     1      -4.763  -6.168  18.215  1.00  0.00     0.014 C 
BRANCH   4   5
HETATM    5  C5  UNL     1      -5.685  -7.200  17.637  1.00  0.00     0.026 C 
BRANCH   5   6
HETATM    6  C6  UNL     1      -6.958  -6.643  17.075  1.00  0.00     0.083 C 
HETATM    7  C7  UNL     1      -7.547  -5.573  17.968  1.00  0.00     0.027 C 
HETATM    8  C8  UNL     1      -8.985  -6.038  18.231  1.00  0.00     0.022 C 
HETATM    9  C9  UNL     1      -9.217  -6.859  16.959  1.00  0.00     0.122 C 
HETATM   10  N1  UNL     1      -7.998  -7.618  16.907  1.00  0.00    -0.395 N 
HETATM   11  C10 UNL     1      -7.879  -8.886  16.743  1.00  0.00     0.115 C 
ENDBRANCH   5   6
ENDBRANCH   4   5
ENDBRANCH   3   4
TORSDOF 3
ENDMDL
MODEL 4
REMARK VINA RESULT: -6.320143899      1.579      4.888
REMARK  3 active torsions:
REMARK  status: ('A' for Active; 'I' for Inactive)
REMARK    1  A    between atoms: C3_3  and  C4_4 
REMARK    2  A    between atoms: C4_4  and  C5_5 
REMARK    3  A    between atoms: C5_5  and  C6_6 
ROOT
HETATM    1  C1  UNL     1      -8.352  -8.676  17.030  1.00  0.00     0.012 C 
HETATM    2  C2  UNL     1      -7.293  -8.143  17.232  1.00  0.00    -0.117 C 
HETATM    3  C3  UNL     1      -5.984  -7.499  17.463  1.00  0.00     0.093 C 
ENDROOT
BRANCH   3   4
HETATM    4  C4  UNL     1      -6.196  -6.049  17.925  1.00  0.00     0.014 C 
BRANCH   4   5
HETATM    5  C5  UNL     1      -5.385  -5.194  16.998  1.00  0.00     0.026 C 
BRANCH   5   6
HETATM    6  C6  UNL     1      -3.946  -5.600  16.885  1.00  0.00     0.083 C 
HETATM    7  C7  UNL     1      -3.278  -5.690  18.239  1.00  0.00     0.027 C 
HETATM    8  C8  UNL     1      -2.043  -4.788  18.121  1.00  0.00     0.022 C 
HETATM    9  C9  UNL     1      -1.805  -4.888  16.612  1.00  0.00     0.122 C 
HETATM   10  N1  UNL     1      -3.141  -4.691  16.119  1.00  0.00    -0.395 N 
HETATM   11  C10 UNL     1      -3.517  -3.880  15.197  1.00  0.00     0.115 C 
ENDBRANCH   5   6
ENDBRANCH   4   5
ENDBRANCH   3   4
TORSDOF 3
ENDMDL
MODEL 5
REMARK VINA RESULT: -6.316961559      1.594      4.739
REMARK  3 active torsions:
REMARK  status: ('A' for Active; 'I' for Inactive)
REMARK    1  A    between atoms: C3_3  and  C4_4 
REMARK    2  A    between atoms: C4_4  and  C5_5 
REMARK    3  A    between atoms: C5_5  and  C6_6 
ROOT
HETATM    1  C1  UNL     1      -8.611  -6.436  17.714  1.00  0.00     0.012 C 
HETATM    2  C2  UNL     1      -7.472  -6.814  17.648  1.00  0.00    -0.117 C 
HETATM    3  C3  UNL     1      -6.077  -7.290  17.548  1.00  0.00     0.093 C 
ENDROOT
BRANCH   3   4
HETATM    4  C4  UNL     1      -5.124  -6.209  18.081  1.00  0.00     0.014 C 
BRANCH   4   5
HETATM    5  C5  UNL     1      -5.216  -5.061  17.119  1.00  0.00     0.026 C 
BRANCH   5   6
HETATM    6  C6  UNL     1      -4.058  -4.956  16.172  1.00  0.00     0.083 C 
HETATM    7  C7  UNL     1      -2.864  -5.752  16.653  1.00  0.00     0.027 C 
HETATM    8  C8  UNL     1      -1.709  -4.742  16.673  1.00  0.00     0.022 C 
HETATM    9  C9  UNL     1      -2.204  -3.778  15.591  1.00  0.00     0.122 C 
HETATM   10  N1  UNL     1      -3.576  -3.617  15.986  1.00  0.00    -0.395 N 
HETATM   11  C10 UNL     1      -4.218  -2.514  16.133  1.00  0.00     0.115 C 
ENDBRANCH   5   6
ENDBRANCH   4   5
ENDBRANCH   3   4
TORSDOF 3
ENDMDL
