MODEL 1
REMARK VINA RESULT: -6.924895180      0.000      0.000
REMARK  3 active torsions:
REMARK  status: ('A' for Active; 'I' for Inactive)
REMARK    1  A    between atoms: C2_2  and  C3_3 
REMARK    2  A    between atoms: C3_3  and  C4_4 
REMARK    3  A    between atoms: C4_4  and  N1_5 
ROOT
HETATM    1  N1  UNL     1      -4.155  -5.294  16.925  1.00  0.00     0.088 N 
HETATM    2  C5  UNL     1      -5.568  -5.058  16.931  1.00  0.00     0.272 C 
HETATM    3  C6  UNL     1      -6.427  -6.257  17.126  1.00  0.00     0.030 C 
HETATM    4  C7  UNL     1      -5.804  -7.491  17.619  1.00  0.00     0.003 C 
HETATM    5  C8  UNL     1      -4.359  -7.414  17.987  1.00  0.00     0.030 C 
HETATM    6  C9  UNL     1      -3.829  -6.033  18.129  1.00  0.00     0.272 C 
ENDROOT
BRANCH   1   7
HETATM    7  C4  UNL     1      -3.394  -4.105  16.776  1.00  0.00     0.276 C 
BRANCH   7   8
HETATM    8  C3  UNL     1      -3.891  -3.264  15.631  1.00  0.00     0.056 C 
BRANCH   8   9
HETATM    9  C2  UNL     1      -4.090  -1.890  16.201  1.00  0.00    -0.035 C 
HETATM   10  C1  UNL     1      -3.593  -0.792  15.681  1.00  0.00     0.007 C 
ENDBRANCH   8   9
ENDBRANCH   7   8
ENDBRANCH   1   7
TORSDOF 3
ENDMDL
MODEL 2
REMARK VINA RESULT: -6.877969818      0.384      1.566
REMARK  3 active torsions:
REMARK  status: ('A' for Active; 'I' for Inactive)
REMARK    1  A    between atoms: C2_2  and  C3_3 
REMARK    2  A    between atoms: C3_3  and  C4_4 
REMARK    3  A    between atoms: C4_4  and  N1_5 
ROOT
HETATM    1  N1  UNL     1      -4.230  -5.042  17.385  1.00  0.00     0.088 N 
HETATM    2  C5  UNL     1      -3.608  -6.331  17.399  1.00  0.00     0.272 C 
HETATM    3  C6  UNL     1      -4.480  -7.471  17.793  1.00  0.00     0.030 C 
HETATM    4  C7  UNL     1      -5.933  -7.266  17.807  1.00  0.00     0.003 C 
HETATM    5  C8  UNL     1      -6.431  -5.945  17.321  1.00  0.00     0.030 C 
HETATM    6  C9  UNL     1      -5.428  -5.142  16.574  1.00  0.00     0.272 C 
ENDROOT
BRANCH   1   7
HETATM    7  C4  UNL     1      -3.355  -4.007  16.963  1.00  0.00     0.276 C 
BRANCH   7   8
HETATM    8  C3  UNL     1      -3.884  -3.289  15.750  1.00  0.00     0.056 C 
BRANCH   8   9
HETATM    9  C2  UNL     1      -4.088  -1.867  16.184  1.00  0.00    -0.035 C 
HETATM   10  C1  UNL     1      -3.551  -0.826  15.591  1.00  0.00     0.007 C 
ENDBRANCH   8   9
ENDBRANCH   7   8
ENDBRANCH   1   7
TORSDOF 3
ENDMDL
MODEL 3
REMARK VINA RESULT: -6.176866802      1.389      4.494
REMARK  3 active torsions:
REMARK  status: ('A' for Active; 'I' for Inactive)
REMARK    1  A    between atoms: C2_2  and  C3_3 
REMARK    2  A    between atoms: C3_3  and  C4_4 
REMARK    3  A    between atoms: C4_4  and  N1_5 
ROOT
HETATM    1  N1  UNL     1      -3.996  -5.127  17.506  1.00  0.00     0.088 N 
HETATM    2  C5  UNL     1      -4.763  -4.492  16.477  1.00  0.00     0.272 C 
HETATM    3  C6  UNL     1      -4.000  -3.631  15.534  1.00  0.00     0.030 C 
HETATM    4  C7  UNL     1      -2.538  -3.752  15.505  1.00  0.00     0.003 C 
HETATM    5  C8  UNL     1      -1.933  -4.814  16.361  1.00  0.00     0.030 C 
HETATM    6  C9  UNL     1      -2.898  -5.826  16.867  1.00  0.00     0.272 C 
ENDROOT
BRANCH   1   7
HETATM    7  C4  UNL     1      -4.777  -5.964  18.345  1.00  0.00     0.276 C 
BRANCH   7   8
HETATM    8  C3  UNL     1      -5.123  -7.265  17.670  1.00  0.00     0.056 C 
BRANCH   8   9
HETATM    9  C2  UNL     1      -6.622  -7.342  17.696  1.00  0.00    -0.035 C 
HETATM   10  C1  UNL     1      -7.333  -8.183  16.982  1.00  0.00     0.007 C 
ENDBRANCH   8   9
ENDBRANCH   7   8
ENDBRANCH   1   7
TORSDOF 3
ENDMDL
MODEL 4
REMARK VINA RESULT: -6.169069719      1.585      4.833
REMARK  3 active torsions:
REMARK  status: ('A' for Active; 'I' for Inactive)
REMARK    1  A    between atoms: C2_2  and  C3_3 
REMARK    2  A    between atoms: C3_3  and  C4_4 
REMARK    3  A    between atoms: C4_4  and  N1_5 
ROOT
HETATM    1  N1  UNL     1      -4.130  -5.521  17.075  1.00  0.00     0.088 N 
HETATM    2  C5  UNL     1      -2.814  -5.374  17.620  1.00  0.00     0.272 C 
HETATM    3  C6  UNL     1      -1.784  -4.831  16.694  1.00  0.00     0.030 C 
HETATM    4  C7  UNL     1      -2.228  -4.189  15.452  1.00  0.00     0.003 C 
HETATM    5  C8  UNL     1      -3.702  -4.039  15.262  1.00  0.00     0.030 C 
HETATM    6  C9  UNL     1      -4.509  -4.249  16.493  1.00  0.00     0.272 C 
ENDROOT
BRANCH   1   7
HETATM    7  C4  UNL     1      -5.072  -6.005  18.020  1.00  0.00     0.276 C 
BRANCH   7   8
HETATM    8  C3  UNL     1      -5.514  -7.408  17.699  1.00  0.00     0.056 C 
BRANCH   8   9
HETATM    9  C2  UNL     1      -6.986  -7.311  17.423  1.00  0.00    -0.035 C 
HETATM   10  C1  UNL     1      -7.754  -8.334  17.127  1.00  0.00     0.007 C 
ENDBRANCH   8   9
ENDBRANCH   7   8
ENDBRANCH   1   7
TORSDOF 3
ENDMDL
MODEL 5
REMARK VINA RESULT: -6.141129775      1.295      1.818
REMARK  3 active torsions:
REMARK  status: ('A' for Active; 'I' for Inactive)
REMARK    1  A    between atoms: C2_2  and  C3_3 
REMARK    2  A    between atoms: C3_3  and  C4_4 
REMARK    3  A    between atoms: C4_4  and  N1_5 
ROOT
HETATM    1  N1  UNL     1      -4.190  -5.050  16.860  1.00  0.00     0.088 N 
HETATM    2  C5  UNL     1      -5.620  -5.018  16.924  1.00  0.00     0.272 C 
HETATM    3  C6  UNL     1      -6.289  -6.320  17.188  1.00  0.00     0.030 C 
HETATM    4  C7  UNL     1      -5.476  -7.436  17.684  1.00  0.00     0.003 C 
HETATM    5  C8  UNL     1      -4.043  -7.143  17.984  1.00  0.00     0.030 C 
HETATM    6  C9  UNL     1      -3.711  -5.696  18.066  1.00  0.00     0.272 C 
ENDROOT
BRANCH   1   7
HETATM    7  C4  UNL     1      -3.614  -3.771  16.645  1.00  0.00     0.276 C 
BRANCH   7   8
HETATM    8  C3  UNL     1      -3.161  -3.594  15.221  1.00  0.00     0.056 C 
BRANCH   8   9
HETATM    9  C2  UNL     1      -1.944  -4.461  15.078  1.00  0.00    -0.035 C 
HETATM   10  C1  UNL     1      -0.711  -4.010  15.059  1.00  0.00     0.007 C 
ENDBRANCH   8   9
ENDBRANCH   7   8
ENDBRANCH   1   7
TORSDOF 3
ENDMDL
