MODEL 1
REMARK VINA RESULT: -6.818667299      0.000      0.000
REMARK  3 active torsions:
REMARK  status: ('A' for Active; 'I' for Inactive)
REMARK       I    between atoms: C1_2  and  N1_3 
REMARK    1  A    between atoms: C1_2  and  C5_8 
REMARK    2  A    between atoms: N1_3  and  C2_5 
REMARK    3  A    between atoms: N2_12  and  C9_13 
ROOT
HETATM    1  C5  UNL     1      -4.190  -3.368  15.865  1.00  0.00     0.314 C 
HETATM    2  C6  UNL     1      -4.733  -2.008  16.366  1.00  0.00     0.047 C 
HETATM    3  C7  UNL     1      -3.915  -1.073  15.511  1.00  0.00     0.033 C 
HETATM    4  C8  UNL     1      -2.562  -1.756  15.531  1.00  0.00     0.274 C 
HETATM    5  N2  UNL     1      -2.770  -3.101  16.009  1.00  0.00     0.106 N 
ENDROOT
BRANCH   1   6
HETATM    6  C1  UNL     1      -4.694  -4.373  16.814  1.00  0.00     0.251 C 
HETATM    7  O1  UNL     1      -3.966  -4.631  17.818  1.00  0.00    -0.271 OA
HETATM    8  N1  UNL     1      -5.917  -5.056  16.670  1.00  0.00    -0.355 N 
ATOM      9  H1  UNL     1      -6.520  -4.867  15.869  1.00  0.00     0.162 HD
BRANCH   8  10
HETATM   10  C2  UNL     1      -6.312  -6.025  17.665  1.00  0.00     0.084 A 
HETATM   11  C3  UNL     1      -5.899  -7.451  17.462  1.00  0.00     0.027 A 
HETATM   12  C4  UNL     1      -7.348  -7.036  17.407  1.00  0.00     0.027 A 
ENDBRANCH   8  10
ENDBRANCH   1   6
BRANCH   5  13
HETATM   13  C9  UNL     1      -1.952  -4.098  15.400  1.00  0.00     0.224 A 
HETATM   14  C10 UNL     1      -0.793  -4.577  16.296  1.00  0.00     0.038 A 
HETATM   15  C11 UNL     1      -0.547  -3.827  15.037  1.00  0.00     0.038 A 
ENDBRANCH   5  13
TORSDOF 3
ENDMDL
MODEL 2
REMARK VINA RESULT: -6.346811360      2.282      4.011
REMARK  3 active torsions:
REMARK  status: ('A' for Active; 'I' for Inactive)
REMARK       I    between atoms: C1_2  and  N1_3 
REMARK    1  A    between atoms: C1_2  and  C5_8 
REMARK    2  A    between atoms: N1_3  and  C2_5 
REMARK    3  A    between atoms: N2_12  and  C9_13 
ROOT
HETATM    1  C5  UNL     1      -5.876  -5.644  17.829  1.00  0.00     0.314 C 
HETATM    2  C6  UNL     1      -5.461  -7.134  17.815  1.00  0.00     0.047 C 
HETATM    3  C7  UNL     1      -3.962  -6.985  17.898  1.00  0.00     0.033 C 
HETATM    4  C8  UNL     1      -3.729  -5.803  16.979  1.00  0.00     0.274 C 
HETATM    5  N2  UNL     1      -5.006  -5.166  16.769  1.00  0.00     0.106 N 
ENDROOT
BRANCH   1   6
HETATM    6  C1  UNL     1      -7.302  -5.623  17.466  1.00  0.00     0.251 C 
HETATM    7  O1  UNL     1      -8.060  -4.876  18.155  1.00  0.00    -0.271 OA
HETATM    8  N1  UNL     1      -7.865  -6.375  16.416  1.00  0.00    -0.355 N 
ATOM      9  H1  UNL     1      -7.276  -6.985  15.849  1.00  0.00     0.162 HD
BRANCH   8  10
HETATM   10  C2  UNL     1      -9.280  -6.276  16.150  1.00  0.00     0.084 A 
HETATM   11  C3  UNL     1     -10.052  -7.548  15.965  1.00  0.00     0.027 A 
HETATM   12  C4  UNL     1      -9.852  -6.577  14.829  1.00  0.00     0.027 A 
ENDBRANCH   8  10
ENDBRANCH   1   6
BRANCH   5  13
HETATM   13  C9  UNL     1      -4.971  -3.743  16.677  1.00  0.00     0.224 A 
HETATM   14  C10 UNL     1      -4.206  -3.223  15.444  1.00  0.00     0.038 A 
HETATM   15  C11 UNL     1      -3.708  -2.992  16.825  1.00  0.00     0.038 A 
ENDBRANCH   5  13
TORSDOF 3
ENDMDL
MODEL 3
REMARK VINA RESULT: -6.282592618      1.948      3.367
REMARK  3 active torsions:
REMARK  status: ('A' for Active; 'I' for Inactive)
REMARK       I    between atoms: C1_2  and  N1_3 
REMARK    1  A    between atoms: C1_2  and  C5_8 
REMARK    2  A    between atoms: N1_3  and  C2_5 
REMARK    3  A    between atoms: N2_12  and  C9_13 
ROOT
HETATM    1  C5  UNL     1      -4.858  -5.236  18.058  1.00  0.00     0.314 C 
HETATM    2  C6  UNL     1      -3.772  -6.101  18.741  1.00  0.00     0.047 C 
HETATM    3  C7  UNL     1      -2.634  -5.111  18.769  1.00  0.00     0.033 C 
HETATM    4  C8  UNL     1      -2.778  -4.453  17.412  1.00  0.00     0.274 C 
HETATM    5  N2  UNL     1      -4.089  -4.787  16.911  1.00  0.00     0.106 N 
ENDROOT
BRANCH   1   6
HETATM    6  C1  UNL     1      -5.944  -6.165  17.704  1.00  0.00     0.251 C 
HETATM    7  O1  UNL     1      -5.620  -7.369  17.478  1.00  0.00    -0.271 OA
HETATM    8  N1  UNL     1      -7.300  -5.797  17.602  1.00  0.00    -0.355 N 
ATOM      9  H1  UNL     1      -7.585  -4.834  17.777  1.00  0.00     0.162 HD
BRANCH   8  10
HETATM   10  C2  UNL     1      -8.281  -6.794  17.247  1.00  0.00     0.084 A 
HETATM   11  C3  UNL     1      -8.896  -6.723  15.881  1.00  0.00     0.027 A 
HETATM   12  C4  UNL     1      -9.712  -6.476  17.125  1.00  0.00     0.027 A 
ENDBRANCH   8  10
ENDBRANCH   1   6
BRANCH   5  13
HETATM   13  C9  UNL     1      -4.742  -3.756  16.173  1.00  0.00     0.224 A 
HETATM   14  C10 UNL     1      -3.820  -3.041  15.166  1.00  0.00     0.038 A 
HETATM   15  C11 UNL     1      -4.380  -2.336  16.348  1.00  0.00     0.038 A 
ENDBRANCH   5  13
TORSDOF 3
ENDMDL
MODEL 4
REMARK VINA RESULT: -6.271631936      1.038      2.729
REMARK  3 active torsions:
REMARK  status: ('A' for Active; 'I' for Inactive)
REMARK       I    between atoms: C1_2  and  N1_3 
REMARK    1  A    between atoms: C1_2  and  C5_8 
REMARK    2  A    between atoms: N1_3  and  C2_5 
REMARK    3  A    between atoms: N2_12  and  C9_13 
ROOT
HETATM    1  C5  UNL     1      -2.776  -4.224  17.164  1.00  0.00     0.314 C 
HETATM    2  C6  UNL     1      -2.092  -5.250  16.229  1.00  0.00     0.047 C 
HETATM    3  C7  UNL     1      -1.153  -4.335  15.484  1.00  0.00     0.033 C 
HETATM    4  C8  UNL     1      -2.029  -3.116  15.273  1.00  0.00     0.274 C 
HETATM    5  N2  UNL     1      -3.156  -3.241  16.166  1.00  0.00     0.106 N 
ENDROOT
BRANCH   1   6
HETATM    6  C1  UNL     1      -3.925  -4.928  17.757  1.00  0.00     0.251 C 
HETATM    7  O1  UNL     1      -3.792  -5.345  18.946  1.00  0.00    -0.271 OA
HETATM    8  N1  UNL     1      -5.142  -5.162  17.088  1.00  0.00    -0.355 N 
ATOM      9  H1  UNL     1      -5.273  -4.837  16.130  1.00  0.00     0.162 HD
BRANCH   8  10
HETATM   10  C2  UNL     1      -6.203  -5.864  17.769  1.00  0.00     0.084 A 
HETATM   11  C3  UNL     1      -6.434  -7.303  17.418  1.00  0.00     0.027 A 
HETATM   12  C4  UNL     1      -7.454  -6.241  17.093  1.00  0.00     0.027 A 
ENDBRANCH   8  10
ENDBRANCH   1   6
BRANCH   5  13
HETATM   13  C9  UNL     1      -3.621  -2.019  16.737  1.00  0.00     0.224 A 
HETATM   14  C10 UNL     1      -5.027  -1.609  16.256  1.00  0.00     0.038 A 
HETATM   15  C11 UNL     1      -3.821  -0.811  15.913  1.00  0.00     0.038 A 
ENDBRANCH   5  13
TORSDOF 3
ENDMDL
MODEL 5
REMARK VINA RESULT: -5.839140124      1.963      2.792
REMARK  3 active torsions:
REMARK  status: ('A' for Active; 'I' for Inactive)
REMARK       I    between atoms: C1_2  and  N1_3 
REMARK    1  A    between atoms: C1_2  and  C5_8 
REMARK    2  A    between atoms: N1_3  and  C2_5 
REMARK    3  A    between atoms: N2_12  and  C9_13 
ROOT
HETATM    1  C5  UNL     1      -2.594  -4.398  17.968  1.00  0.00     0.314 C 
HETATM    2  C6  UNL     1      -2.021  -5.098  19.223  1.00  0.00     0.047 C 
HETATM    3  C7  UNL     1      -0.745  -4.314  19.396  1.00  0.00     0.033 C 
HETATM    4  C8  UNL     1      -0.291  -4.160  17.958  1.00  0.00     0.274 C 
HETATM    5  N2  UNL     1      -1.419  -4.480  17.118  1.00  0.00     0.106 N 
ENDROOT
BRANCH   1   6
HETATM    6  C1  UNL     1      -3.705  -5.246  17.509  1.00  0.00     0.251 C 
HETATM    7  O1  UNL     1      -3.432  -6.453  17.235  1.00  0.00    -0.271 OA
HETATM    8  N1  UNL     1      -5.032  -4.800  17.356  1.00  0.00    -0.355 N 
ATOM      9  H1  UNL     1      -5.277  -3.832  17.568  1.00  0.00     0.162 HD
BRANCH   8  10
HETATM   10  C2  UNL     1      -6.044  -5.722  16.898  1.00  0.00     0.084 A 
HETATM   11  C3  UNL     1      -7.387  -5.682  17.564  1.00  0.00     0.027 A 
HETATM   12  C4  UNL     1      -6.475  -6.876  17.701  1.00  0.00     0.027 A 
ENDBRANCH   8  10
ENDBRANCH   1   6
BRANCH   5  13
HETATM   13  C9  UNL     1      -1.536  -3.700  15.930  1.00  0.00     0.224 A 
HETATM   14  C10 UNL     1      -1.666  -4.545  14.647  1.00  0.00     0.038 A 
HETATM   15  C11 UNL     1      -0.474  -3.695  14.904  1.00  0.00     0.038 A 
ENDBRANCH   5  13
TORSDOF 3
ENDMDL
