MODEL 1
REMARK VINA RESULT: -6.931591335      0.000      0.000
REMARK  3 active torsions:
REMARK  status: ('A' for Active; 'I' for Inactive)
REMARK       I    between atoms: C1_2  and  N1_3 
REMARK    1  A    between atoms: C1_2  and  C6_9 
REMARK    2  A    between atoms: N1_3  and  C2_5 
REMARK    3  A    between atoms: C2_5  and  C3_6 
ROOT
HETATM    1  O1  UNL     1      -5.489  -7.302  17.582  1.00  0.00    -0.273 OA
HETATM    2  C1  UNL     1      -6.388  -6.442  17.395  1.00  0.00     0.227 C 
HETATM    3  N1  UNL     1      -6.044  -5.135  17.115  1.00  0.00    -0.340 N 
ATOM      4  H1  UNL     1      -6.855  -4.533  16.975  1.00  0.00     0.167 HD
ENDROOT
BRANCH   2   5
HETATM    5  C6  UNL     1      -7.770  -6.963  17.504  1.00  0.00     0.112 C 
HETATM    6  C7  UNL     1      -8.785  -5.862  17.712  1.00  0.00     0.286 C 
HETATM    7  N2  UNL     1      -9.882  -6.190  16.776  1.00  0.00     0.089 N 
HETATM    8  C8  UNL     1     -10.468  -7.416  17.279  1.00  0.00     0.273 C 
HETATM    9  C11 UNL     1      -9.167  -6.736  15.609  1.00  0.00     0.278 C 
HETATM   10  C9  UNL     1      -9.491  -8.541  16.964  1.00  0.00     0.037 C 
HETATM   11  C10 UNL     1      -8.310  -7.719  16.367  1.00  0.00     0.030 C 
ENDBRANCH   2   5
BRANCH   3  12
HETATM   12  C2  UNL     1      -4.830  -4.453  16.979  1.00  0.00     0.068 C 
BRANCH  12  13
HETATM   13  C3  UNL     1      -4.575  -3.464  15.929  1.00  0.00     0.024 A 
HETATM   14  C4  UNL     1      -3.245  -2.804  15.622  1.00  0.00     0.010 A 
HETATM   15  C5  UNL     1      -4.318  -2.035  16.276  1.00  0.00     0.010 A 
ENDBRANCH  12  13
ENDBRANCH   3  12
TORSDOF 3
ENDMDL
MODEL 2
REMARK VINA RESULT: -6.887376618      1.586      5.892
REMARK  3 active torsions:
REMARK  status: ('A' for Active; 'I' for Inactive)
REMARK       I    between atoms: C1_2  and  N1_3 
REMARK    1  A    between atoms: C1_2  and  C6_9 
REMARK    2  A    between atoms: N1_3  and  C2_5 
REMARK    3  A    between atoms: C2_5  and  C3_6 
ROOT
HETATM    1  O1  UNL     1      -3.659  -6.617  17.846  1.00  0.00    -0.273 OA
HETATM    2  C1  UNL     1      -4.542  -5.833  17.413  1.00  0.00     0.227 C 
HETATM    3  N1  UNL     1      -5.835  -6.282  17.236  1.00  0.00    -0.340 N 
ATOM      4  H1  UNL     1      -6.462  -5.557  16.889  1.00  0.00     0.167 HD
ENDROOT
BRANCH   2   5
HETATM    5  C6  UNL     1      -4.062  -4.460  17.134  1.00  0.00     0.112 C 
HETATM    6  C7  UNL     1      -2.608  -4.432  16.719  1.00  0.00     0.286 C 
HETATM    7  N2  UNL     1      -2.576  -3.526  15.551  1.00  0.00     0.089 N 
HETATM    8  C8  UNL     1      -2.902  -2.212  16.067  1.00  0.00     0.273 C 
HETATM    9  C11 UNL     1      -3.845  -3.827  14.865  1.00  0.00     0.278 C 
HETATM   10  C9  UNL     1      -4.393  -2.211  16.376  1.00  0.00     0.037 C 
HETATM   11  C10 UNL     1      -4.737  -3.700  16.075  1.00  0.00     0.030 C 
ENDBRANCH   2   5
BRANCH   3  12
HETATM   12  C2  UNL     1      -6.477  -7.511  17.427  1.00  0.00     0.068 C 
BRANCH  12  13
HETATM   13  C3  UNL     1      -7.879  -7.750  17.078  1.00  0.00     0.024 A 
HETATM   14  C4  UNL     1      -8.670  -7.034  16.002  1.00  0.00     0.010 A 
HETATM   15  C5  UNL     1      -8.931  -6.749  17.423  1.00  0.00     0.010 A 
ENDBRANCH  12  13
ENDBRANCH   3  12
TORSDOF 3
ENDMDL
MODEL 3
REMARK VINA RESULT: -6.496282905      1.359      5.976
REMARK  3 active torsions:
REMARK  status: ('A' for Active; 'I' for Inactive)
REMARK       I    between atoms: C1_2  and  N1_3 
REMARK    1  A    between atoms: C1_2  and  C6_9 
REMARK    2  A    between atoms: N1_3  and  C2_5 
REMARK    3  A    between atoms: C2_5  and  C3_6 
ROOT
HETATM    1  O1  UNL     1      -5.043  -6.633  17.898  1.00  0.00    -0.273 OA
HETATM    2  C1  UNL     1      -5.491  -5.516  17.531  1.00  0.00     0.227 C 
HETATM    3  N1  UNL     1      -6.853  -5.321  17.423  1.00  0.00    -0.340 N 
ATOM      4  H1  UNL     1      -7.096  -4.376  17.126  1.00  0.00     0.167 HD
ENDROOT
BRANCH   2   5
HETATM    5  C6  UNL     1      -4.452  -4.500  17.249  1.00  0.00     0.112 C 
HETATM    6  C7  UNL     1      -3.160  -5.117  16.761  1.00  0.00     0.286 C 
HETATM    7  N2  UNL     1      -2.766  -4.283  15.606  1.00  0.00     0.089 N 
HETATM    8  C8  UNL     1      -2.439  -2.984  16.157  1.00  0.00     0.273 C 
HETATM    9  C11 UNL     1      -4.058  -3.952  14.981  1.00  0.00     0.278 C 
HETATM   10  C9  UNL     1      -3.754  -2.319  16.542  1.00  0.00     0.037 C 
HETATM   11  C10 UNL     1      -4.748  -3.479  16.236  1.00  0.00     0.030 C 
ENDBRANCH   2   5
BRANCH   3  12
HETATM   12  C2  UNL     1      -7.975  -6.131  17.630  1.00  0.00     0.068 C 
BRANCH  12  13
HETATM   13  C3  UNL     1      -8.386  -7.190  16.704  1.00  0.00     0.024 A 
HETATM   14  C4  UNL     1      -9.408  -8.275  16.979  1.00  0.00     0.010 A 
HETATM   15  C5  UNL     1      -7.973  -8.605  16.935  1.00  0.00     0.010 A 
ENDBRANCH  12  13
ENDBRANCH   3  12
TORSDOF 3
ENDMDL
MODEL 4
REMARK VINA RESULT: -6.454668620      1.409      1.537
REMARK  3 active torsions:
REMARK  status: ('A' for Active; 'I' for Inactive)
REMARK       I    between atoms: C1_2  and  N1_3 
REMARK    1  A    between atoms: C1_2  and  C6_9 
REMARK    2  A    between atoms: N1_3  and  C2_5 
REMARK    3  A    between atoms: C2_5  and  C3_6 
ROOT
HETATM    1  O1  UNL     1      -6.499  -4.766  17.304  1.00  0.00    -0.273 OA
HETATM    2  C1  UNL     1      -6.394  -5.982  17.608  1.00  0.00     0.227 C 
HETATM    3  N1  UNL     1      -5.154  -6.515  17.898  1.00  0.00    -0.340 N 
ATOM      4  H1  UNL     1      -5.195  -7.505  18.138  1.00  0.00     0.167 HD
ENDROOT
BRANCH   2   5
HETATM    5  C6  UNL     1      -7.674  -6.726  17.618  1.00  0.00     0.112 C 
HETATM    6  C7  UNL     1      -8.872  -5.810  17.733  1.00  0.00     0.286 C 
HETATM    7  N2  UNL     1      -9.822  -6.318  16.721  1.00  0.00     0.089 N 
HETATM    8  C8  UNL     1     -10.234  -7.624  17.193  1.00  0.00     0.273 C 
HETATM    9  C11 UNL     1      -8.939  -6.736  15.619  1.00  0.00     0.278 C 
HETATM   10  C9  UNL     1      -9.061  -8.570  16.969  1.00  0.00     0.037 C 
HETATM   11  C10 UNL     1      -7.991  -7.561  16.453  1.00  0.00     0.030 C 
ENDBRANCH   2   5
BRANCH   3  12
HETATM   12  C2  UNL     1      -3.854  -5.999  17.937  1.00  0.00     0.068 C 
BRANCH  12  13
HETATM   13  C3  UNL     1      -3.203  -5.369  16.786  1.00  0.00     0.024 A 
HETATM   14  C4  UNL     1      -1.932  -4.544  16.816  1.00  0.00     0.010 A 
HETATM   15  C5  UNL     1      -3.235  -3.887  16.612  1.00  0.00     0.010 A 
ENDBRANCH  12  13
ENDBRANCH   3  12
TORSDOF 3
ENDMDL
MODEL 5
REMARK VINA RESULT: -6.360612133      1.445      5.831
REMARK  3 active torsions:
REMARK  status: ('A' for Active; 'I' for Inactive)
REMARK       I    between atoms: C1_2  and  N1_3 
REMARK    1  A    between atoms: C1_2  and  C6_9 
REMARK    2  A    between atoms: N1_3  and  C2_5 
REMARK    3  A    between atoms: C2_5  and  C3_6 
ROOT
HETATM    1  O1  UNL     1      -5.318  -6.679  17.572  1.00  0.00    -0.273 OA
HETATM    2  C1  UNL     1      -5.715  -5.576  17.118  1.00  0.00     0.227 C 
HETATM    3  N1  UNL     1      -7.012  -5.162  17.348  1.00  0.00    -0.340 N 
ATOM      4  H1  UNL     1      -7.216  -4.251  16.938  1.00  0.00     0.167 HD
ENDROOT
BRANCH   2   5
HETATM    5  C6  UNL     1      -4.694  -4.821  16.357  1.00  0.00     0.112 C 
HETATM    6  C7  UNL     1      -4.852  -3.324  16.510  1.00  0.00     0.286 C 
HETATM    7  N2  UNL     1      -3.480  -2.832  16.757  1.00  0.00     0.089 N 
HETATM    8  C8  UNL     1      -2.755  -3.064  15.525  1.00  0.00     0.273 C 
HETATM    9  C11 UNL     1      -2.889  -3.902  17.579  1.00  0.00     0.278 C 
HETATM   10  C9  UNL     1      -2.498  -4.562  15.432  1.00  0.00     0.037 C 
HETATM   11  C10 UNL     1      -3.282  -5.052  16.686  1.00  0.00     0.030 C 
ENDBRANCH   2   5
BRANCH   3  12
HETATM   12  C2  UNL     1      -8.109  -5.715  18.017  1.00  0.00     0.068 C 
BRANCH  12  13
HETATM   13  C3  UNL     1      -8.971  -6.747  17.436  1.00  0.00     0.024 A 
HETATM   14  C4  UNL     1      -8.528  -8.105  16.930  1.00  0.00     0.010 A 
HETATM   15  C5  UNL     1      -8.915  -7.052  15.976  1.00  0.00     0.010 A 
ENDBRANCH  12  13
ENDBRANCH   3  12
TORSDOF 3
ENDMDL
