MODEL 1
REMARK VINA RESULT: -10.330407112      0.000      0.000
REMARK  9 active torsions:
REMARK  status: ('A' for Active; 'I' for Inactive)
REMARK    1  A    between atoms: C2_10  and  N4_11 
REMARK    2  A    between atoms: C6_21  and  N8_22 
REMARK       I    between atoms: N8_22  and  C7_23 
REMARK    3  A    between atoms: C7_23  and  C8_25 
REMARK    4  A    between atoms: C8_25  and  C9_26 
REMARK    5  A    between atoms: C12_29  and  N9_30 
REMARK    6  A    between atoms: N9_30  and  C13_32 
REMARK    7  A    between atoms: C13_32  and  C14_33 
REMARK    8  A    between atoms: C14_33  and  N10_34 
REMARK    9  A    between atoms: C15_35  and  N11_36 
ROOT
HETATM    1  N8  UNL     1       5.009 -22.596 -28.354  1.00  0.00    -0.368 NA
HETATM    2  C7  UNL     1       4.487 -21.856 -27.391  1.00  0.00     0.296 C 
HETATM    3  O2  UNL     1       4.452 -22.050 -26.118  1.00  0.00    -0.257 OA
ENDROOT
BRANCH   1   4
HETATM    4  C6  UNL     1       5.553 -23.366 -29.356  1.00  0.00     0.144 A 
HETATM    5  C5  UNL     1       4.760 -23.755 -30.464  1.00  0.00     0.133 A 
HETATM    6  N7  UNL     1       5.239 -24.694 -31.277  1.00  0.00    -0.370 N 
HETATM    7  C4  UNL     1       6.426 -25.287 -31.104  1.00  0.00     0.119 A 
ATOM      8  H7  UNL     1       4.671 -24.977 -32.075  1.00  0.00     0.164 HD
HETATM    9  C3  UNL     1       7.243 -24.935 -30.032  1.00  0.00     0.084 A 
HETATM   10  N6  UNL     1       8.457 -25.469 -29.869  1.00  0.00    -0.283 N 
HETATM   11  C19 UNL     1       6.800 -23.974 -29.169  1.00  0.00     0.105 A 
HETATM   12  N5  UNL     1       9.277 -25.086 -28.869  1.00  0.00    -0.231 N 
ATOM     13  H6  UNL     1       8.774 -26.187 -30.520  1.00  0.00     0.188 HD
HETATM   14  N4  UNL     1       8.914 -24.163 -28.012  1.00  0.00    -0.183 N 
ATOM     15  H5  UNL     1      10.194 -25.521 -28.779  1.00  0.00     0.209 HD
HETATM   16  C20 UNL     1       7.676 -23.607 -28.162  1.00  0.00     0.285 A 
HETATM   17  O4  UNL     1       7.367 -22.736 -27.338  1.00  0.00    -0.265 OA
BRANCH  14  18
HETATM   18  C2  UNL     1       9.749 -23.719 -26.935  1.00  0.00     0.199 A 
HETATM   19  C1  UNL     1      10.351 -24.404 -25.925  1.00  0.00     0.169 A 
HETATM   20  N1  UNL     1      10.292 -25.650 -25.709  1.00  0.00    -0.381 N 
HETATM   21  N2  UNL     1      11.066 -23.494 -25.152  1.00  0.00    -0.222 N 
ATOM     22  H12 UNL     1      10.744 -26.163 -24.952  1.00  0.00     0.157 HD
ATOM     23  H11 UNL     1       9.768 -26.317 -26.276  1.00  0.00     0.157 HD
HETATM   24  O1  UNL     1      10.866 -22.327 -25.717  1.00  0.00    -0.153 OA
ATOM     25  H2  UNL     1      11.626 -23.693 -24.323  1.00  0.00     0.198 HD
HETATM   26  N3  UNL     1      10.109 -22.419 -26.750  1.00  0.00    -0.220 N 
ATOM     27  H3  UNL     1       9.821 -21.638 -27.341  1.00  0.00     0.198 HD
ENDBRANCH  14  18
ENDBRANCH   1   4
BRANCH   2  28
HETATM   28  C8  UNL     1       3.801 -20.498 -27.706  1.00  0.00     0.157 C 
BRANCH  28  29
HETATM   29  C9  UNL     1       2.713 -20.793 -28.682  1.00  0.00    -0.048 A 
HETATM   30  C10 UNL     1       2.399 -19.762 -29.567  1.00  0.00     0.010 A 
HETATM   31  C11 UNL     1       1.440 -19.896 -30.521  1.00  0.00     0.029 A 
HETATM   32  C12 UNL     1       0.740 -21.095 -30.630  1.00  0.00     0.028 A 
HETATM   33  C17 UNL     1       1.060 -22.100 -29.757  1.00  0.00     0.029 A 
HETATM   34  C18 UNL     1       2.038 -21.973 -28.775  1.00  0.00     0.010 A 
BRANCH  32  35
HETATM   35  N9  UNL     1      -0.280 -21.198 -31.588  1.00  0.00    -0.388 N 
ATOM     36  H9  UNL     1      -0.226 -21.994 -32.223  1.00  0.00     0.159 HD
BRANCH  35  37
HETATM   37  C13 UNL     1      -1.388 -20.312 -31.773  1.00  0.00     0.141 C 
BRANCH  37  38
HETATM   38  C14 UNL     1      -2.378 -20.548 -30.616  1.00  0.00     0.172 C 
BRANCH  38  39
HETATM   39  N10 UNL     1      -2.719 -19.276 -30.011  1.00  0.00    -0.129 N 
HETATM   40  C15 UNL     1      -2.184 -18.784 -28.893  1.00  0.00     0.697 A 
HETATM   41  N12 UNL     1      -2.757 -17.585 -28.680  1.00  0.00    -0.128 N 
HETATM   42  N13 UNL     1      -3.634 -17.328 -29.644  1.00  0.00    -0.236 N 
ATOM     43  H12 UNL     1      -2.548 -16.966 -27.896  1.00  0.00     0.205 HD
HETATM   44  C16 UNL     1      -3.612 -18.373 -30.466  1.00  0.00     0.355 A 
ATOM     45  H13 UNL     1      -4.211 -16.493 -29.734  1.00  0.00     0.192 HD
HETATM   46  O3  UNL     1      -4.274 -18.570 -31.515  1.00  0.00    -0.244 OA
BRANCH  40  47
HETATM   47  N11 UNL     1      -1.294 -19.332 -28.165  1.00  0.00    -0.233 N 
ATOM     48 2H11 UNL     1      -0.594 -20.007 -28.475  1.00  0.00     0.174 HD
ATOM     49 1H11 UNL     1      -1.147 -19.191 -27.166  1.00  0.00     0.174 HD
ENDBRANCH  40  47
ENDBRANCH  38  39
ENDBRANCH  37  38
ENDBRANCH  35  37
ENDBRANCH  32  35
ENDBRANCH  28  29
ENDBRANCH   2  28
TORSDOF 9
ENDMDL
MODEL 2
REMARK VINA RESULT: -10.217932310      2.220     11.023
REMARK  9 active torsions:
REMARK  status: ('A' for Active; 'I' for Inactive)
REMARK    1  A    between atoms: C2_10  and  N4_11 
REMARK    2  A    between atoms: C6_21  and  N8_22 
REMARK       I    between atoms: N8_22  and  C7_23 
REMARK    3  A    between atoms: C7_23  and  C8_25 
REMARK    4  A    between atoms: C8_25  and  C9_26 
REMARK    5  A    between atoms: C12_29  and  N9_30 
REMARK    6  A    between atoms: N9_30  and  C13_32 
REMARK    7  A    between atoms: C13_32  and  C14_33 
REMARK    8  A    between atoms: C14_33  and  N10_34 
REMARK    9  A    between atoms: C15_35  and  N11_36 
ROOT
HETATM    1  N8  UNL     1       2.340 -21.516 -30.399  1.00  0.00    -0.368 NA
HETATM    2  C7  UNL     1       2.917 -20.728 -29.508  1.00  0.00     0.296 C 
HETATM    3  O2  UNL     1       3.204 -19.473 -29.566  1.00  0.00    -0.257 OA
ENDROOT
BRANCH   1   4
HETATM    4  C6  UNL     1       1.740 -22.334 -31.327  1.00  0.00     0.144 A 
HETATM    5  C5  UNL     1       2.474 -23.388 -31.925  1.00  0.00     0.133 A 
HETATM    6  N7  UNL     1       1.945 -23.994 -32.987  1.00  0.00    -0.370 N 
HETATM    7  C4  UNL     1       0.762 -23.661 -33.516  1.00  0.00     0.119 A 
ATOM      8  H7  UNL     1       2.471 -24.754 -33.420  1.00  0.00     0.164 HD
HETATM    9  C3  UNL     1       0.003 -22.635 -32.961  1.00  0.00     0.084 A 
HETATM   10  N6  UNL     1      -1.208 -22.322 -33.432  1.00  0.00    -0.283 N 
HETATM   11  C19 UNL     1       0.498 -21.983 -31.867  1.00  0.00     0.105 A 
HETATM   12  N5  UNL     1      -1.973 -21.371 -32.859  1.00  0.00    -0.231 N 
ATOM     13  H6  UNL     1      -1.563 -22.816 -34.251  1.00  0.00     0.188 HD
HETATM   14  N4  UNL     1      -1.559 -20.713 -31.804  1.00  0.00    -0.183 N 
ATOM     15  H5  UNL     1      -2.890 -21.161 -33.253  1.00  0.00     0.209 HD
HETATM   16  C20 UNL     1      -0.324 -21.020 -31.308  1.00  0.00     0.285 A 
HETATM   17  O4  UNL     1       0.034 -20.382 -30.307  1.00  0.00    -0.265 OA
BRANCH  14  18
HETATM   18  C2  UNL     1      -2.335 -19.698 -31.156  1.00  0.00     0.199 A 
HETATM   19  C1  UNL     1      -2.910 -18.564 -31.639  1.00  0.00     0.169 A 
HETATM   20  N1  UNL     1      -2.874 -18.139 -32.831  1.00  0.00    -0.381 N 
HETATM   21  N2  UNL     1      -3.569 -17.932 -30.589  1.00  0.00    -0.222 N 
ATOM     22  H12 UNL     1      -3.306 -17.289 -33.193  1.00  0.00     0.157 HD
ATOM     23  H11 UNL     1      -2.392 -18.602 -33.602  1.00  0.00     0.157 HD
HETATM   24  O1  UNL     1      -3.364 -18.695 -29.541  1.00  0.00    -0.153 OA
ATOM     25  H2  UNL     1      -4.097 -17.060 -30.625  1.00  0.00     0.198 HD
HETATM   26  N3  UNL     1      -2.654 -19.725 -29.832  1.00  0.00    -0.220 N 
ATOM     27  H3  UNL     1      -2.373 -20.452 -29.173  1.00  0.00     0.198 HD
ENDBRANCH  14  18
ENDBRANCH   1   4
BRANCH   2  28
HETATM   28  C8  UNL     1       3.339 -21.269 -28.114  1.00  0.00     0.157 C 
BRANCH  28  29
HETATM   29  C9  UNL     1       4.493 -22.184 -28.350  1.00  0.00    -0.048 A 
HETATM   30  C10 UNL     1       5.051 -22.760 -27.209  1.00  0.00     0.010 A 
HETATM   31  C11 UNL     1       6.097 -23.626 -27.275  1.00  0.00     0.029 A 
HETATM   32  C12 UNL     1       6.639 -23.958 -28.514  1.00  0.00     0.028 A 
HETATM   33  C17 UNL     1       6.080 -23.389 -29.626  1.00  0.00     0.029 A 
HETATM   34  C18 UNL     1       5.010 -22.499 -29.570  1.00  0.00     0.010 A 
BRANCH  32  35
HETATM   35  N9  UNL     1       7.750 -24.814 -28.559  1.00  0.00    -0.388 N 
ATOM     36  H9  UNL     1       7.583 -25.786 -28.296  1.00  0.00     0.159 HD
BRANCH  35  37
HETATM   37  C13 UNL     1       9.089 -24.478 -28.932  1.00  0.00     0.141 C 
BRANCH  37  38
HETATM   38  C14 UNL     1       9.829 -24.015 -27.663  1.00  0.00     0.172 C 
BRANCH  38  39
HETATM   39  N10 UNL     1      10.248 -25.176 -26.903  1.00  0.00    -0.129 N 
HETATM   40  C15 UNL     1      11.404 -25.822 -27.056  1.00  0.00     0.697 A 
HETATM   41  N12 UNL     1      11.413 -26.824 -26.158  1.00  0.00    -0.128 N 
HETATM   42  N13 UNL     1      10.287 -26.809 -25.455  1.00  0.00    -0.236 N 
ATOM     43  H12 UNL     1      12.172 -27.495 -26.036  1.00  0.00     0.205 HD
HETATM   44  C16 UNL     1       9.565 -25.791 -25.915  1.00  0.00     0.355 A 
ATOM     45  H13 UNL     1      10.026 -27.452 -24.708  1.00  0.00     0.192 HD
HETATM   46  O3  UNL     1       8.432 -25.393 -25.549  1.00  0.00    -0.244 OA
BRANCH  40  47
HETATM   47  N11 UNL     1      12.332 -25.546 -27.884  1.00  0.00    -0.233 N 
ATOM     48 2H11 UNL     1      12.989 -24.769 -27.814  1.00  0.00     0.174 HD
ATOM     49 1H11 UNL     1      12.557 -26.048 -28.743  1.00  0.00     0.174 HD
ENDBRANCH  40  47
ENDBRANCH  38  39
ENDBRANCH  37  38
ENDBRANCH  35  37
ENDBRANCH  32  35
ENDBRANCH  28  29
ENDBRANCH   2  28
TORSDOF 9
ENDMDL
MODEL 3
REMARK VINA RESULT: -10.182788576      2.546     11.190
REMARK  9 active torsions:
REMARK  status: ('A' for Active; 'I' for Inactive)
REMARK    1  A    between atoms: C2_10  and  N4_11 
REMARK    2  A    between atoms: C6_21  and  N8_22 
REMARK       I    between atoms: N8_22  and  C7_23 
REMARK    3  A    between atoms: C7_23  and  C8_25 
REMARK    4  A    between atoms: C8_25  and  C9_26 
REMARK    5  A    between atoms: C12_29  and  N9_30 
REMARK    6  A    between atoms: N9_30  and  C13_32 
REMARK    7  A    between atoms: C13_32  and  C14_33 
REMARK    8  A    between atoms: C14_33  and  N10_34 
REMARK    9  A    between atoms: C15_35  and  N11_36 
ROOT
HETATM    1  N8  UNL     1       2.325 -21.576 -30.388  1.00  0.00    -0.368 NA
HETATM    2  C7  UNL     1       2.888 -20.809 -29.470  1.00  0.00     0.296 C 
HETATM    3  O2  UNL     1       3.163 -19.550 -29.489  1.00  0.00    -0.257 OA
ENDROOT
BRANCH   1   4
HETATM    4  C6  UNL     1       1.739 -22.373 -31.343  1.00  0.00     0.144 A 
HETATM    5  C5  UNL     1       2.481 -23.416 -31.951  1.00  0.00     0.133 A 
HETATM    6  N7  UNL     1       1.970 -23.998 -33.035  1.00  0.00    -0.370 N 
HETATM    7  C4  UNL     1       0.797 -23.650 -33.576  1.00  0.00     0.119 A 
ATOM      8  H7  UNL     1       2.500 -24.749 -33.474  1.00  0.00     0.164 HD
HETATM    9  C3  UNL     1       0.030 -22.633 -33.013  1.00  0.00     0.084 A 
HETATM   10  N6  UNL     1      -1.171 -22.306 -33.499  1.00  0.00    -0.283 N 
HETATM   11  C19 UNL     1       0.508 -22.006 -31.897  1.00  0.00     0.105 A 
HETATM   12  N5  UNL     1      -1.944 -21.366 -32.919  1.00  0.00    -0.231 N 
ATOM     13  H6  UNL     1      -1.512 -22.782 -34.334  1.00  0.00     0.188 HD
HETATM   14  N4  UNL     1      -1.546 -20.732 -31.843  1.00  0.00    -0.183 N 
ATOM     15  H5  UNL     1      -2.852 -21.144 -33.325  1.00  0.00     0.209 HD
HETATM   16  C20 UNL     1      -0.321 -21.053 -31.332  1.00  0.00     0.285 A 
HETATM   17  O4  UNL     1       0.021 -20.438 -30.313  1.00  0.00    -0.265 OA
BRANCH  14  18
HETATM   18  C2  UNL     1      -2.331 -19.728 -31.188  1.00  0.00     0.199 A 
HETATM   19  C1  UNL     1      -2.903 -18.587 -31.659  1.00  0.00     0.169 A 
HETATM   20  N1  UNL     1      -2.855 -18.144 -32.844  1.00  0.00    -0.381 N 
HETATM   21  N2  UNL     1      -3.573 -17.972 -30.606  1.00  0.00    -0.222 N 
ATOM     22  H12 UNL     1      -3.283 -17.288 -33.197  1.00  0.00     0.157 HD
ATOM     23  H11 UNL     1      -2.363 -18.594 -33.616  1.00  0.00     0.157 HD
HETATM   24  O1  UNL     1      -3.378 -18.752 -29.569  1.00  0.00    -0.153 OA
ATOM     25  H2  UNL     1      -4.103 -17.101 -30.634  1.00  0.00     0.198 HD
HETATM   26  N3  UNL     1      -2.664 -19.777 -29.868  1.00  0.00    -0.220 N 
ATOM     27  H3  UNL     1      -2.389 -20.513 -29.218  1.00  0.00     0.198 HD
ENDBRANCH  14  18
ENDBRANCH   1   4
BRANCH   2  28
HETATM   28  C8  UNL     1       3.308 -21.387 -28.089  1.00  0.00     0.157 C 
BRANCH  28  29
HETATM   29  C9  UNL     1       4.547 -22.183 -28.326  1.00  0.00    -0.048 A 
HETATM   30  C10 UNL     1       5.229 -22.593 -27.182  1.00  0.00     0.010 A 
HETATM   31  C11 UNL     1       6.364 -23.339 -27.246  1.00  0.00     0.029 A 
HETATM   32  C12 UNL     1       6.874 -23.712 -28.487  1.00  0.00     0.028 A 
HETATM   33  C17 UNL     1       6.193 -23.305 -29.603  1.00  0.00     0.029 A 
HETATM   34  C18 UNL     1       5.031 -22.539 -29.549  1.00  0.00     0.010 A 
BRANCH  32  35
HETATM   35  N9  UNL     1       8.074 -24.438 -28.535  1.00  0.00    -0.388 N 
ATOM     36  H9  UNL     1       8.934 -23.893 -28.494  1.00  0.00     0.159 HD
BRANCH  35  37
HETATM   37  C13 UNL     1       8.224 -25.857 -28.634  1.00  0.00     0.141 C 
BRANCH  37  38
HETATM   38  C14 UNL     1       8.426 -26.409 -27.210  1.00  0.00     0.172 C 
BRANCH  38  39
HETATM   39  N10 UNL     1       9.793 -26.871 -27.066  1.00  0.00    -0.129 N 
HETATM   40  C15 UNL     1      10.815 -26.135 -26.628  1.00  0.00     0.697 A 
HETATM   41  N12 UNL     1      11.899 -26.931 -26.629  1.00  0.00    -0.128 N 
HETATM   42  N13 UNL     1      11.567 -28.143 -27.059  1.00  0.00    -0.236 N 
ATOM     43  H12 UNL     1      12.836 -26.647 -26.343  1.00  0.00     0.205 HD
HETATM   44  C16 UNL     1      10.265 -28.107 -27.330  1.00  0.00     0.355 A 
ATOM     45  H13 UNL     1      12.188 -28.944 -27.161  1.00  0.00     0.192 HD
HETATM   46  O3  UNL     1       9.519 -29.021 -27.759  1.00  0.00    -0.244 OA
BRANCH  40  47
HETATM   47  N11 UNL     1      10.778 -24.914 -26.266  1.00  0.00    -0.233 N 
ATOM     48 2H11 UNL     1      11.176 -24.528 -25.410  1.00  0.00     0.174 HD
ATOM     49 1H11 UNL     1      10.344 -24.139 -26.767  1.00  0.00     0.174 HD
ENDBRANCH  40  47
ENDBRANCH  38  39
ENDBRANCH  37  38
ENDBRANCH  35  37
ENDBRANCH  32  35
ENDBRANCH  28  29
ENDBRANCH   2  28
TORSDOF 9
ENDMDL
MODEL 4
REMARK VINA RESULT: -10.149590288      1.263      1.807
REMARK  9 active torsions:
REMARK  status: ('A' for Active; 'I' for Inactive)
REMARK    1  A    between atoms: C2_10  and  N4_11 
REMARK    2  A    between atoms: C6_21  and  N8_22 
REMARK       I    between atoms: N8_22  and  C7_23 
REMARK    3  A    between atoms: C7_23  and  C8_25 
REMARK    4  A    between atoms: C8_25  and  C9_26 
REMARK    5  A    between atoms: C12_29  and  N9_30 
REMARK    6  A    between atoms: N9_30  and  C13_32 
REMARK    7  A    between atoms: C13_32  and  C14_33 
REMARK    8  A    between atoms: C14_33  and  N10_34 
REMARK    9  A    between atoms: C15_35  and  N11_36 
ROOT
HETATM    1  N8  UNL     1       5.251 -22.713 -29.086  1.00  0.00    -0.368 NA
HETATM    2  C7  UNL     1       4.516 -22.158 -28.137  1.00  0.00     0.296 C 
HETATM    3  O2  UNL     1       4.833 -21.292 -27.237  1.00  0.00    -0.257 OA
ENDROOT
BRANCH   1   4
HETATM    4  C6  UNL     1       6.016 -23.289 -30.073  1.00  0.00     0.144 A 
HETATM    5  C5  UNL     1       5.449 -23.564 -31.342  1.00  0.00     0.133 A 
HETATM    6  N7  UNL     1       6.136 -24.339 -32.179  1.00  0.00    -0.370 N 
HETATM    7  C4  UNL     1       7.329 -24.869 -31.886  1.00  0.00     0.119 A 
ATOM      8  H7  UNL     1       5.731 -24.540 -33.093  1.00  0.00     0.164 HD
HETATM    9  C3  UNL     1       7.929 -24.623 -30.653  1.00  0.00     0.084 A 
HETATM   10  N6  UNL     1       9.145 -25.091 -30.357  1.00  0.00    -0.283 N 
HETATM   11  C19 UNL     1       7.267 -23.831 -29.759  1.00  0.00     0.105 A 
HETATM   12  N5  UNL     1       9.756 -24.804 -29.190  1.00  0.00    -0.231 N 
ATOM     13  H6  UNL     1       9.626 -25.683 -31.035  1.00  0.00     0.188 HD
HETATM   14  N4  UNL     1       9.178 -24.044 -28.292  1.00  0.00    -0.183 N 
ATOM     15  H5  UNL     1      10.683 -25.185 -29.003  1.00  0.00     0.209 HD
HETATM   16  C20 UNL     1       7.934 -23.557 -28.577  1.00  0.00     0.285 A 
HETATM   17  O4  UNL     1       7.419 -22.839 -27.709  1.00  0.00    -0.265 OA
BRANCH  14  18
HETATM   18  C2  UNL     1       9.786 -23.707 -27.040  1.00  0.00     0.199 A 
HETATM   19  C1  UNL     1      10.245 -24.489 -26.026  1.00  0.00     0.169 A 
HETATM   20  N1  UNL     1      10.227 -25.754 -25.971  1.00  0.00    -0.381 N 
HETATM   21  N2  UNL     1      10.759 -23.657 -25.036  1.00  0.00    -0.222 N 
ATOM     22  H12 UNL     1      10.571 -26.340 -25.211  1.00  0.00     0.157 HD
ATOM     23  H11 UNL     1       9.850 -26.364 -26.696  1.00  0.00     0.157 HD
HETATM   24  O1  UNL     1      10.588 -22.436 -25.487  1.00  0.00    -0.153 OA
ATOM     25  H2  UNL     1      11.179 -23.936 -24.149  1.00  0.00     0.198 HD
HETATM   26  N3  UNL     1      10.028 -22.426 -26.642  1.00  0.00    -0.220 N 
ATOM     27  H3  UNL     1       9.799 -21.589 -27.179  1.00  0.00     0.198 HD
ENDBRANCH  14  18
ENDBRANCH   1   4
BRANCH   2  28
HETATM   28  C8  UNL     1       3.007 -22.497 -27.991  1.00  0.00     0.157 C 
BRANCH  28  29
HETATM   29  C9  UNL     1       2.349 -22.033 -29.247  1.00  0.00    -0.048 A 
HETATM   30  C10 UNL     1       1.646 -23.007 -29.956  1.00  0.00     0.010 A 
HETATM   31  C11 UNL     1       0.983 -22.723 -31.109  1.00  0.00     0.029 A 
HETATM   32  C12 UNL     1       0.998 -21.424 -31.610  1.00  0.00     0.028 A 
HETATM   33  C17 UNL     1       1.688 -20.477 -30.902  1.00  0.00     0.029 A 
HETATM   34  C18 UNL     1       2.372 -20.757 -29.722  1.00  0.00     0.010 A 
BRANCH  32  35
HETATM   35  N9  UNL     1       0.351 -21.161 -32.827  1.00  0.00    -0.388 N 
ATOM     36  H9  UNL     1       0.795 -21.534 -33.665  1.00  0.00     0.159 HD
BRANCH  35  37
HETATM   37  C13 UNL     1      -0.863 -20.430 -33.023  1.00  0.00     0.141 C 
BRANCH  37  38
HETATM   38  C14 UNL     1      -1.920 -21.007 -32.063  1.00  0.00     0.172 C 
BRANCH  38  39
HETATM   39  N10 UNL     1      -2.480 -19.933 -31.266  1.00  0.00    -0.129 N 
HETATM   40  C15 UNL     1      -3.393 -19.056 -31.684  1.00  0.00     0.697 A 
HETATM   41  N12 UNL     1      -3.654 -18.239 -30.648  1.00  0.00    -0.128 N 
HETATM   42  N13 UNL     1      -2.921 -18.594 -29.600  1.00  0.00    -0.236 N 
ATOM     43  H12 UNL     1      -4.317 -17.463 -30.665  1.00  0.00     0.205 HD
HETATM   44  C16 UNL     1      -2.194 -19.640 -29.980  1.00  0.00     0.355 A 
ATOM     45  H13 UNL     1      -2.916 -18.150 -28.681  1.00  0.00     0.192 HD
HETATM   46  O3  UNL     1      -1.359 -20.308 -29.321  1.00  0.00    -0.244 OA
BRANCH  40  47
HETATM   47  N11 UNL     1      -3.929 -19.001 -32.839  1.00  0.00    -0.233 N 
ATOM     48 2H11 UNL     1      -3.556 -19.410 -33.696  1.00  0.00     0.174 HD
ATOM     49 1H11 UNL     1      -4.803 -18.538 -33.088  1.00  0.00     0.174 HD
ENDBRANCH  40  47
ENDBRANCH  38  39
ENDBRANCH  37  38
ENDBRANCH  35  37
ENDBRANCH  32  35
ENDBRANCH  28  29
ENDBRANCH   2  28
TORSDOF 9
ENDMDL
MODEL 5
REMARK VINA RESULT: -10.044305620      2.451     11.157
REMARK  9 active torsions:
REMARK  status: ('A' for Active; 'I' for Inactive)
REMARK    1  A    between atoms: C2_10  and  N4_11 
REMARK    2  A    between atoms: C6_21  and  N8_22 
REMARK       I    between atoms: N8_22  and  C7_23 
REMARK    3  A    between atoms: C7_23  and  C8_25 
REMARK    4  A    between atoms: C8_25  and  C9_26 
REMARK    5  A    between atoms: C12_29  and  N9_30 
REMARK    6  A    between atoms: N9_30  and  C13_32 
REMARK    7  A    between atoms: C13_32  and  C14_33 
REMARK    8  A    between atoms: C14_33  and  N10_34 
REMARK    9  A    between atoms: C15_35  and  N11_36 
ROOT
HETATM    1  N8  UNL     1       2.390 -21.719 -30.394  1.00  0.00    -0.368 NA
HETATM    2  C7  UNL     1       2.971 -20.970 -29.471  1.00  0.00     0.296 C 
HETATM    3  O2  UNL     1       3.236 -19.710 -29.467  1.00  0.00    -0.257 OA
ENDROOT
BRANCH   1   4
HETATM    4  C6  UNL     1       1.786 -22.497 -31.354  1.00  0.00     0.144 A 
HETATM    5  C5  UNL     1       2.507 -23.546 -31.976  1.00  0.00     0.133 A 
HETATM    6  N7  UNL     1       1.981 -24.108 -33.062  1.00  0.00    -0.370 N 
HETATM    7  C4  UNL     1       0.811 -23.736 -33.594  1.00  0.00     0.119 A 
ATOM      8  H7  UNL     1       2.497 -24.864 -33.512  1.00  0.00     0.164 HD
HETATM    9  C3  UNL     1       0.064 -22.713 -33.016  1.00  0.00     0.084 A 
HETATM   10  N6  UNL     1      -1.134 -22.362 -33.492  1.00  0.00    -0.283 N 
HETATM   11  C19 UNL     1       0.558 -22.105 -31.897  1.00  0.00     0.105 A 
HETATM   12  N5  UNL     1      -1.889 -21.415 -32.899  1.00  0.00    -0.231 N 
ATOM     13  H6  UNL     1      -1.488 -22.824 -34.330  1.00  0.00     0.188 HD
HETATM   14  N4  UNL     1      -1.475 -20.798 -31.818  1.00  0.00    -0.183 N 
ATOM     15  H5  UNL     1      -2.796 -21.175 -33.297  1.00  0.00     0.209 HD
HETATM   16  C20 UNL     1      -0.253 -21.144 -31.318  1.00  0.00     0.285 A 
HETATM   17  O4  UNL     1       0.105 -20.545 -30.294  1.00  0.00    -0.265 OA
BRANCH  14  18
HETATM   18  C2  UNL     1      -2.240 -19.789 -31.149  1.00  0.00     0.199 A 
HETATM   19  C1  UNL     1      -2.828 -18.653 -31.613  1.00  0.00     0.169 A 
HETATM   20  N1  UNL     1      -2.818 -18.221 -32.803  1.00  0.00    -0.381 N 
HETATM   21  N2  UNL     1      -3.465 -18.028 -30.546  1.00  0.00    -0.222 N 
ATOM     22  H12 UNL     1      -3.258 -17.370 -33.151  1.00  0.00     0.157 HD
ATOM     23  H11 UNL     1      -2.350 -18.679 -33.586  1.00  0.00     0.157 HD
HETATM   24  O1  UNL     1      -3.237 -18.798 -29.507  1.00  0.00    -0.153 OA
ATOM     25  H2  UNL     1      -3.997 -17.158 -30.565  1.00  0.00     0.198 HD
HETATM   26  N3  UNL     1      -2.531 -19.824 -29.819  1.00  0.00    -0.220 N 
ATOM     27  H3  UNL     1      -2.234 -20.554 -29.170  1.00  0.00     0.198 HD
ENDBRANCH  14  18
ENDBRANCH   1   4
BRANCH   2  28
HETATM   28  C8  UNL     1       3.427 -21.579 -28.116  1.00  0.00     0.157 C 
BRANCH  28  29
HETATM   29  C9  UNL     1       4.659 -22.370 -28.404  1.00  0.00    -0.048 A 
HETATM   30  C10 UNL     1       5.322 -22.883 -27.290  1.00  0.00     0.010 A 
HETATM   31  C11 UNL     1       6.448 -23.637 -27.404  1.00  0.00     0.029 A 
HETATM   32  C12 UNL     1       6.968 -23.913 -28.666  1.00  0.00     0.028 A 
HETATM   33  C17 UNL     1       6.306 -23.405 -29.751  1.00  0.00     0.029 A 
HETATM   34  C18 UNL     1       5.153 -22.630 -29.647  1.00  0.00     0.010 A 
BRANCH  32  35
HETATM   35  N9  UNL     1       8.158 -24.649 -28.760  1.00  0.00    -0.388 N 
ATOM     36  H9  UNL     1       9.025 -24.121 -28.668  1.00  0.00     0.159 HD
BRANCH  35  37
HETATM   37  C13 UNL     1       8.291 -26.057 -28.971  1.00  0.00     0.141 C 
BRANCH  37  38
HETATM   38  C14 UNL     1       8.348 -26.737 -27.590  1.00  0.00     0.172 C 
BRANCH  38  39
HETATM   39  N10 UNL     1       9.730 -26.995 -27.239  1.00  0.00    -0.129 N 
HETATM   40  C15 UNL     1      10.355 -28.165 -27.373  1.00  0.00     0.697 A 
HETATM   41  N12 UNL     1      11.620 -27.983 -26.952  1.00  0.00    -0.128 N 
HETATM   42  N13 UNL     1      11.788 -26.726 -26.561  1.00  0.00    -0.236 N 
ATOM     43  H12 UNL     1      12.342 -28.704 -26.935  1.00  0.00     0.205 HD
HETATM   44  C16 UNL     1      10.621 -26.113 -26.738  1.00  0.00     0.355 A 
ATOM     45  H13 UNL     1      12.645 -26.310 -26.197  1.00  0.00     0.192 HD
HETATM   46  O3  UNL     1      10.308 -24.919 -26.508  1.00  0.00    -0.244 OA
BRANCH  40  47
HETATM   47  N11 UNL     1       9.860 -29.250 -27.822  1.00  0.00    -0.233 N 
ATOM     48 2H11 UNL     1       9.330 -29.358 -28.687  1.00  0.00     0.174 HD
ATOM     49 1H11 UNL     1       9.908 -30.172 -27.387  1.00  0.00     0.174 HD
ENDBRANCH  40  47
ENDBRANCH  38  39
ENDBRANCH  37  38
ENDBRANCH  35  37
ENDBRANCH  32  35
ENDBRANCH  28  29
ENDBRANCH   2  28
TORSDOF 9
ENDMDL
