MODEL 1
REMARK VINA RESULT: -8.747142323      0.000      0.000
REMARK  11 active torsions:
REMARK  status: ('A' for Active; 'I' for Inactive)
REMARK    1  A    between atoms: O1_2  and  C2_3 
REMARK    2  A    between atoms: C2_3  and  O2_4 
REMARK    3  A    between atoms: O2_4  and  N1_5 
REMARK    4  A    between atoms: N1_5  and  C3_6 
REMARK    5  A    between atoms: C3_6  and  C4_7 
REMARK    6  A    between atoms: C4_7  and  N2_8 
REMARK    7  A    between atoms: C6_11  and  C7_12 
REMARK    8  A    between atoms: C10_22  and  C11_23 
REMARK    9  A    between atoms: C12_24  and  C13_25 
REMARK   10  A    between atoms: N10_36  and  C16_38 
REMARK   11  A    between atoms: C16_38  and  C18_40 
ROOT
HETATM    1  N2  UNL     1       2.294 -20.797 -29.651  1.00  0.00    -0.318 N 
HETATM    2  C5  UNL     1       1.174 -20.110 -29.441  1.00  0.00     0.136 A 
HETATM    3  N3  UNL     1       1.236 -19.090 -28.442  1.00  0.00    -0.081 NA
HETATM    4  C6  UNL     1       0.010 -20.339 -30.121  1.00  0.00     0.077 A 
HETATM    5  C9  UNL     1       0.040 -21.339 -31.062  1.00  0.00     0.086 A 
HETATM    6  N6  UNL     1      -1.141 -21.627 -31.808  1.00  0.00    -0.100 NA
HETATM    7  C10 UNL     1       1.173 -22.060 -31.300  1.00  0.00     0.087 A 
HETATM    8  C15 UNL     1       2.331 -21.818 -30.608  1.00  0.00     0.126 A 
HETATM    9  N10 UNL     1       3.369 -22.412 -30.761  1.00  0.00    -0.365 N 
ATOM     10  H10 UNL     1       4.024 -21.992 -30.102  1.00  0.00     0.162 HD
ENDROOT
BRANCH   7  11
HETATM   11  C11 UNL     1       1.109 -23.084 -32.303  1.00  0.00    -0.054 C 
HETATM   12  C12 UNL     1       1.093 -23.981 -33.142  1.00  0.00    -0.037 C 
BRANCH  12  13
HETATM   13  C13 UNL     1       1.100 -25.034 -34.114  1.00  0.00     0.155 A 
HETATM   14  N7  UNL     1       0.326 -25.150 -35.204  1.00  0.00    -0.229 N 
HETATM   15  O5  UNL     1       0.611 -26.236 -35.850  1.00  0.00    -0.154 OA
ATOM     16  H7  UNL     1      -0.388 -24.477 -35.484  1.00  0.00     0.197 HD
HETATM   17  N8  UNL     1       1.553 -26.890 -35.263  1.00  0.00    -0.223 N 
HETATM   18  C14 UNL     1       1.919 -26.182 -34.142  1.00  0.00     0.159 A 
ATOM     19  H8  UNL     1       1.954 -27.774 -35.573  1.00  0.00     0.198 HD
HETATM   20  N9  UNL     1       2.778 -26.485 -33.330  1.00  0.00    -0.382 N 
ATOM     21  H92 UNL     1       3.050 -25.960 -32.499  1.00  0.00     0.157 HD
ATOM     22  H91 UNL     1       3.370 -27.315 -33.351  1.00  0.00     0.157 HD
ENDBRANCH  12  13
ENDBRANCH   7  11
BRANCH   4  23
HETATM   23  C7  UNL     1      -1.240 -19.609 -29.922  1.00  0.00     0.145 A 
HETATM   24  N4  UNL     1      -2.059 -19.181 -30.931  1.00  0.00    -0.285 N 
HETATM   25  C8  UNL     1      -3.118 -18.549 -30.402  1.00  0.00     0.388 A 
ATOM     26  H4  UNL     1      -1.891 -19.319 -31.928  1.00  0.00     0.172 HD
HETATM   27  O3  UNL     1      -4.037 -18.050 -31.110  1.00  0.00    -0.236 OA
HETATM   28  O4  UNL     1      -2.981 -18.574 -29.117  1.00  0.00    -0.179 OA
HETATM   29  N5  UNL     1      -1.859 -19.206 -28.810  1.00  0.00    -0.239 N 
ATOM     30  H5  UNL     1      -1.517 -19.362 -27.862  1.00  0.00     0.196 HD
ENDBRANCH   4  23
BRANCH   1  31
HETATM   31  C4  UNL     1       3.505 -20.548 -28.933  1.00  0.00     0.150 C 
BRANCH  31  32
HETATM   32  C3  UNL     1       3.659 -21.530 -27.764  1.00  0.00     0.163 C 
BRANCH  32  33
HETATM   33  N1  UNL     1       4.708 -21.030 -26.902  1.00  0.00    -0.097 NA
BRANCH  33  34
HETATM   34  O2  UNL     1       5.589 -21.961 -26.518  1.00  0.00    -0.261 OA
BRANCH  34  35
HETATM   35  C2  UNL     1       5.394 -23.195 -27.112  1.00  0.00     0.363 C 
BRANCH  35  36
HETATM   36  O1  UNL     1       6.201 -24.173 -26.486  1.00  0.00    -0.370 OA
HETATM   37  C1  UNL     1       7.360 -24.371 -27.258  1.00  0.00     0.204 C 
ENDBRANCH  35  36
ENDBRANCH  34  35
ENDBRANCH  33  34
ENDBRANCH  32  33
ENDBRANCH  31  32
ENDBRANCH   1  31
BRANCH   9  38
HETATM   38  C16 UNL     1       4.070 -23.376 -31.399  1.00  0.00     0.138 C 
HETATM   39  C17 UNL     1       4.291 -23.123 -32.902  1.00  0.00     0.039 C 
BRANCH  38  40
HETATM   40  C18 UNL     1       5.497 -23.526 -30.874  1.00  0.00     0.113 C 
HETATM   41  N11 UNL     1       6.249 -22.430 -30.422  1.00  0.00    -0.092 NA
HETATM   42  S1  UNL     1       6.155 -25.006 -30.834  1.00  0.00    -0.067 SA
ENDBRANCH  38  40
ENDBRANCH   9  38
TORSDOF 11
ENDMDL
MODEL 2
REMARK VINA RESULT: -8.680707692      2.769      4.071
REMARK  11 active torsions:
REMARK  status: ('A' for Active; 'I' for Inactive)
REMARK    1  A    between atoms: O1_2  and  C2_3 
REMARK    2  A    between atoms: C2_3  and  O2_4 
REMARK    3  A    between atoms: O2_4  and  N1_5 
REMARK    4  A    between atoms: N1_5  and  C3_6 
REMARK    5  A    between atoms: C3_6  and  C4_7 
REMARK    6  A    between atoms: C4_7  and  N2_8 
REMARK    7  A    between atoms: C6_11  and  C7_12 
REMARK    8  A    between atoms: C10_22  and  C11_23 
REMARK    9  A    between atoms: C12_24  and  C13_25 
REMARK   10  A    between atoms: N10_36  and  C16_38 
REMARK   11  A    between atoms: C16_38  and  C18_40 
ROOT
HETATM    1  N2  UNL     1       2.272 -20.826 -29.975  1.00  0.00    -0.318 N 
HETATM    2  C5  UNL     1       1.800 -20.019 -29.029  1.00  0.00     0.136 A 
HETATM    3  N3  UNL     1       2.708 -19.676 -27.978  1.00  0.00    -0.081 NA
HETATM    4  C6  UNL     1       0.524 -19.526 -29.025  1.00  0.00     0.077 A 
HETATM    5  C9  UNL     1      -0.280 -19.909 -30.071  1.00  0.00     0.086 A 
HETATM    6  N6  UNL     1      -1.621 -19.428 -30.127  1.00  0.00    -0.100 NA
HETATM    7  C10 UNL     1       0.177 -20.735 -31.055  1.00  0.00     0.087 A 
HETATM    8  C15 UNL     1       1.458 -21.220 -31.042  1.00  0.00     0.126 A 
HETATM    9  N10 UNL     1       1.932 -21.954 -31.874  1.00  0.00    -0.365 N 
ATOM     10  H10 UNL     1       2.892 -22.123 -31.574  1.00  0.00     0.162 HD
ENDROOT
BRANCH   7  11
HETATM   11  C11 UNL     1      -0.735 -21.079 -32.108  1.00  0.00    -0.054 C 
HETATM   12  C12 UNL     1      -1.541 -21.335 -32.999  1.00  0.00    -0.037 C 
BRANCH  12  13
HETATM   13  C13 UNL     1      -2.501 -21.616 -34.026  1.00  0.00     0.155 A 
HETATM   14  N7  UNL     1      -2.461 -22.598 -34.939  1.00  0.00    -0.229 N 
HETATM   15  O5  UNL     1      -3.500 -22.543 -35.710  1.00  0.00    -0.154 OA
ATOM     16  H7  UNL     1      -1.717 -23.291 -35.015  1.00  0.00     0.197 HD
HETATM   17  N8  UNL     1      -4.270 -21.564 -35.380  1.00  0.00    -0.223 N 
HETATM   18  C14 UNL     1      -3.697 -20.923 -34.307  1.00  0.00     0.159 A 
ATOM     19  H8  UNL     1      -5.148 -21.311 -35.833  1.00  0.00     0.198 HD
HETATM   20  N9  UNL     1      -4.131 -19.947 -33.717  1.00  0.00    -0.382 N 
ATOM     21  H92 UNL     1      -3.705 -19.471 -32.921  1.00  0.00     0.157 HD
ATOM     22  H91 UNL     1      -4.996 -19.447 -33.920  1.00  0.00     0.157 HD
ENDBRANCH  12  13
ENDBRANCH   7  11
BRANCH   4  23
HETATM   23  C7  UNL     1      -0.033 -18.639 -28.008  1.00  0.00     0.145 A 
HETATM   24  N4  UNL     1       0.705 -17.982 -27.060  1.00  0.00    -0.285 N 
HETATM   25  C8  UNL     1      -0.117 -17.253 -26.288  1.00  0.00     0.388 A 
ATOM     26  H4  UNL     1       1.718 -18.037 -26.957  1.00  0.00     0.172 HD
HETATM   27  O3  UNL     1       0.301 -16.544 -25.330  1.00  0.00    -0.236 OA
HETATM   28  O4  UNL     1      -1.321 -17.437 -26.722  1.00  0.00    -0.179 OA
HETATM   29  N5  UNL     1      -1.290 -18.266 -27.754  1.00  0.00    -0.239 N 
ATOM     30  H5  UNL     1      -2.108 -18.576 -28.279  1.00  0.00     0.196 HD
ENDBRANCH   4  23
BRANCH   1  31
HETATM   31  C4  UNL     1       3.609 -21.334 -29.967  1.00  0.00     0.150 C 
BRANCH  31  32
HETATM   32  C3  UNL     1       3.703 -22.611 -29.121  1.00  0.00     0.163 C 
BRANCH  32  33
HETATM   33  N1  UNL     1       5.059 -23.108 -29.219  1.00  0.00    -0.097 NA
BRANCH  33  34
HETATM   34  O2  UNL     1       5.907 -22.556 -28.344  1.00  0.00    -0.261 OA
BRANCH  34  35
HETATM   35  C2  UNL     1       5.492 -22.648 -27.028  1.00  0.00     0.363 C 
BRANCH  35  36
HETATM   36  O1  UNL     1       6.317 -21.853 -26.198  1.00  0.00    -0.370 OA
HETATM   37  C1  UNL     1       5.581 -20.740 -25.755  1.00  0.00     0.204 C 
ENDBRANCH  35  36
ENDBRANCH  34  35
ENDBRANCH  33  34
ENDBRANCH  32  33
ENDBRANCH  31  32
ENDBRANCH   1  31
BRANCH   9  38
HETATM   38  C16 UNL     1       1.784 -22.656 -33.019  1.00  0.00     0.138 C 
HETATM   39  C17 UNL     1       2.905 -22.445 -34.054  1.00  0.00     0.039 C 
BRANCH  38  40
HETATM   40  C18 UNL     1       1.813 -24.168 -32.803  1.00  0.00     0.113 C 
HETATM   41  N11 UNL     1       2.117 -24.741 -31.557  1.00  0.00    -0.092 NA
HETATM   42  S1  UNL     1       1.474 -25.137 -34.056  1.00  0.00    -0.067 SA
ENDBRANCH  38  40
ENDBRANCH   9  38
TORSDOF 11
ENDMDL
MODEL 3
REMARK VINA RESULT: -8.659049316      2.942      4.162
REMARK  11 active torsions:
REMARK  status: ('A' for Active; 'I' for Inactive)
REMARK    1  A    between atoms: O1_2  and  C2_3 
REMARK    2  A    between atoms: C2_3  and  O2_4 
REMARK    3  A    between atoms: O2_4  and  N1_5 
REMARK    4  A    between atoms: N1_5  and  C3_6 
REMARK    5  A    between atoms: C3_6  and  C4_7 
REMARK    6  A    between atoms: C4_7  and  N2_8 
REMARK    7  A    between atoms: C6_11  and  C7_12 
REMARK    8  A    between atoms: C10_22  and  C11_23 
REMARK    9  A    between atoms: C12_24  and  C13_25 
REMARK   10  A    between atoms: N10_36  and  C16_38 
REMARK   11  A    between atoms: C16_38  and  C18_40 
ROOT
HETATM    1  N2  UNL     1       2.350 -20.674 -30.057  1.00  0.00    -0.318 N 
HETATM    2  C5  UNL     1       1.867 -19.895 -29.093  1.00  0.00     0.136 A 
HETATM    3  N3  UNL     1       2.786 -19.514 -28.066  1.00  0.00    -0.081 NA
HETATM    4  C6  UNL     1       0.570 -19.463 -29.051  1.00  0.00     0.077 A 
HETATM    5  C9  UNL     1      -0.244 -19.878 -30.077  1.00  0.00     0.086 A 
HETATM    6  N6  UNL     1      -1.608 -19.462 -30.093  1.00  0.00    -0.100 NA
HETATM    7  C10 UNL     1       0.224 -20.677 -31.079  1.00  0.00     0.087 A 
HETATM    8  C15 UNL     1       1.527 -21.101 -31.104  1.00  0.00     0.126 A 
HETATM    9  N10 UNL     1       2.011 -21.807 -31.954  1.00  0.00    -0.365 N 
ATOM     10  H10 UNL     1       2.986 -21.932 -31.681  1.00  0.00     0.162 HD
ENDROOT
BRANCH   7  11
HETATM   11  C11 UNL     1      -0.700 -21.058 -32.109  1.00  0.00    -0.054 C 
HETATM   12  C12 UNL     1      -1.511 -21.343 -32.986  1.00  0.00    -0.037 C 
BRANCH  12  13
HETATM   13  C13 UNL     1      -2.475 -21.653 -34.000  1.00  0.00     0.155 A 
HETATM   14  N7  UNL     1      -2.434 -22.654 -34.892  1.00  0.00    -0.229 N 
HETATM   15  O5  UNL     1      -3.478 -22.624 -35.658  1.00  0.00    -0.154 OA
ATOM     16  H7  UNL     1      -1.685 -23.343 -34.958  1.00  0.00     0.197 HD
HETATM   17  N8  UNL     1      -4.254 -21.645 -35.344  1.00  0.00    -0.223 N 
HETATM   18  C14 UNL     1      -3.679 -20.976 -34.289  1.00  0.00     0.159 A 
ATOM     19  H8  UNL     1      -5.136 -21.408 -35.796  1.00  0.00     0.198 HD
HETATM   20  N9  UNL     1      -4.116 -19.991 -33.717  1.00  0.00    -0.382 N 
ATOM     21  H92 UNL     1      -3.690 -19.494 -32.935  1.00  0.00     0.157 HD
ATOM     22  H91 UNL     1      -4.986 -19.502 -33.925  1.00  0.00     0.157 HD
ENDBRANCH  12  13
ENDBRANCH   7  11
BRANCH   4  23
HETATM   23  C7  UNL     1      -0.001 -18.609 -28.014  1.00  0.00     0.145 A 
HETATM   24  N4  UNL     1       0.731 -17.927 -27.079  1.00  0.00    -0.285 N 
HETATM   25  C8  UNL     1      -0.102 -17.240 -26.281  1.00  0.00     0.388 A 
ATOM     26  H4  UNL     1       1.748 -17.938 -27.001  1.00  0.00     0.172 HD
HETATM   27  O3  UNL     1       0.307 -16.521 -25.327  1.00  0.00    -0.236 OA
HETATM   28  O4  UNL     1      -1.307 -17.474 -26.687  1.00  0.00    -0.179 OA
HETATM   29  N5  UNL     1      -1.266 -18.293 -27.727  1.00  0.00    -0.239 N 
ATOM     30  H5  UNL     1      -2.082 -18.634 -28.234  1.00  0.00     0.196 HD
ENDBRANCH   4  23
BRANCH   1  31
HETATM   31  C4  UNL     1       3.710 -21.118 -30.089  1.00  0.00     0.150 C 
BRANCH  31  32
HETATM   32  C3  UNL     1       3.895 -22.371 -29.223  1.00  0.00     0.163 C 
BRANCH  32  33
HETATM   33  N1  UNL     1       5.317 -22.599 -29.074  1.00  0.00    -0.097 NA
BRANCH  33  34
HETATM   34  O2  UNL     1       6.021 -22.396 -30.193  1.00  0.00    -0.261 OA
BRANCH  34  35
HETATM   35  C2  UNL     1       7.076 -23.276 -30.358  1.00  0.00     0.363 C 
BRANCH  35  36
HETATM   36  O1  UNL     1       8.308 -22.585 -30.271  1.00  0.00    -0.370 OA
HETATM   37  C1  UNL     1       9.067 -23.138 -29.224  1.00  0.00     0.204 C 
ENDBRANCH  35  36
ENDBRANCH  34  35
ENDBRANCH  33  34
ENDBRANCH  32  33
ENDBRANCH  31  32
ENDBRANCH   1  31
BRANCH   9  38
HETATM   38  C16 UNL     1       1.865 -22.509 -33.099  1.00  0.00     0.138 C 
HETATM   39  C17 UNL     1       3.062 -22.424 -34.064  1.00  0.00     0.039 C 
BRANCH  38  40
HETATM   40  C18 UNL     1       1.733 -24.013 -32.866  1.00  0.00     0.113 C 
HETATM   41  N11 UNL     1       1.926 -24.596 -31.603  1.00  0.00    -0.092 NA
HETATM   42  S1  UNL     1       1.349 -24.961 -34.123  1.00  0.00    -0.067 SA
ENDBRANCH  38  40
ENDBRANCH   9  38
TORSDOF 11
ENDMDL
MODEL 4
REMARK VINA RESULT: -8.606513209      3.865      8.719
REMARK  11 active torsions:
REMARK  status: ('A' for Active; 'I' for Inactive)
REMARK    1  A    between atoms: O1_2  and  C2_3 
REMARK    2  A    between atoms: C2_3  and  O2_4 
REMARK    3  A    between atoms: O2_4  and  N1_5 
REMARK    4  A    between atoms: N1_5  and  C3_6 
REMARK    5  A    between atoms: C3_6  and  C4_7 
REMARK    6  A    between atoms: C4_7  and  N2_8 
REMARK    7  A    between atoms: C6_11  and  C7_12 
REMARK    8  A    between atoms: C10_22  and  C11_23 
REMARK    9  A    between atoms: C12_24  and  C13_25 
REMARK   10  A    between atoms: N10_36  and  C16_38 
REMARK   11  A    between atoms: C16_38  and  C18_40 
ROOT
HETATM    1  N2  UNL     1       6.881 -25.491 -30.917  1.00  0.00    -0.318 N 
HETATM    2  C5  UNL     1       7.663 -25.590 -29.845  1.00  0.00     0.136 A 
HETATM    3  N3  UNL     1       8.686 -26.587 -29.898  1.00  0.00    -0.081 NA
HETATM    4  C6  UNL     1       7.526 -24.801 -28.736  1.00  0.00     0.077 A 
HETATM    5  C9  UNL     1       6.516 -23.871 -28.771  1.00  0.00     0.086 A 
HETATM    6  N6  UNL     1       6.320 -23.016 -27.646  1.00  0.00    -0.100 NA
HETATM    7  C10 UNL     1       5.698 -23.748 -29.855  1.00  0.00     0.087 A 
HETATM    8  C15 UNL     1       5.849 -24.547 -30.958  1.00  0.00     0.126 A 
HETATM    9  N10 UNL     1       5.167 -24.498 -31.951  1.00  0.00    -0.365 N 
ATOM     10  H10 UNL     1       5.537 -25.215 -32.573  1.00  0.00     0.162 HD
ENDROOT
BRANCH   7  11
HETATM   11  C11 UNL     1       4.671 -22.747 -29.801  1.00  0.00    -0.054 C 
HETATM   12  C12 UNL     1       3.824 -21.859 -29.739  1.00  0.00    -0.037 C 
BRANCH  12  13
HETATM   13  C13 UNL     1       2.854 -20.808 -29.651  1.00  0.00     0.155 A 
HETATM   14  N7  UNL     1       3.075 -19.485 -29.658  1.00  0.00    -0.229 N 
HETATM   15  O5  UNL     1       1.958 -18.837 -29.559  1.00  0.00    -0.154 OA
ATOM     16  H7  UNL     1       3.994 -19.050 -29.732  1.00  0.00     0.197 HD
HETATM   17  N8  UNL     1       0.959 -19.647 -29.481  1.00  0.00    -0.223 N 
HETATM   18  C14 UNL     1       1.453 -20.929 -29.534  1.00  0.00     0.159 A 
ATOM     19  H8  UNL     1      -0.023 -19.384 -29.395  1.00  0.00     0.198 HD
HETATM   20  N9  UNL     1       0.812 -21.966 -29.486  1.00  0.00    -0.382 N 
ATOM     21  H92 UNL     1       1.179 -22.917 -29.525  1.00  0.00     0.157 HD
ATOM     22  H91 UNL     1      -0.200 -22.053 -29.402  1.00  0.00     0.157 HD
ENDBRANCH  12  13
ENDBRANCH   7  11
BRANCH   4  23
HETATM   23  C7  UNL     1       8.361 -24.876 -27.541  1.00  0.00     0.145 A 
HETATM   24  N4  UNL     1       8.560 -26.011 -26.801  1.00  0.00    -0.285 N 
HETATM   25  C8  UNL     1       9.379 -25.731 -25.775  1.00  0.00     0.388 A 
ATOM     26  H4  UNL     1       8.150 -26.924 -26.998  1.00  0.00     0.172 HD
HETATM   27  O3  UNL     1       9.731 -26.601 -24.930  1.00  0.00    -0.236 OA
HETATM   28  O4  UNL     1       9.688 -24.479 -25.857  1.00  0.00    -0.179 OA
HETATM   29  N5  UNL     1       9.087 -23.949 -26.911  1.00  0.00    -0.239 N 
ATOM     30  H5  UNL     1       9.165 -22.974 -27.199  1.00  0.00     0.196 HD
ENDBRANCH   4  23
BRANCH   1  31
HETATM   31  C4  UNL     1       7.035 -26.323 -32.071  1.00  0.00     0.150 C 
BRANCH  31  32
HETATM   32  C3  UNL     1       8.220 -25.856 -32.926  1.00  0.00     0.163 C 
BRANCH  32  33
HETATM   33  N1  UNL     1       8.126 -24.418 -33.065  1.00  0.00    -0.097 NA
BRANCH  33  34
HETATM   34  O2  UNL     1       8.566 -23.954 -34.240  1.00  0.00    -0.261 OA
BRANCH  34  35
HETATM   35  C2  UNL     1       9.341 -24.857 -34.944  1.00  0.00     0.363 C 
BRANCH  35  36
HETATM   36  O1  UNL     1      10.696 -24.450 -34.937  1.00  0.00    -0.370 OA
HETATM   37  C1  UNL     1      11.506 -25.568 -34.669  1.00  0.00     0.204 C 
ENDBRANCH  35  36
ENDBRANCH  34  35
ENDBRANCH  33  34
ENDBRANCH  32  33
ENDBRANCH  31  32
ENDBRANCH   1  31
BRANCH   9  38
HETATM   38  C16 UNL     1       4.139 -23.934 -32.624  1.00  0.00     0.138 C 
HETATM   39  C17 UNL     1       4.299 -23.928 -34.156  1.00  0.00     0.039 C 
BRANCH  38  40
HETATM   40  C18 UNL     1       2.818 -24.676 -32.431  1.00  0.00     0.113 C 
HETATM   41  N11 UNL     1       1.931 -24.369 -31.387  1.00  0.00    -0.092 NA
HETATM   42  S1  UNL     1       2.430 -25.851 -33.477  1.00  0.00    -0.067 SA
ENDBRANCH  38  40
ENDBRANCH   9  38
TORSDOF 11
ENDMDL
MODEL 5
REMARK VINA RESULT: -8.554644628      3.261      7.223
REMARK  11 active torsions:
REMARK  status: ('A' for Active; 'I' for Inactive)
REMARK    1  A    between atoms: O1_2  and  C2_3 
REMARK    2  A    between atoms: C2_3  and  O2_4 
REMARK    3  A    between atoms: O2_4  and  N1_5 
REMARK    4  A    between atoms: N1_5  and  C3_6 
REMARK    5  A    between atoms: C3_6  and  C4_7 
REMARK    6  A    between atoms: C4_7  and  N2_8 
REMARK    7  A    between atoms: C6_11  and  C7_12 
REMARK    8  A    between atoms: C10_22  and  C11_23 
REMARK    9  A    between atoms: C12_24  and  C13_25 
REMARK   10  A    between atoms: N10_36  and  C16_38 
REMARK   11  A    between atoms: C16_38  and  C18_40 
ROOT
HETATM    1  N2  UNL     1       4.442 -22.343 -28.364  1.00  0.00    -0.318 N 
HETATM    2  C5  UNL     1       5.570 -22.750 -27.788  1.00  0.00     0.136 A 
HETATM    3  N3  UNL     1       5.786 -22.316 -26.442  1.00  0.00    -0.081 NA
HETATM    4  C6  UNL     1       6.496 -23.537 -28.414  1.00  0.00     0.077 A 
HETATM    5  C9  UNL     1       6.209 -23.906 -29.706  1.00  0.00     0.086 A 
HETATM    6  N6  UNL     1       7.134 -24.728 -30.415  1.00  0.00    -0.100 NA
HETATM    7  C10 UNL     1       5.061 -23.504 -30.323  1.00  0.00     0.087 A 
HETATM    8  C15 UNL     1       4.144 -22.714 -29.680  1.00  0.00     0.126 A 
HETATM    9  N10 UNL     1       3.110 -22.319 -30.158  1.00  0.00    -0.365 N 
ATOM     10  H10 UNL     1       2.665 -21.765 -29.427  1.00  0.00     0.162 HD
ENDROOT
BRANCH   7  11
HETATM   11  C11 UNL     1       4.846 -23.940 -31.673  1.00  0.00    -0.054 C 
HETATM   12  C12 UNL     1       4.681 -24.272 -32.844  1.00  0.00    -0.037 C 
BRANCH  12  13
HETATM   13  C13 UNL     1       4.491 -24.633 -34.218  1.00  0.00     0.155 A 
HETATM   14  N7  UNL     1       4.832 -25.783 -34.819  1.00  0.00    -0.229 N 
HETATM   15  O5  UNL     1       4.508 -25.753 -36.073  1.00  0.00    -0.154 OA
ATOM     16  H7  UNL     1       5.283 -26.570 -34.354  1.00  0.00     0.197 HD
HETATM   17  N8  UNL     1       3.953 -24.632 -36.381  1.00  0.00    -0.223 N 
HETATM   18  C14 UNL     1       3.906 -23.861 -35.244  1.00  0.00     0.159 A 
ATOM     19  H8  UNL     1       3.611 -24.364 -37.304  1.00  0.00     0.198 HD
HETATM   20  N9  UNL     1       3.454 -22.732 -35.139  1.00  0.00    -0.382 N 
ATOM     21  H92 UNL     1       3.419 -22.160 -34.296  1.00  0.00     0.157 HD
ATOM     22  H91 UNL     1       3.031 -22.174 -35.881  1.00  0.00     0.157 HD
ENDBRANCH  12  13
ENDBRANCH   7  11
BRANCH   4  23
HETATM   23  C7  UNL     1       7.745 -24.005 -27.819  1.00  0.00     0.145 A 
HETATM   24  N4  UNL     1       8.651 -23.201 -27.181  1.00  0.00    -0.285 N 
HETATM   25  C8  UNL     1       9.681 -23.949 -26.754  1.00  0.00     0.388 A 
ATOM     26  H4  UNL     1       8.558 -22.194 -27.050  1.00  0.00     0.172 HD
HETATM   27  O3  UNL     1      10.664 -23.460 -26.130  1.00  0.00    -0.236 OA
HETATM   28  O4  UNL     1       9.443 -25.171 -27.104  1.00  0.00    -0.179 OA
HETATM   29  N5  UNL     1       8.286 -25.223 -27.745  1.00  0.00    -0.239 N 
ATOM     30  H5  UNL     1       7.868 -26.072 -28.126  1.00  0.00     0.196 HD
ENDBRANCH   4  23
BRANCH   1  31
HETATM   31  C4  UNL     1       3.481 -21.520 -27.697  1.00  0.00     0.150 C 
BRANCH  31  32
HETATM   32  C3  UNL     1       3.823 -20.034 -27.868  1.00  0.00     0.163 C 
BRANCH  32  33
HETATM   33  N1  UNL     1       3.617 -19.383 -26.591  1.00  0.00    -0.097 NA
BRANCH  33  34
HETATM   34  O2  UNL     1       2.492 -18.663 -26.522  1.00  0.00    -0.261 OA
BRANCH  34  35
HETATM   35  C2  UNL     1       2.452 -17.788 -25.452  1.00  0.00     0.363 C 
BRANCH  35  36
HETATM   36  O1  UNL     1       1.240 -17.943 -24.737  1.00  0.00    -0.370 OA
HETATM   37  C1  UNL     1       0.211 -17.291 -25.439  1.00  0.00     0.204 C 
ENDBRANCH  35  36
ENDBRANCH  34  35
ENDBRANCH  33  34
ENDBRANCH  32  33
ENDBRANCH  31  32
ENDBRANCH   1  31
BRANCH   9  38
HETATM   38  C16 UNL     1       2.265 -22.270 -31.212  1.00  0.00     0.138 C 
HETATM   39  C17 UNL     1       1.290 -23.457 -31.312  1.00  0.00     0.039 C 
BRANCH  38  40
HETATM   40  C18 UNL     1       1.322 -21.069 -31.167  1.00  0.00     0.113 C 
HETATM   41  N11 UNL     1       1.594 -19.930 -30.392  1.00  0.00    -0.092 NA
HETATM   42  S1  UNL     1      -0.034 -21.116 -32.053  1.00  0.00    -0.067 SA
ENDBRANCH  38  40
ENDBRANCH   9  38
TORSDOF 11
ENDMDL
