MODEL 1
REMARK VINA RESULT: -6.193984064      0.000      0.000
REMARK  8 active torsions:
REMARK  status: ('A' for Active; 'I' for Inactive)
REMARK    1  A    between atoms: C4_5  and  O1_6 
REMARK    2  A    between atoms: C7_10  and  O2_11 
REMARK    3  A    between atoms: C9_13  and  C11_15 
REMARK    4  A    between atoms: C15_22  and  S1_23 
REMARK    5  A    between atoms: S1_23  and  C16_24 
REMARK    6  A    between atoms: C16_24  and  C17_25 
REMARK    7  A    between atoms: C17_25  and  N3_26 
REMARK    8  A    between atoms: N3_26  and  N4_27 
ROOT
HETATM    1  C1  UNL     1     -15.777 -10.718   7.832  1.00  0.00     0.028 C 
HETATM    2  C2  UNL     1     -16.279 -10.072   6.804  1.00  0.00     0.016 A 
HETATM    3  C3  UNL     1     -17.631 -10.115   6.600  1.00  0.00     0.094 A 
HETATM    4  N1  UNL     1     -18.510 -10.820   7.503  1.00  0.00    -0.098 NA
HETATM    5  C4  UNL     1     -18.119  -9.460   5.502  1.00  0.00     0.118 A 
HETATM    6  C5  UNL     1     -17.302  -8.776   4.614  1.00  0.00     0.080 A 
HETATM    7  C6  UNL     1     -15.907  -8.728   4.808  1.00  0.00     0.033 A 
HETATM    8  C7  UNL     1     -15.471  -9.380   5.906  1.00  0.00     0.090 A 
HETATM    9  C9  UNL     1     -14.993  -8.179   3.870  1.00  0.00     0.061 C 
HETATM   10  C10 UNL     1     -13.564  -8.004   4.047  1.00  0.00     0.044 C 
HETATM   11  N2  UNL     1     -15.419  -6.943   3.184  1.00  0.00    -0.343 N 
ATOM     12  H2  UNL     1     -14.739  -6.182   3.209  1.00  0.00     0.164 HD
HETATM   13  C13 UNL     1     -16.616  -6.646   2.500  1.00  0.00     0.269 C 
HETATM   14  O3  UNL     1     -16.714  -5.652   1.750  1.00  0.00    -0.266 OA
HETATM   15  C14 UNL     1     -17.839  -7.459   2.604  1.00  0.00     0.107 C 
HETATM   16  C15 UNL     1     -18.680  -7.412   1.605  1.00  0.00     0.080 C 
HETATM   17  N5  UNL     1     -18.109  -8.270   3.749  1.00  0.00    -0.349 N 
ATOM     18  H5  UNL     1     -19.094  -8.480   3.906  1.00  0.00     0.166 HD
ENDROOT
BRANCH  16  19
HETATM   19  S1  UNL     1     -18.329  -6.402   0.207  1.00  0.00    -0.138 SA
BRANCH  19  20
HETATM   20  C16 UNL     1     -17.802  -7.347  -1.229  1.00  0.00     0.096 C 
BRANCH  20  21
HETATM   21  C17 UNL     1     -16.845  -8.473  -0.873  1.00  0.00     0.144 C 
BRANCH  21  22
HETATM   22  N3  UNL     1     -15.922  -8.680  -1.944  1.00  0.00    -0.148 NA
BRANCH  22  23
HETATM   23  N4  UNL     1     -14.689  -9.060  -1.422  1.00  0.00    -0.348 N 
ATOM     24  H42 UNL     1     -14.101  -8.466  -0.838  1.00  0.00     0.172 HD
ATOM     25  H41 UNL     1     -14.476 -10.013  -1.717  1.00  0.00     0.172 HD
ENDBRANCH  22  23
ENDBRANCH  21  22
ENDBRANCH  20  21
ENDBRANCH  19  20
ENDBRANCH  16  19
BRANCH   9  26
HETATM   26  C11 UNL     1     -15.037  -9.194   2.651  1.00  0.00     0.031 C 
HETATM   27  C12 UNL     1     -13.632  -9.438   2.148  1.00  0.00     0.008 C 
ENDBRANCH   9  26
BRANCH   5  28
HETATM   28  O1  UNL     1     -19.504  -9.514   5.314  1.00  0.00    -0.357 OA
ATOM     29  H1  UNL     1     -19.952  -8.679   5.248  1.00  0.00     0.218 HD
ENDBRANCH   5  28
BRANCH   8  30
HETATM   30  O2  UNL     1     -14.136  -9.397   6.233  1.00  0.00    -0.354 OA
HETATM   31  C8  UNL     1     -13.333 -10.572   6.049  1.00  0.00     0.210 C 
ENDBRANCH   8  30
TORSDOF 8
ENDMDL
MODEL 2
REMARK VINA RESULT: -5.978771352      2.673      3.541
REMARK  8 active torsions:
REMARK  status: ('A' for Active; 'I' for Inactive)
REMARK    1  A    between atoms: C4_5  and  O1_6 
REMARK    2  A    between atoms: C7_10  and  O2_11 
REMARK    3  A    between atoms: C9_13  and  C11_15 
REMARK    4  A    between atoms: C15_22  and  S1_23 
REMARK    5  A    between atoms: S1_23  and  C16_24 
REMARK    6  A    between atoms: C16_24  and  C17_25 
REMARK    7  A    between atoms: C17_25  and  N3_26 
REMARK    8  A    between atoms: N3_26  and  N4_27 
ROOT
HETATM    1  C1  UNL     1     -12.077 -12.655   4.119  1.00  0.00     0.028 C 
HETATM    2  C2  UNL     1     -13.185 -11.967   4.277  1.00  0.00     0.016 A 
HETATM    3  C3  UNL     1     -14.258 -12.577   4.868  1.00  0.00     0.094 A 
HETATM    4  N1  UNL     1     -14.184 -13.937   5.345  1.00  0.00    -0.098 NA
HETATM    5  C4  UNL     1     -15.407 -11.844   4.987  1.00  0.00     0.118 A 
HETATM    6  C5  UNL     1     -15.511 -10.537   4.536  1.00  0.00     0.080 A 
HETATM    7  C6  UNL     1     -14.417  -9.896   3.921  1.00  0.00     0.033 A 
HETATM    8  C7  UNL     1     -13.304 -10.653   3.831  1.00  0.00     0.090 A 
HETATM    9  C9  UNL     1     -14.489  -8.620   3.302  1.00  0.00     0.061 C 
HETATM   10  C10 UNL     1     -13.387  -7.861   2.745  1.00  0.00     0.044 C 
HETATM   11  N2  UNL     1     -15.308  -7.602   3.990  1.00  0.00    -0.343 N 
ATOM     12  H2  UNL     1     -14.843  -6.707   4.141  1.00  0.00     0.164 HD
HETATM   13  C13 UNL     1     -16.633  -7.670   4.471  1.00  0.00     0.269 C 
HETATM   14  O3  UNL     1     -17.269  -6.644   4.787  1.00  0.00    -0.266 OA
HETATM   15  C14 UNL     1     -17.375  -8.930   4.644  1.00  0.00     0.107 C 
HETATM   16  C15 UNL     1     -18.679  -8.872   4.603  1.00  0.00     0.080 C 
HETATM   17  N5  UNL     1     -16.705 -10.175   4.851  1.00  0.00    -0.349 N 
ATOM     18  H5  UNL     1     -17.261 -10.889   5.323  1.00  0.00     0.166 HD
ENDROOT
BRANCH  16  19
HETATM   19  S1  UNL     1     -19.482  -7.325   4.350  1.00  0.00    -0.138 SA
BRANCH  19  20
HETATM   20  C16 UNL     1     -20.130  -7.132   2.684  1.00  0.00     0.096 C 
BRANCH  20  21
HETATM   21  C17 UNL     1     -19.096  -7.436   1.612  1.00  0.00     0.144 C 
BRANCH  21  22
HETATM   22  N3  UNL     1     -18.186  -6.340   1.495  1.00  0.00    -0.148 NA
BRANCH  22  23
HETATM   23  N4  UNL     1     -18.107  -5.948   0.162  1.00  0.00    -0.348 N 
ATOM     24  H42 UNL     1     -18.855  -6.070  -0.522  1.00  0.00     0.172 HD
ATOM     25  H41 UNL     1     -17.196  -5.525  -0.013  1.00  0.00     0.172 HD
ENDBRANCH  22  23
ENDBRANCH  21  22
ENDBRANCH  20  21
ENDBRANCH  19  20
ENDBRANCH  16  19
BRANCH   9  26
HETATM   26  C11 UNL     1     -15.385  -8.866   2.016  1.00  0.00     0.031 C 
HETATM   27  C12 UNL     1     -14.517  -8.812   0.780  1.00  0.00     0.008 C 
ENDBRANCH   9  26
BRANCH   5  28
HETATM   28  O1  UNL     1     -16.490 -12.487   5.597  1.00  0.00    -0.357 OA
ATOM     29  H1  UNL     1     -16.714 -12.194   6.472  1.00  0.00     0.218 HD
ENDBRANCH   5  28
BRANCH   8  30
HETATM   30  O2  UNL     1     -12.152 -10.150   3.274  1.00  0.00    -0.354 OA
HETATM   31  C8  UNL     1     -11.023  -9.788   4.082  1.00  0.00     0.210 C 
ENDBRANCH   8  30
TORSDOF 8
ENDMDL
MODEL 3
REMARK VINA RESULT: -5.930934788      1.915      2.412
REMARK  8 active torsions:
REMARK  status: ('A' for Active; 'I' for Inactive)
REMARK    1  A    between atoms: C4_5  and  O1_6 
REMARK    2  A    between atoms: C7_10  and  O2_11 
REMARK    3  A    between atoms: C9_13  and  C11_15 
REMARK    4  A    between atoms: C15_22  and  S1_23 
REMARK    5  A    between atoms: S1_23  and  C16_24 
REMARK    6  A    between atoms: C16_24  and  C17_25 
REMARK    7  A    between atoms: C17_25  and  N3_26 
REMARK    8  A    between atoms: N3_26  and  N4_27 
ROOT
HETATM    1  C1  UNL     1     -13.482 -10.218   6.221  1.00  0.00     0.028 C 
HETATM    2  C2  UNL     1     -14.504  -9.642   5.628  1.00  0.00     0.016 A 
HETATM    3  C3  UNL     1     -15.588  -9.291   6.384  1.00  0.00     0.094 A 
HETATM    4  N1  UNL     1     -15.616  -9.507   7.811  1.00  0.00    -0.098 NA
HETATM    5  C4  UNL     1     -16.648  -8.724   5.731  1.00  0.00     0.118 A 
HETATM    6  C5  UNL     1     -16.654  -8.505   4.362  1.00  0.00     0.080 A 
HETATM    7  C6  UNL     1     -15.547  -8.866   3.568  1.00  0.00     0.033 A 
HETATM    8  C7  UNL     1     -14.522  -9.414   4.254  1.00  0.00     0.090 A 
HETATM    9  C9  UNL     1     -15.534  -8.812   2.150  1.00  0.00     0.061 C 
HETATM   10  C10 UNL     1     -14.403  -9.069   1.279  1.00  0.00     0.044 C 
HETATM   11  N2  UNL     1     -16.200  -7.649   1.531  1.00  0.00    -0.343 N 
ATOM     12  H2  UNL     1     -15.640  -7.151   0.839  1.00  0.00     0.164 HD
HETATM   13  C13 UNL     1     -17.489  -7.116   1.744  1.00  0.00     0.269 C 
HETATM   14  O3  UNL     1     -17.998  -6.294   0.953  1.00  0.00    -0.266 OA
HETATM   15  C14 UNL     1     -18.339  -7.468   2.894  1.00  0.00     0.107 C 
HETATM   16  C15 UNL     1     -19.630  -7.337   2.751  1.00  0.00     0.080 C 
HETATM   17  N5  UNL     1     -17.782  -7.932   4.126  1.00  0.00    -0.349 N 
ATOM     18  H5  UNL     1     -18.371  -7.788   4.946  1.00  0.00     0.166 HD
ENDROOT
BRANCH  16  19
HETATM   19  S1  UNL     1     -20.292  -6.759   1.226  1.00  0.00    -0.138 SA
BRANCH  19  20
HETATM   20  C16 UNL     1     -20.935  -8.081   0.191  1.00  0.00     0.096 C 
BRANCH  20  21
HETATM   21  C17 UNL     1     -19.856  -8.751  -0.643  1.00  0.00     0.144 C 
BRANCH  21  22
HETATM   22  N3  UNL     1     -19.582  -7.964  -1.804  1.00  0.00    -0.148 NA
BRANCH  22  23
HETATM   23  N4  UNL     1     -18.246  -7.576  -1.792  1.00  0.00    -0.348 N 
ATOM     24  H42 UNL     1     -17.904  -6.689  -1.420  1.00  0.00     0.172 HD
ATOM     25  H41 UNL     1     -17.676  -8.311  -2.211  1.00  0.00     0.172 HD
ENDBRANCH  22  23
ENDBRANCH  21  22
ENDBRANCH  20  21
ENDBRANCH  19  20
ENDBRANCH  16  19
BRANCH   9  26
HETATM   26  C11 UNL     1     -16.537  -9.962   1.713  1.00  0.00     0.031 C 
HETATM   27  C12 UNL     1     -15.753 -11.122   1.141  1.00  0.00     0.008 C 
ENDBRANCH   9  26
BRANCH   5  28
HETATM   28  O1  UNL     1     -17.745  -8.369   6.524  1.00  0.00    -0.357 OA
ATOM     29  H1  UNL     1     -17.808  -7.454   6.770  1.00  0.00     0.218 HD
ENDBRANCH   5  28
BRANCH   8  30
HETATM   30  O2  UNL     1     -13.368  -9.794   3.613  1.00  0.00    -0.354 OA
HETATM   31  C8  UNL     1     -12.182  -8.987   3.660  1.00  0.00     0.210 C 
ENDBRANCH   8  30
TORSDOF 8
ENDMDL
MODEL 4
REMARK VINA RESULT: -5.911556324      1.355      1.607
REMARK  8 active torsions:
REMARK  status: ('A' for Active; 'I' for Inactive)
REMARK    1  A    between atoms: C4_5  and  O1_6 
REMARK    2  A    between atoms: C7_10  and  O2_11 
REMARK    3  A    between atoms: C9_13  and  C11_15 
REMARK    4  A    between atoms: C15_22  and  S1_23 
REMARK    5  A    between atoms: S1_23  and  C16_24 
REMARK    6  A    between atoms: C16_24  and  C17_25 
REMARK    7  A    between atoms: C17_25  and  N3_26 
REMARK    8  A    between atoms: N3_26  and  N4_27 
ROOT
HETATM    1  C1  UNL     1     -13.994 -10.112   7.011  1.00  0.00     0.028 C 
HETATM    2  C2  UNL     1     -14.876  -9.584   6.193  1.00  0.00     0.016 A 
HETATM    3  C3  UNL     1     -16.202  -9.658   6.519  1.00  0.00     0.094 A 
HETATM    4  N1  UNL     1     -16.643 -10.270   7.750  1.00  0.00    -0.098 NA
HETATM    5  C4  UNL     1     -17.096  -9.128   5.630  1.00  0.00     0.118 A 
HETATM    6  C5  UNL     1     -16.705  -8.536   4.438  1.00  0.00     0.080 A 
HETATM    7  C6  UNL     1     -15.343  -8.456   4.085  1.00  0.00     0.033 A 
HETATM    8  C7  UNL     1     -14.497  -8.984   4.993  1.00  0.00     0.090 A 
HETATM    9  C9  UNL     1     -14.874  -8.003   2.823  1.00  0.00     0.061 C 
HETATM   10  C10 UNL     1     -13.494  -7.799   2.430  1.00  0.00     0.044 C 
HETATM   11  N2  UNL     1     -15.585  -6.850   2.235  1.00  0.00    -0.343 N 
ATOM     12  H2  UNL     1     -14.982  -6.086   1.928  1.00  0.00     0.164 HD
HETATM   13  C13 UNL     1     -16.964  -6.637   2.029  1.00  0.00     0.269 C 
HETATM   14  O3  UNL     1     -17.383  -5.729   1.280  1.00  0.00    -0.266 OA
HETATM   15  C14 UNL     1     -18.019  -7.444   2.665  1.00  0.00     0.107 C 
HETATM   16  C15 UNL     1     -19.174  -7.510   2.059  1.00  0.00     0.080 C 
HETATM   17  N5  UNL     1     -17.800  -8.130   3.899  1.00  0.00    -0.349 N 
ATOM     18  H5  UNL     1     -18.644  -8.330   4.435  1.00  0.00     0.166 HD
ENDROOT
BRANCH  16  19
HETATM   19  S1  UNL     1     -19.421  -6.652   0.542  1.00  0.00    -0.138 SA
BRANCH  19  20
HETATM   20  C16 UNL     1     -19.309  -7.722  -0.899  1.00  0.00     0.096 C 
BRANCH  20  21
HETATM   21  C17 UNL     1     -17.873  -8.014  -1.303  1.00  0.00     0.144 C 
BRANCH  21  22
HETATM   22  N3  UNL     1     -17.658  -7.605  -2.655  1.00  0.00    -0.148 NA
BRANCH  22  23
HETATM   23  N4  UNL     1     -18.743  -7.999  -3.434  1.00  0.00    -0.348 N 
ATOM     24  H42 UNL     1     -19.696  -8.107  -3.086  1.00  0.00     0.172 HD
ATOM     25  H41 UNL     1     -18.431  -8.159  -4.391  1.00  0.00     0.172 HD
ENDBRANCH  22  23
ENDBRANCH  21  22
ENDBRANCH  20  21
ENDBRANCH  19  20
ENDBRANCH  16  19
BRANCH   9  26
HETATM   26  C11 UNL     1     -15.325  -9.142   1.815  1.00  0.00     0.031 C 
HETATM   27  C12 UNL     1     -14.240  -9.360   0.785  1.00  0.00     0.008 C 
ENDBRANCH   9  26
BRANCH   5  28
HETATM   28  O1  UNL     1     -18.446  -9.212   5.986  1.00  0.00    -0.357 OA
ATOM     29  H1  UNL     1     -18.975  -8.442   5.814  1.00  0.00     0.218 HD
ENDBRANCH   5  28
BRANCH   8  30
HETATM   30  O2  UNL     1     -13.138  -8.957   4.792  1.00  0.00    -0.354 OA
HETATM   31  C8  UNL     1     -12.414 -10.128   4.390  1.00  0.00     0.210 C 
ENDBRANCH   8  30
TORSDOF 8
ENDMDL
MODEL 5
REMARK VINA RESULT: -5.786462286      2.788      3.824
REMARK  8 active torsions:
REMARK  status: ('A' for Active; 'I' for Inactive)
REMARK    1  A    between atoms: C4_5  and  O1_6 
REMARK    2  A    between atoms: C7_10  and  O2_11 
REMARK    3  A    between atoms: C9_13  and  C11_15 
REMARK    4  A    between atoms: C15_22  and  S1_23 
REMARK    5  A    between atoms: S1_23  and  C16_24 
REMARK    6  A    between atoms: C16_24  and  C17_25 
REMARK    7  A    between atoms: C17_25  and  N3_26 
REMARK    8  A    between atoms: N3_26  and  N4_27 
ROOT
HETATM    1  C1  UNL     1     -13.550 -10.235   6.209  1.00  0.00     0.028 C 
HETATM    2  C2  UNL     1     -14.577  -9.659   5.626  1.00  0.00     0.016 A 
HETATM    3  C3  UNL     1     -15.649  -9.294   6.393  1.00  0.00     0.094 A 
HETATM    4  N1  UNL     1     -15.658  -9.497   7.822  1.00  0.00    -0.098 NA
HETATM    5  C4  UNL     1     -16.715  -8.728   5.750  1.00  0.00     0.118 A 
HETATM    6  C5  UNL     1     -16.739  -8.522   4.378  1.00  0.00     0.080 A 
HETATM    7  C6  UNL     1     -15.645  -8.897   3.573  1.00  0.00     0.033 A 
HETATM    8  C7  UNL     1     -14.614  -9.444   4.250  1.00  0.00     0.090 A 
HETATM    9  C9  UNL     1     -15.652  -8.857   2.154  1.00  0.00     0.061 C 
HETATM   10  C10 UNL     1     -14.535  -9.129   1.270  1.00  0.00     0.044 C 
HETATM   11  N2  UNL     1     -16.321  -7.696   1.533  1.00  0.00    -0.343 N 
ATOM     12  H2  UNL     1     -15.767  -7.209   0.829  1.00  0.00     0.164 HD
HETATM   13  C13 UNL     1     -17.603  -7.154   1.759  1.00  0.00     0.269 C 
HETATM   14  O3  UNL     1     -18.119  -6.338   0.968  1.00  0.00    -0.266 OA
HETATM   15  C14 UNL     1     -18.438  -7.490   2.925  1.00  0.00     0.107 C 
HETATM   16  C15 UNL     1     -19.731  -7.354   2.799  1.00  0.00     0.080 C 
HETATM   17  N5  UNL     1     -17.867  -7.946   4.153  1.00  0.00    -0.349 N 
ATOM     18  H5  UNL     1     -18.444  -7.791   4.979  1.00  0.00     0.166 HD
ENDROOT
BRANCH  16  19
HETATM   19  S1  UNL     1     -20.411  -6.787   1.277  1.00  0.00    -0.138 SA
BRANCH  19  20
HETATM   20  C16 UNL     1     -22.179  -6.472   1.370  1.00  0.00     0.096 C 
BRANCH  20  21
HETATM   21  C17 UNL     1     -22.584  -5.185   0.671  1.00  0.00     0.144 C 
BRANCH  21  22
HETATM   22  N3  UNL     1     -23.874  -4.772   1.126  1.00  0.00    -0.148 NA
BRANCH  22  23
HETATM   23  N4  UNL     1     -24.588  -5.886   1.560  1.00  0.00    -0.348 N 
ATOM     24  H42 UNL     1     -24.327  -6.464   2.359  1.00  0.00     0.172 HD
ATOM     25  H41 UNL     1     -25.398  -6.025   0.956  1.00  0.00     0.172 HD
ENDBRANCH  22  23
ENDBRANCH  21  22
ENDBRANCH  20  21
ENDBRANCH  19  20
ENDBRANCH  16  19
BRANCH   9  26
HETATM   26  C11 UNL     1     -16.667 -10.006   1.743  1.00  0.00     0.031 C 
HETATM   27  C12 UNL     1     -15.899 -11.171   1.159  1.00  0.00     0.008 C 
ENDBRANCH   9  26
BRANCH   5  28
HETATM   28  O1  UNL     1     -17.799  -8.360   6.555  1.00  0.00    -0.357 OA
ATOM     29  H1  UNL     1     -18.040  -8.971   7.240  1.00  0.00     0.218 HD
ENDBRANCH   5  28
BRANCH   8  30
HETATM   30  O2  UNL     1     -13.470  -9.837   3.596  1.00  0.00    -0.354 OA
HETATM   31  C8  UNL     1     -12.273  -9.047   3.637  1.00  0.00     0.210 C 
ENDBRANCH   8  30
TORSDOF 8
ENDMDL
