MODEL 1
REMARK VINA RESULT: -6.137982567      0.000      0.000
REMARK  8 active torsions:
REMARK  status: ('A' for Active; 'I' for Inactive)
REMARK    1  A    between atoms: N1_1  and  C1_4 
REMARK    2  A    between atoms: C2_7  and  N3_8 
REMARK    3  A    between atoms: N3_8  and  C3_9 
REMARK    4  A    between atoms: N3_8  and  C10_18 
REMARK    5  A    between atoms: C3_9  and  C4_10 
REMARK    6  A    between atoms: C4_10  and  C5_12 
REMARK    7  A    between atoms: C5_12  and  N4_13 
REMARK    8  A    between atoms: C16_27  and  N6_28 
ROOT
HETATM    1  C1  UNL     1     -14.611 -13.176   3.209  1.00  0.00     0.679 A 
HETATM    2  N2  UNL     1     -15.616 -12.638   3.871  1.00  0.00    -0.176 N 
ATOM      3  H2  UNL     1     -16.554 -12.730   3.481  1.00  0.00     0.186 HD
HETATM    4  C2  UNL     1     -15.466 -11.947   5.079  1.00  0.00     0.141 A 
HETATM    5  C15 UNL     1     -14.223 -11.861   5.541  1.00  0.00     0.097 A 
HETATM    6  C16 UNL     1     -13.990 -11.222   6.725  1.00  0.00     0.117 A 
HETATM    7  N7  UNL     1     -12.710 -11.163   7.177  1.00  0.00    -0.338 N 
ATOM      8  H7  UNL     1     -12.522 -10.686   8.060  1.00  0.00     0.168 HD
HETATM    9  C17 UNL     1     -11.686 -11.707   6.506  1.00  0.00     0.183 A 
HETATM   10  N8  UNL     1     -11.928 -12.330   5.352  1.00  0.00    -0.337 N 
ATOM     11  H8  UNL     1     -11.149 -12.745   4.840  1.00  0.00     0.168 HD
HETATM   12  C18 UNL     1     -13.164 -12.426   4.848  1.00  0.00     0.139 A 
HETATM   13  N9  UNL     1     -13.380 -13.066   3.704  1.00  0.00    -0.176 N 
ATOM     14  H9  UNL     1     -12.596 -13.478   3.199  1.00  0.00     0.186 HD
ENDROOT
BRANCH   4  15
HETATM   15  N3  UNL     1     -16.718 -11.407   5.538  1.00  0.00    -0.333 N 
BRANCH  15  16
HETATM   16  C3  UNL     1     -17.122 -10.196   4.930  1.00  0.00     0.149 C 
BRANCH  16  17
HETATM   17  C4  UNL     1     -16.849  -8.879   5.405  1.00  0.00     0.202 C 
HETATM   18  O1  UNL     1     -16.926  -8.485   6.529  1.00  0.00    -0.285 OA
BRANCH  17  19
HETATM   19  C5  UNL     1     -16.407  -7.809   4.421  1.00  0.00     0.146 C 
BRANCH  19  20
HETATM   20  N4  UNL     1     -15.177  -8.060   3.832  1.00  0.00    -0.366 N 
HETATM   21  C6  UNL     1     -14.002  -8.090   4.607  1.00  0.00     0.063 A 
HETATM   22  C7  UNL     1     -12.984  -8.942   3.875  1.00  0.00     0.046 A 
HETATM   23  C8  UNL     1     -13.646  -9.355   2.595  1.00  0.00     0.025 A 
HETATM   24  C9  UNL     1     -15.066  -8.779   2.645  1.00  0.00     0.128 A 
ENDBRANCH  19  20
ENDBRANCH  17  19
ENDBRANCH  16  17
ENDBRANCH  15  16
BRANCH  15  25
HETATM   25  C10 UNL     1     -17.483 -12.281   6.369  1.00  0.00     0.094 C 
HETATM   26  C11 UNL     1     -18.217 -11.769   7.542  1.00  0.00     0.053 C 
HETATM   27  C12 UNL     1     -18.813 -13.024   8.229  1.00  0.00     0.234 C 
HETATM   28  N5  UNL     1     -19.996 -13.395   7.456  1.00  0.00    -0.075 N 
HETATM   29  C13 UNL     1     -19.858 -12.969   6.076  1.00  0.00     0.234 C 
ATOM     30  H52 UNL     1     -20.197 -14.393   7.526  1.00  0.00     0.277 HD
ATOM     31  H51 UNL     1     -20.852 -13.038   7.878  1.00  0.00     0.277 HD
HETATM   32  C14 UNL     1     -18.448 -13.139   5.569  1.00  0.00     0.053 C 
ENDBRANCH  15  25
ENDBRANCH   4  15
BRANCH   1  33
HETATM   33  N1  UNL     1     -14.784 -13.804   2.101  1.00  0.00    -0.234 N 
ATOM     34  H12 UNL     1     -15.358 -14.647   2.096  1.00  0.00     0.174 HD
ATOM     35  H11 UNL     1     -14.366 -13.486   1.227  1.00  0.00     0.174 HD
ENDBRANCH   1  33
BRANCH   6  36
HETATM   36  N6  UNL     1     -14.898 -10.718   7.419  1.00  0.00    -0.385 N 
ATOM     37  H62 UNL     1     -15.607 -10.146   6.961  1.00  0.00     0.157 HD
ATOM     38  H61 UNL     1     -14.954 -10.832   8.431  1.00  0.00     0.157 HD
ENDBRANCH   6  36
TORSDOF 8
ENDMDL
MODEL 2
REMARK VINA RESULT: -6.051072292      1.441      5.645
REMARK  8 active torsions:
REMARK  status: ('A' for Active; 'I' for Inactive)
REMARK    1  A    between atoms: N1_1  and  C1_4 
REMARK    2  A    between atoms: C2_7  and  N3_8 
REMARK    3  A    between atoms: N3_8  and  C3_9 
REMARK    4  A    between atoms: N3_8  and  C10_18 
REMARK    5  A    between atoms: C3_9  and  C4_10 
REMARK    6  A    between atoms: C4_10  and  C5_12 
REMARK    7  A    between atoms: C5_12  and  N4_13 
REMARK    8  A    between atoms: C16_27  and  N6_28 
ROOT
HETATM    1  C1  UNL     1     -12.318 -11.766   6.387  1.00  0.00     0.679 A 
HETATM    2  N2  UNL     1     -13.148 -10.787   6.090  1.00  0.00    -0.176 N 
ATOM      3  H2  UNL     1     -13.071  -9.915   6.614  1.00  0.00     0.186 HD
HETATM    4  C2  UNL     1     -14.129 -10.877   5.096  1.00  0.00     0.141 A 
HETATM    5  C15 UNL     1     -14.181 -12.034   4.443  1.00  0.00     0.097 A 
HETATM    6  C16 UNL     1     -15.095 -12.199   3.443  1.00  0.00     0.117 A 
HETATM    7  N7  UNL     1     -15.113 -13.389   2.786  1.00  0.00    -0.338 N 
ATOM      8  H7  UNL     1     -15.793 -13.526   2.037  1.00  0.00     0.168 HD
HETATM    9  C17 UNL     1     -14.272 -14.387   3.086  1.00  0.00     0.183 A 
HETATM   10  N8  UNL     1     -13.383 -14.212   4.064  1.00  0.00    -0.337 N 
ATOM     11  H8  UNL     1     -12.742 -14.972   4.294  1.00  0.00     0.168 HD
HETATM   12  C18 UNL     1     -13.309 -13.067   4.753  1.00  0.00     0.139 A 
HETATM   13  N9  UNL     1     -12.403 -12.911   5.712  1.00  0.00    -0.176 N 
ATOM     14  H9  UNL     1     -11.766 -13.675   5.934  1.00  0.00     0.186 HD
ENDROOT
BRANCH   4  15
HETATM   15  N3  UNL     1     -14.935  -9.687   5.039  1.00  0.00    -0.333 N 
BRANCH  15  16
HETATM   16  C3  UNL     1     -15.720  -9.424   6.185  1.00  0.00     0.149 C 
BRANCH  16  17
HETATM   17  C4  UNL     1     -17.139  -9.285   6.225  1.00  0.00     0.202 C 
HETATM   18  O1  UNL     1     -17.762  -8.326   6.565  1.00  0.00    -0.285 OA
BRANCH  17  19
HETATM   19  C5  UNL     1     -18.014 -10.452   5.800  1.00  0.00     0.146 C 
BRANCH  19  20
HETATM   20  N4  UNL     1     -18.629 -11.109   6.855  1.00  0.00    -0.366 N 
HETATM   21  C6  UNL     1     -20.016 -11.350   6.840  1.00  0.00     0.063 A 
HETATM   22  C7  UNL     1     -20.291 -12.540   7.736  1.00  0.00     0.046 A 
HETATM   23  C8  UNL     1     -18.962 -12.933   8.309  1.00  0.00     0.025 A 
HETATM   24  C9  UNL     1     -17.931 -11.990   7.676  1.00  0.00     0.128 A 
ENDBRANCH  19  20
ENDBRANCH  17  19
ENDBRANCH  16  17
ENDBRANCH  15  16
BRANCH  15  25
HETATM   25  C10 UNL     1     -14.657  -8.823   3.936  1.00  0.00     0.094 C 
HETATM   26  C11 UNL     1     -15.286  -7.492   3.833  1.00  0.00     0.053 C 
HETATM   27  C12 UNL     1     -14.824  -6.928   2.465  1.00  0.00     0.234 C 
HETATM   28  N5  UNL     1     -13.460  -6.442   2.658  1.00  0.00    -0.075 N 
HETATM   29  C13 UNL     1     -12.801  -7.176   3.721  1.00  0.00     0.234 C 
ATOM     30  H52 UNL     1     -12.923  -6.466   1.791  1.00  0.00     0.277 HD
ATOM     31  H51 UNL     1     -13.437  -5.435   2.822  1.00  0.00     0.277 HD
HETATM   32  C14 UNL     1     -13.167  -8.640   3.708  1.00  0.00     0.053 C 
ENDBRANCH  15  25
ENDBRANCH   4  15
BRANCH   1  33
HETATM   33  N1  UNL     1     -11.428 -11.650   7.307  1.00  0.00    -0.234 N 
ATOM     34  H12 UNL     1     -11.403 -10.797   7.866  1.00  0.00     0.174 HD
ATOM     35  H11 UNL     1     -10.746 -12.385   7.496  1.00  0.00     0.174 HD
ENDBRANCH   1  33
BRANCH   6  36
HETATM   36  N6  UNL     1     -15.888 -11.303   3.088  1.00  0.00    -0.385 N 
ATOM     37  H62 UNL     1     -15.518 -10.379   2.866  1.00  0.00     0.157 HD
ATOM     38  H61 UNL     1     -16.898 -11.442   3.032  1.00  0.00     0.157 HD
ENDBRANCH   6  36
TORSDOF 8
ENDMDL
MODEL 3
REMARK VINA RESULT: -5.958658140      2.855      5.765
REMARK  8 active torsions:
REMARK  status: ('A' for Active; 'I' for Inactive)
REMARK    1  A    between atoms: N1_1  and  C1_4 
REMARK    2  A    between atoms: C2_7  and  N3_8 
REMARK    3  A    between atoms: N3_8  and  C3_9 
REMARK    4  A    between atoms: N3_8  and  C10_18 
REMARK    5  A    between atoms: C3_9  and  C4_10 
REMARK    6  A    between atoms: C4_10  and  C5_12 
REMARK    7  A    between atoms: C5_12  and  N4_13 
REMARK    8  A    between atoms: C16_27  and  N6_28 
ROOT
HETATM    1  C1  UNL     1     -14.442  -6.921   3.233  1.00  0.00     0.679 A 
HETATM    2  N2  UNL     1     -14.174  -8.207   3.141  1.00  0.00    -0.176 N 
ATOM      3  H2  UNL     1     -13.281  -8.485   2.733  1.00  0.00     0.186 HD
HETATM    4  C2  UNL     1     -15.045  -9.214   3.572  1.00  0.00     0.141 A 
HETATM    5  C15 UNL     1     -16.192  -8.794   4.098  1.00  0.00     0.097 A 
HETATM    6  C16 UNL     1     -17.091  -9.710   4.563  1.00  0.00     0.117 A 
HETATM    7  N7  UNL     1     -18.247  -9.249   5.107  1.00  0.00    -0.338 N 
ATOM      8  H7  UNL     1     -18.929  -9.923   5.457  1.00  0.00     0.168 HD
HETATM    9  C17 UNL     1     -18.525  -7.942   5.201  1.00  0.00     0.183 A 
HETATM   10  N8  UNL     1     -17.637  -7.058   4.745  1.00  0.00    -0.337 N 
ATOM     11  H8  UNL     1     -17.847  -6.062   4.815  1.00  0.00     0.168 HD
HETATM   12  C18 UNL     1     -16.478  -7.441   4.197  1.00  0.00     0.139 A 
HETATM   13  N9  UNL     1     -15.602  -6.540   3.763  1.00  0.00    -0.176 N 
ATOM     14  H9  UNL     1     -15.821  -5.547   3.839  1.00  0.00     0.186 HD
ENDROOT
BRANCH   4  15
HETATM   15  N3  UNL     1     -14.525 -10.523   3.283  1.00  0.00    -0.333 N 
BRANCH  15  16
HETATM   16  C3  UNL     1     -14.836 -11.037   2.003  1.00  0.00     0.149 C 
BRANCH  16  17
HETATM   17  C4  UNL     1     -14.728 -10.342   0.762  1.00  0.00     0.202 C 
HETATM   18  O1  UNL     1     -13.778  -9.752   0.345  1.00  0.00    -0.285 OA
BRANCH  17  19
HETATM   19  C5  UNL     1     -15.918 -10.312  -0.181  1.00  0.00     0.146 C 
BRANCH  19  20
HETATM   20  N4  UNL     1     -16.409  -9.039  -0.427  1.00  0.00    -0.366 N 
HETATM   21  C6  UNL     1     -16.829  -8.668  -1.720  1.00  0.00     0.063 A 
HETATM   22  C7  UNL     1     -17.825  -7.536  -1.578  1.00  0.00     0.046 A 
HETATM   23  C8  UNL     1     -17.907  -7.248  -0.109  1.00  0.00     0.025 A 
HETATM   24  C9  UNL     1     -16.994  -8.272   0.576  1.00  0.00     0.128 A 
ENDBRANCH  19  20
ENDBRANCH  17  19
ENDBRANCH  16  17
ENDBRANCH  15  16
BRANCH  15  25
HETATM   25  C10 UNL     1     -13.582 -11.021   4.233  1.00  0.00     0.094 C 
HETATM   26  C11 UNL     1     -13.608 -10.576   5.640  1.00  0.00     0.053 C 
HETATM   27  C12 UNL     1     -12.377 -11.247   6.302  1.00  0.00     0.234 C 
HETATM   28  N5  UNL     1     -12.756 -12.633   6.569  1.00  0.00    -0.075 N 
HETATM   29  C13 UNL     1     -13.762 -13.079   5.624  1.00  0.00     0.234 C 
ATOM     30  H52 UNL     1     -11.946 -13.252   6.580  1.00  0.00     0.277 HD
ATOM     31  H51 UNL     1     -13.060 -12.763   7.534  1.00  0.00     0.277 HD
HETATM   32  C14 UNL     1     -13.515 -12.538   4.238  1.00  0.00     0.053 C 
ENDBRANCH  15  25
ENDBRANCH   4  15
BRANCH   1  33
HETATM   33  N1  UNL     1     -13.618  -6.022   2.827  1.00  0.00    -0.234 N 
ATOM     34  H12 UNL     1     -12.639  -6.273   2.693  1.00  0.00     0.174 HD
ATOM     35  H11 UNL     1     -13.914  -5.065   2.633  1.00  0.00     0.174 HD
ENDBRANCH   1  33
BRANCH   6  36
HETATM   36  N6  UNL     1     -16.887 -10.942   4.537  1.00  0.00    -0.385 N 
ATOM     37  H62 UNL     1     -15.976 -11.295   4.829  1.00  0.00     0.157 HD
ATOM     38  H61 UNL     1     -17.581 -11.615   4.213  1.00  0.00     0.157 HD
ENDBRANCH   6  36
TORSDOF 8
ENDMDL
MODEL 4
REMARK VINA RESULT: -5.949083489      3.145      5.985
REMARK  8 active torsions:
REMARK  status: ('A' for Active; 'I' for Inactive)
REMARK    1  A    between atoms: N1_1  and  C1_4 
REMARK    2  A    between atoms: C2_7  and  N3_8 
REMARK    3  A    between atoms: N3_8  and  C3_9 
REMARK    4  A    between atoms: N3_8  and  C10_18 
REMARK    5  A    between atoms: C3_9  and  C4_10 
REMARK    6  A    between atoms: C4_10  and  C5_12 
REMARK    7  A    between atoms: C5_12  and  N4_13 
REMARK    8  A    between atoms: C16_27  and  N6_28 
ROOT
HETATM    1  C1  UNL     1     -14.167 -10.142  -1.317  1.00  0.00     0.679 A 
HETATM    2  N2  UNL     1     -14.097  -9.532  -0.151  1.00  0.00    -0.176 N 
ATOM      3  H2  UNL     1     -13.729  -8.581  -0.127  1.00  0.00     0.186 HD
HETATM    4  C2  UNL     1     -14.500 -10.116   1.055  1.00  0.00     0.141 A 
HETATM    5  C15 UNL     1     -14.975 -11.354   0.963  1.00  0.00     0.097 A 
HETATM    6  C16 UNL     1     -15.410 -11.991   2.089  1.00  0.00     0.117 A 
HETATM    7  N7  UNL     1     -15.902 -13.251   1.960  1.00  0.00    -0.338 N 
ATOM      8  H7  UNL     1     -16.229 -13.739   2.794  1.00  0.00     0.168 HD
HETATM    9  C17 UNL     1     -15.973 -13.876   0.777  1.00  0.00     0.183 A 
HETATM   10  N8  UNL     1     -15.547 -13.242  -0.315  1.00  0.00    -0.337 N 
ATOM     11  H8  UNL     1     -15.600 -13.716  -1.217  1.00  0.00     0.168 HD
HETATM   12  C18 UNL     1     -15.050 -12.000  -0.262  1.00  0.00     0.139 A 
HETATM   13  N9  UNL     1     -14.646 -11.383  -1.367  1.00  0.00    -0.176 N 
ATOM     14  H9  UNL     1     -14.704 -11.865  -2.264  1.00  0.00     0.186 HD
ENDROOT
BRANCH   4  15
HETATM   15  N3  UNL     1     -14.244  -9.249   2.173  1.00  0.00    -0.333 N 
BRANCH  15  16
HETATM   16  C3  UNL     1     -13.053  -9.509   2.890  1.00  0.00     0.149 C 
BRANCH  16  17
HETATM   17  C4  UNL     1     -12.948  -9.792   4.284  1.00  0.00     0.202 C 
HETATM   18  O1  UNL     1     -13.671  -9.413   5.155  1.00  0.00    -0.285 OA
BRANCH  17  19
HETATM   19  C5  UNL     1     -11.813 -10.669   4.782  1.00  0.00     0.146 C 
BRANCH  19  20
HETATM   20  N4  UNL     1     -12.156 -12.004   4.932  1.00  0.00    -0.366 N 
HETATM   21  C6  UNL     1     -12.977 -12.420   5.998  1.00  0.00     0.063 A 
HETATM   22  C7  UNL     1     -13.653 -13.713   5.588  1.00  0.00     0.046 A 
HETATM   23  C8  UNL     1     -13.116 -14.036   4.225  1.00  0.00     0.025 A 
HETATM   24  C9  UNL     1     -12.182 -12.880   3.850  1.00  0.00     0.128 A 
ENDBRANCH  19  20
ENDBRANCH  17  19
ENDBRANCH  16  17
ENDBRANCH  15  16
BRANCH  15  25
HETATM   25  C10 UNL     1     -15.104  -8.112   2.265  1.00  0.00     0.094 C 
HETATM   26  C11 UNL     1     -16.135  -8.017   3.316  1.00  0.00     0.053 C 
HETATM   27  C12 UNL     1     -16.913  -6.713   3.007  1.00  0.00     0.234 C 
HETATM   28  N5  UNL     1     -16.087  -5.613   3.499  1.00  0.00    -0.075 N 
HETATM   29  C13 UNL     1     -14.683  -5.979   3.480  1.00  0.00     0.234 C 
ATOM     30  H52 UNL     1     -16.259  -4.749   2.985  1.00  0.00     0.277 HD
ATOM     31  H51 UNL     1     -16.384  -5.301   4.423  1.00  0.00     0.277 HD
HETATM   32  C14 UNL     1     -14.331  -6.805   2.268  1.00  0.00     0.053 C 
ENDBRANCH  15  25
ENDBRANCH   4  15
BRANCH   1  33
HETATM   33  N1  UNL     1     -13.788  -9.576  -2.407  1.00  0.00    -0.234 N 
ATOM     34  H12 UNL     1     -12.858  -9.778  -2.771  1.00  0.00     0.174 HD
ATOM     35  H11 UNL     1     -14.391  -8.932  -2.920  1.00  0.00     0.174 HD
ENDBRANCH   1  33
BRANCH   6  36
HETATM   36  N6  UNL     1     -15.403 -11.461   3.220  1.00  0.00    -0.385 N 
ATOM     37  H62 UNL     1     -16.283 -11.124   3.610  1.00  0.00     0.157 HD
ATOM     38  H61 UNL     1     -14.552 -11.323   3.766  1.00  0.00     0.157 HD
ENDBRANCH   6  36
TORSDOF 8
ENDMDL
MODEL 5
REMARK VINA RESULT: -5.914718511      2.479      5.476
REMARK  8 active torsions:
REMARK  status: ('A' for Active; 'I' for Inactive)
REMARK    1  A    between atoms: N1_1  and  C1_4 
REMARK    2  A    between atoms: C2_7  and  N3_8 
REMARK    3  A    between atoms: N3_8  and  C3_9 
REMARK    4  A    between atoms: N3_8  and  C10_18 
REMARK    5  A    between atoms: C3_9  and  C4_10 
REMARK    6  A    between atoms: C4_10  and  C5_12 
REMARK    7  A    between atoms: C5_12  and  N4_13 
REMARK    8  A    between atoms: C16_27  and  N6_28 
ROOT
HETATM    1  C1  UNL     1     -13.175  -7.881   3.428  1.00  0.00     0.679 A 
HETATM    2  N2  UNL     1     -14.423  -7.852   3.006  1.00  0.00    -0.176 N 
ATOM      3  H2  UNL     1     -14.845  -6.943   2.815  1.00  0.00     0.186 HD
HETATM    4  C2  UNL     1     -15.200  -8.998   2.807  1.00  0.00     0.141 A 
HETATM    5  C15 UNL     1     -14.598 -10.153   3.069  1.00  0.00     0.097 A 
HETATM    6  C16 UNL     1     -15.278 -11.322   2.881  1.00  0.00     0.117 A 
HETATM    7  N7  UNL     1     -14.630 -12.487   3.144  1.00  0.00    -0.338 N 
ATOM      8  H7  UNL     1     -15.128 -13.367   3.010  1.00  0.00     0.168 HD
HETATM    9  C17 UNL     1     -13.362 -12.521   3.575  1.00  0.00     0.183 A 
HETATM   10  N8  UNL     1     -12.709 -11.372   3.753  1.00  0.00    -0.337 N 
ATOM     11  H8  UNL     1     -11.743 -11.397   4.082  1.00  0.00     0.168 HD
HETATM   12  C18 UNL     1     -13.285 -10.189   3.513  1.00  0.00     0.139 A 
HETATM   13  N9  UNL     1     -12.607  -9.058   3.682  1.00  0.00    -0.176 N 
ATOM     14  H9  UNL     1     -11.642  -9.092   4.010  1.00  0.00     0.186 HD
ENDROOT
BRANCH   4  15
HETATM   15  N3  UNL     1     -16.543  -8.664   2.413  1.00  0.00    -0.333 N 
BRANCH  15  16
HETATM   16  C3  UNL     1     -17.502  -8.656   3.452  1.00  0.00     0.149 C 
BRANCH  16  17
HETATM   17  C4  UNL     1     -17.404  -7.952   4.689  1.00  0.00     0.202 C 
HETATM   18  O1  UNL     1     -17.304  -6.773   4.843  1.00  0.00    -0.285 OA
BRANCH  17  19
HETATM   19  C5  UNL     1     -17.424  -8.730   5.993  1.00  0.00     0.146 C 
BRANCH  19  20
HETATM   20  N4  UNL     1     -16.479  -9.742   6.060  1.00  0.00    -0.366 N 
HETATM   21  C6  UNL     1     -15.188  -9.488   6.563  1.00  0.00     0.063 A 
HETATM   22  C7  UNL     1     -14.620 -10.797   7.071  1.00  0.00     0.046 A 
HETATM   23  C8  UNL     1     -15.662 -11.834   6.772  1.00  0.00     0.025 A 
HETATM   24  C9  UNL     1     -16.844 -11.082   6.150  1.00  0.00     0.128 A 
ENDBRANCH  19  20
ENDBRANCH  17  19
ENDBRANCH  16  17
ENDBRANCH  15  16
BRANCH  15  25
HETATM   25  C10 UNL     1     -16.675  -8.166   1.081  1.00  0.00     0.094 C 
HETATM   26  C11 UNL     1     -17.351  -8.956   0.034  1.00  0.00     0.053 C 
HETATM   27  C12 UNL     1     -17.187  -8.132  -1.268  1.00  0.00     0.234 C 
HETATM   28  N5  UNL     1     -18.183  -7.065  -1.211  1.00  0.00    -0.075 N 
HETATM   29  C13 UNL     1     -18.490  -6.726   0.166  1.00  0.00     0.234 C 
ATOM     30  H52 UNL     1     -17.894  -6.247  -1.747  1.00  0.00     0.277 HD
ATOM     31  H51 UNL     1     -19.023  -7.303  -1.738  1.00  0.00     0.277 HD
HETATM   32  C14 UNL     1     -17.265  -6.767   1.045  1.00  0.00     0.053 C 
ENDBRANCH  15  25
ENDBRANCH   4  15
BRANCH   1  33
HETATM   33  N1  UNL     1     -12.488  -6.808   3.601  1.00  0.00    -0.234 N 
ATOM     34  H12 UNL     1     -12.644  -6.016   2.978  1.00  0.00     0.174 HD
ATOM     35  H11 UNL     1     -11.793  -6.724   4.343  1.00  0.00     0.174 HD
ENDBRANCH   1  33
BRANCH   6  36
HETATM   36  N6  UNL     1     -16.450 -11.369   2.452  1.00  0.00    -0.385 N 
ATOM     37  H62 UNL     1     -16.955 -12.254   2.497  1.00  0.00     0.157 HD
ATOM     38  H61 UNL     1     -16.924 -10.567   2.034  1.00  0.00     0.157 HD
ENDBRANCH   6  36
TORSDOF 8
ENDMDL
