MODEL 1
REMARK VINA RESULT: -5.617131509      0.000      0.000
REMARK  7 active torsions:
REMARK  status: ('A' for Active; 'I' for Inactive)
REMARK    1  A    between atoms: N1_1  and  C1_5 
REMARK    2  A    between atoms: C1_5  and  C2_6 
REMARK    3  A    between atoms: C1_5  and  C3_9 
REMARK    4  A    between atoms: C2_6  and  O1_7 
REMARK    5  A    between atoms: C3_9  and  O2_10 
REMARK    6  A    between atoms: O2_10  and  C4_11 
REMARK    7  A    between atoms: N3_15  and  C6_17 
ROOT
HETATM    1  C4  UNL     1      -2.645  19.326  13.928  1.00  0.00     0.251 C 
HETATM    2  N2  UNL     1      -2.264  18.173  13.490  1.00  0.00    -0.153 N 
ATOM      3  H2  UNL     1      -2.208  17.361  14.104  1.00  0.00     0.188 HD
HETATM    4  C5  UNL     1      -1.922  18.086  12.089  1.00  0.00     0.699 C 
HETATM    5  N3  UNL     1      -1.543  16.970  11.598  1.00  0.00    -0.191 N 
ATOM      6  H3  UNL     1      -1.495  16.162  12.219  1.00  0.00     0.184 HD
HETATM    7  N4  UNL     1      -2.034  19.265  11.306  1.00  0.00    -0.116 N 
ATOM      8  H4  UNL     1      -2.182  19.191  10.299  1.00  0.00     0.203 HD
HETATM    9  N5  UNL     1      -1.941  20.544  11.910  1.00  0.00    -0.005 NA
HETATM   10  N6  UNL     1      -2.728  20.475  13.088  1.00  0.00    -0.248 N 
ATOM     11  H6  UNL     1      -3.351  21.245  13.334  1.00  0.00     0.188 HD
ENDROOT
BRANCH   1  12
HETATM   12  O2  UNL     1      -2.996  19.485  15.274  1.00  0.00    -0.319 OA
BRANCH  12  13
HETATM   13  C3  UNL     1      -4.256  19.069  15.736  1.00  0.00     0.213 C 
BRANCH  13  14
HETATM   14  C1  UNL     1      -5.271  18.802  14.668  1.00  0.00     0.231 C 
BRANCH  14  15
HETATM   15  N1  UNL     1      -6.397  19.664  14.636  1.00  0.00    -0.071 N 
ATOM     16  H13 UNL     1      -6.698  19.928  15.574  1.00  0.00     0.274 HD
ATOM     17  H12 UNL     1      -6.153  20.591  14.288  1.00  0.00     0.274 HD
ATOM     18  H11 UNL     1      -7.156  19.246  14.098  1.00  0.00     0.274 HD
ENDBRANCH  14  15
BRANCH  14  19
HETATM   19  C2  UNL     1      -5.713  17.346  14.810  1.00  0.00     0.199 C 
BRANCH  19  20
HETATM   20  O1  UNL     1      -4.974  16.614  13.880  1.00  0.00    -0.399 OA
ATOM     21  H1  UNL     1      -4.107  17.001  13.856  1.00  0.00     0.209 HD
ENDBRANCH  19  20
ENDBRANCH  14  19
ENDBRANCH  13  14
ENDBRANCH  12  13
ENDBRANCH   1  12
BRANCH   5  22
HETATM   22  C6  UNL     1      -1.188  16.791  10.249  1.00  0.00     0.049 A 
HETATM   23  C7  UNL     1       0.063  17.038   9.717  1.00  0.00     0.030 A 
HETATM   24  C8  UNL     1       0.385  16.855   8.390  1.00  0.00     0.002 A 
HETATM   25  C9  UNL     1      -0.564  16.400   7.500  1.00  0.00     0.000 A 
HETATM   26  C10 UNL     1      -1.823  16.145   8.000  1.00  0.00     0.002 A 
HETATM   27  C11 UNL     1      -2.139  16.329   9.326  1.00  0.00     0.030 A 
ENDBRANCH   5  22
TORSDOF 7
ENDMDL
MODEL 2
REMARK VINA RESULT: -5.512223417      1.111      1.168
REMARK  7 active torsions:
REMARK  status: ('A' for Active; 'I' for Inactive)
REMARK    1  A    between atoms: N1_1  and  C1_5 
REMARK    2  A    between atoms: C1_5  and  C2_6 
REMARK    3  A    between atoms: C1_5  and  C3_9 
REMARK    4  A    between atoms: C2_6  and  O1_7 
REMARK    5  A    between atoms: C3_9  and  O2_10 
REMARK    6  A    between atoms: O2_10  and  C4_11 
REMARK    7  A    between atoms: N3_15  and  C6_17 
ROOT
HETATM    1  C4  UNL     1      -2.858  19.563  13.816  1.00  0.00     0.251 C 
HETATM    2  N2  UNL     1      -2.536  18.381  13.410  1.00  0.00    -0.153 N 
ATOM      3  H2  UNL     1      -2.579  17.573  14.031  1.00  0.00     0.188 HD
HETATM    4  C5  UNL     1      -2.112  18.255  12.035  1.00  0.00     0.699 C 
HETATM    5  N3  UNL     1      -1.785  17.110  11.575  1.00  0.00    -0.191 N 
ATOM      6  H3  UNL     1      -1.837  16.307  12.202  1.00  0.00     0.184 HD
HETATM    7  N4  UNL     1      -2.086  19.431  11.240  1.00  0.00    -0.116 N 
ATOM      8  H4  UNL     1      -2.174  19.358  10.226  1.00  0.00     0.203 HD
HETATM    9  N5  UNL     1      -1.938  20.706  11.842  1.00  0.00    -0.005 NA
HETATM   10  N6  UNL     1      -2.802  20.707  12.967  1.00  0.00    -0.248 N 
ATOM     11  H6  UNL     1      -3.381  21.523  13.167  1.00  0.00     0.188 HD
ENDROOT
BRANCH   1  12
HETATM   12  O2  UNL     1      -3.282  19.761  15.136  1.00  0.00    -0.319 OA
BRANCH  12  13
HETATM   13  C3  UNL     1      -4.633  19.589  15.484  1.00  0.00     0.213 C 
BRANCH  13  14
HETATM   14  C1  UNL     1      -5.576  20.595  14.898  1.00  0.00     0.231 C 
BRANCH  14  15
HETATM   15  N1  UNL     1      -6.047  21.605  15.775  1.00  0.00    -0.071 N 
ATOM     16  H13 UNL     1      -6.653  22.271  15.295  1.00  0.00     0.274 HD
ATOM     17  H12 UNL     1      -6.724  21.239  16.444  1.00  0.00     0.274 HD
ATOM     18  H11 UNL     1      -5.267  22.070  16.241  1.00  0.00     0.274 HD
ENDBRANCH  14  15
BRANCH  14  19
HETATM   19  C2  UNL     1      -6.744  19.823  14.287  1.00  0.00     0.199 C 
BRANCH  19  20
HETATM   20  O1  UNL     1      -6.823  18.611  14.974  1.00  0.00    -0.399 OA
ATOM     21  H1  UNL     1      -7.292  18.009  14.408  1.00  0.00     0.209 HD
ENDBRANCH  19  20
ENDBRANCH  14  19
ENDBRANCH  13  14
ENDBRANCH  12  13
ENDBRANCH   1  12
BRANCH   5  22
HETATM   22  C6  UNL     1      -1.358  16.892  10.253  1.00  0.00     0.049 A 
HETATM   23  C7  UNL     1      -0.071  17.086   9.791  1.00  0.00     0.030 A 
HETATM   24  C8  UNL     1       0.321  16.865   8.489  1.00  0.00     0.002 A 
HETATM   25  C9  UNL     1      -0.590  16.424   7.554  1.00  0.00     0.000 A 
HETATM   26  C10 UNL     1      -1.883  16.220   7.982  1.00  0.00     0.002 A 
HETATM   27  C11 UNL     1      -2.270  16.442   9.284  1.00  0.00     0.030 A 
ENDBRANCH   5  22
TORSDOF 7
ENDMDL
MODEL 3
REMARK VINA RESULT: -5.473463262      1.668      1.858
REMARK  7 active torsions:
REMARK  status: ('A' for Active; 'I' for Inactive)
REMARK    1  A    between atoms: N1_1  and  C1_5 
REMARK    2  A    between atoms: C1_5  and  C2_6 
REMARK    3  A    between atoms: C1_5  and  C3_9 
REMARK    4  A    between atoms: C2_6  and  O1_7 
REMARK    5  A    between atoms: C3_9  and  O2_10 
REMARK    6  A    between atoms: O2_10  and  C4_11 
REMARK    7  A    between atoms: N3_15  and  C6_17 
ROOT
HETATM    1  C4  UNL     1      -3.588  17.976  14.274  1.00  0.00     0.251 C 
HETATM    2  N2  UNL     1      -3.788  17.423  13.126  1.00  0.00    -0.153 N 
ATOM      3  H2  UNL     1      -4.710  17.087  12.848  1.00  0.00     0.188 HD
HETATM    4  C5  UNL     1      -2.645  17.303  12.250  1.00  0.00     0.699 C 
HETATM    5  N3  UNL     1      -2.782  16.768  11.099  1.00  0.00    -0.191 N 
ATOM      6  H3  UNL     1      -3.710  16.440  10.828  1.00  0.00     0.184 HD
HETATM    7  N4  UNL     1      -1.400  17.801  12.715  1.00  0.00    -0.116 N 
ATOM      8  H4  UNL     1      -0.689  18.091  12.043  1.00  0.00     0.203 HD
HETATM    9  N5  UNL     1      -1.135  17.900  14.104  1.00  0.00    -0.005 NA
HETATM   10  N6  UNL     1      -2.307  18.450  14.684  1.00  0.00    -0.248 N 
ATOM     11  H6  UNL     1      -2.234  19.181  15.392  1.00  0.00     0.188 HD
ENDROOT
BRANCH   1  12
HETATM   12  O2  UNL     1      -4.650  18.130  15.175  1.00  0.00    -0.319 OA
BRANCH  12  13
HETATM   13  C3  UNL     1      -5.779  18.890  14.822  1.00  0.00     0.213 C 
BRANCH  13  14
HETATM   14  C1  UNL     1      -6.963  18.096  14.363  1.00  0.00     0.231 C 
BRANCH  14  15
HETATM   15  N1  UNL     1      -8.234  18.703  14.534  1.00  0.00    -0.071 N 
ATOM     16  H13 UNL     1      -8.977  18.009  14.616  1.00  0.00     0.274 HD
ATOM     17  H12 UNL     1      -8.326  19.135  15.453  1.00  0.00     0.274 HD
ATOM     18  H11 UNL     1      -8.419  19.368  13.782  1.00  0.00     0.274 HD
ENDBRANCH  14  15
BRANCH  14  19
HETATM   19  C2  UNL     1      -6.912  16.745  15.075  1.00  0.00     0.199 C 
BRANCH  19  20
HETATM   20  O1  UNL     1      -6.305  15.853  14.192  1.00  0.00    -0.399 OA
ATOM     21  H1  UNL     1      -5.653  15.377  14.692  1.00  0.00     0.209 HD
ENDBRANCH  19  20
ENDBRANCH  14  19
ENDBRANCH  13  14
ENDBRANCH  12  13
ENDBRANCH   1  12
BRANCH   5  22
HETATM   22  C6  UNL     1      -1.728  16.606  10.182  1.00  0.00     0.049 A 
HETATM   23  C7  UNL     1      -0.819  15.565  10.192  1.00  0.00     0.030 A 
HETATM   24  C8  UNL     1       0.206  15.430   9.281  1.00  0.00     0.002 A 
HETATM   25  C9  UNL     1       0.376  16.365   8.282  1.00  0.00     0.000 A 
HETATM   26  C10 UNL     1      -0.514  17.416   8.246  1.00  0.00     0.002 A 
HETATM   27  C11 UNL     1      -1.536  17.546   9.157  1.00  0.00     0.030 A 
ENDBRANCH   5  22
TORSDOF 7
ENDMDL
MODEL 4
REMARK VINA RESULT: -5.380968521      1.682      2.431
REMARK  7 active torsions:
REMARK  status: ('A' for Active; 'I' for Inactive)
REMARK    1  A    between atoms: N1_1  and  C1_5 
REMARK    2  A    between atoms: C1_5  and  C2_6 
REMARK    3  A    between atoms: C1_5  and  C3_9 
REMARK    4  A    between atoms: C2_6  and  O1_7 
REMARK    5  A    between atoms: C3_9  and  O2_10 
REMARK    6  A    between atoms: O2_10  and  C4_11 
REMARK    7  A    between atoms: N3_15  and  C6_17 
ROOT
HETATM    1  C4  UNL     1      -3.278  18.775  14.441  1.00  0.00     0.251 C 
HETATM    2  N2  UNL     1      -3.535  18.350  13.250  1.00  0.00    -0.153 N 
ATOM      3  H2  UNL     1      -4.477  18.390  12.860  1.00  0.00     0.188 HD
HETATM    4  C5  UNL     1      -2.426  17.815  12.493  1.00  0.00     0.699 C 
HETATM    5  N3  UNL     1      -2.619  17.384  11.307  1.00  0.00    -0.191 N 
ATOM      6  H3  UNL     1      -3.563  17.434  10.924  1.00  0.00     0.184 HD
HETATM    7  N4  UNL     1      -1.149  17.801  13.111  1.00  0.00    -0.116 N 
ATOM      8  H4  UNL     1      -0.307  17.808  12.534  1.00  0.00     0.203 HD
HETATM    9  N5  UNL     1      -1.030  17.779  14.524  1.00  0.00    -0.005 NA
HETATM   10  N6  UNL     1      -1.970  18.725  15.007  1.00  0.00    -0.248 N 
ATOM     11  H6  UNL     1      -1.712  19.367  15.757  1.00  0.00     0.188 HD
ENDROOT
BRANCH   1  12
HETATM   12  O2  UNL     1      -4.302  19.310  15.233  1.00  0.00    -0.319 OA
BRANCH  12  13
HETATM   13  C3  UNL     1      -5.647  19.016  14.951  1.00  0.00     0.213 C 
BRANCH  13  14
HETATM   14  C1  UNL     1      -6.446  20.154  14.396  1.00  0.00     0.231 C 
BRANCH  14  15
HETATM   15  N1  UNL     1      -6.495  20.261  12.982  1.00  0.00    -0.071 N 
ATOM     16  H13 UNL     1      -5.955  21.058  12.644  1.00  0.00     0.274 HD
ATOM     17  H12 UNL     1      -5.967  19.516  12.528  1.00  0.00     0.274 HD
ATOM     18  H11 UNL     1      -7.462  20.293  12.657  1.00  0.00     0.274 HD
ENDBRANCH  14  15
BRANCH  14  19
HETATM   19  C2  UNL     1      -5.901  21.440  15.015  1.00  0.00     0.199 C 
BRANCH  19  20
HETATM   20  O1  UNL     1      -6.092  21.331  16.392  1.00  0.00    -0.399 OA
ATOM     21  H1  UNL     1      -6.051  22.213  16.743  1.00  0.00     0.209 HD
ENDBRANCH  19  20
ENDBRANCH  14  19
ENDBRANCH  13  14
ENDBRANCH  12  13
ENDBRANCH   1  12
BRANCH   5  22
HETATM   22  C6  UNL     1      -1.602  16.845  10.498  1.00  0.00     0.049 A 
HETATM   23  C7  UNL     1      -1.167  15.534  10.536  1.00  0.00     0.030 A 
HETATM   24  C8  UNL     1      -0.168  15.031   9.732  1.00  0.00     0.002 A 
HETATM   25  C9  UNL     1       0.466  15.846   8.818  1.00  0.00     0.000 A 
HETATM   26  C10 UNL     1       0.055  17.159   8.755  1.00  0.00     0.002 A 
HETATM   27  C11 UNL     1      -0.944  17.656   9.560  1.00  0.00     0.030 A 
ENDBRANCH   5  22
TORSDOF 7
ENDMDL
MODEL 5
REMARK VINA RESULT: -5.356210766      1.529      1.991
REMARK  7 active torsions:
REMARK  status: ('A' for Active; 'I' for Inactive)
REMARK    1  A    between atoms: N1_1  and  C1_5 
REMARK    2  A    between atoms: C1_5  and  C2_6 
REMARK    3  A    between atoms: C1_5  and  C3_9 
REMARK    4  A    between atoms: C2_6  and  O1_7 
REMARK    5  A    between atoms: C3_9  and  O2_10 
REMARK    6  A    between atoms: O2_10  and  C4_11 
REMARK    7  A    between atoms: N3_15  and  C6_17 
ROOT
HETATM    1  C4  UNL     1      -3.283  18.788  14.116  1.00  0.00     0.251 C 
HETATM    2  N2  UNL     1      -2.455  19.146  13.193  1.00  0.00    -0.153 N 
ATOM      3  H2  UNL     1      -1.949  20.030  13.244  1.00  0.00     0.188 HD
HETATM    4  C5  UNL     1      -2.276  18.236  12.086  1.00  0.00     0.699 C 
HETATM    5  N3  UNL     1      -1.466  18.534  11.145  1.00  0.00    -0.191 N 
ATOM      6  H3  UNL     1      -0.961  19.418  11.208  1.00  0.00     0.184 HD
HETATM    7  N4  UNL     1      -3.018  17.026  12.098  1.00  0.00    -0.116 N 
ATOM      8  H4  UNL     1      -2.669  16.214  11.588  1.00  0.00     0.203 HD
HETATM    9  N5  UNL     1      -4.239  16.934  12.813  1.00  0.00    -0.005 NA
HETATM   10  N6  UNL     1      -4.004  17.559  14.064  1.00  0.00    -0.248 N 
ATOM     11  H6  UNL     1      -4.350  17.131  14.923  1.00  0.00     0.188 HD
ENDROOT
BRANCH   1  12
HETATM   12  O2  UNL     1      -3.505  19.618  15.222  1.00  0.00    -0.319 OA
BRANCH  12  13
HETATM   13  C3  UNL     1      -4.812  19.872  15.672  1.00  0.00     0.213 C 
BRANCH  13  14
HETATM   14  C1  UNL     1      -5.632  20.756  14.783  1.00  0.00     0.231 C 
BRANCH  14  15
HETATM   15  N1  UNL     1      -6.079  21.978  15.347  1.00  0.00    -0.071 N 
ATOM     16  H13 UNL     1      -5.386  22.720  15.240  1.00  0.00     0.274 HD
ATOM     17  H12 UNL     1      -6.832  22.394  14.799  1.00  0.00     0.274 HD
ATOM     18  H11 UNL     1      -6.347  21.848  16.322  1.00  0.00     0.274 HD
ENDBRANCH  14  15
BRANCH  14  19
HETATM   19  C2  UNL     1      -6.815  19.929  14.283  1.00  0.00     0.199 C 
BRANCH  19  20
HETATM   20  O1  UNL     1      -6.698  18.670  14.874  1.00  0.00    -0.399 OA
ATOM     21  H1  UNL     1      -6.560  18.050  14.167  1.00  0.00     0.209 HD
ENDBRANCH  19  20
ENDBRANCH  14  19
ENDBRANCH  13  14
ENDBRANCH  12  13
ENDBRANCH   1  12
BRANCH   5  22
HETATM   22  C6  UNL     1      -1.231  17.713  10.027  1.00  0.00     0.049 A 
HETATM   23  C7  UNL     1      -0.288  16.706   9.966  1.00  0.00     0.030 A 
HETATM   24  C8  UNL     1      -0.077  15.916   8.857  1.00  0.00     0.002 A 
HETATM   25  C9  UNL     1      -0.828  16.104   7.716  1.00  0.00     0.000 A 
HETATM   26  C10 UNL     1      -1.778  17.101   7.746  1.00  0.00     0.002 A 
HETATM   27  C11 UNL     1      -1.985  17.887   8.856  1.00  0.00     0.030 A 
ENDBRANCH   5  22
TORSDOF 7
ENDMDL
