MODEL 1
REMARK VINA RESULT: -7.409552410      0.000      0.000
REMARK  19 active torsions:
REMARK  status: ('A' for Active; 'I' for Inactive)
REMARK    1  A    between atoms: C2_2  and  C3_3 
REMARK    2  A    between atoms: C3_3  and  C5_5 
REMARK    3  A    between atoms: C5_5  and  N1_6 
REMARK    4  A    between atoms: N1_6  and  C6_8 
REMARK    5  A    between atoms: C8_14  and  N4_15 
REMARK    6  A    between atoms: N4_15  and  C9_17 
REMARK    7  A    between atoms: C9_17  and  C10_18 
REMARK    8  A    between atoms: C10_18  and  C11_19 
REMARK    9  A    between atoms: C11_19  and  C12_20 
REMARK   10  A    between atoms: C12_20  and  N5_21 
REMARK       I    between atoms: N5_21  and  C13_23 
REMARK       I    between atoms: C13_23  and  N8_28 
REMARK   11  A    between atoms: N8_28  and  C15_30 
REMARK   12  A    between atoms: C15_30  and  C16_31 
REMARK   13  A    between atoms: C16_31  and  C17_32 
REMARK   14  A    between atoms: C17_32  and  N9_33 
REMARK   15  A    between atoms: N9_33  and  O1_34 
REMARK   16  A    between atoms: O1_34  and  C18_35 
REMARK   17  A    between atoms: C18_35  and  O2_36 
REMARK   18  A    between atoms: C18_35  and  C19_38 
REMARK   19  A    between atoms: C19_38  and  N10_39 
REMARK       I    between atoms: N10_39  and  C22_42 
ROOT
HETATM    1  N5  UNL     1      13.010   8.875  26.086  1.00  0.00    -0.226 N 
ATOM      2  H5  UNL     1      13.011   9.174  27.062  1.00  0.00     0.177 HD
HETATM    3  C13 UNL     1      13.781   9.568  25.075  1.00  0.00     0.682 C 
HETATM    4  N6  UNL     1      14.840  10.182  25.451  1.00  0.00    -0.126 N 
ATOM      5  H6  UNL     1      15.409  10.681  24.767  1.00  0.00     0.197 HD
HETATM    6  C14 UNL     1      15.216  10.171  26.791  1.00  0.00     0.196 C 
HETATM    7  N7  UNL     1      15.546  10.176  27.906  1.00  0.00    -0.171 NA
HETATM    8  N8  UNL     1      13.325   9.529  23.724  1.00  0.00    -0.226 N 
ATOM      9  H8  UNL     1      13.654   8.771  23.126  1.00  0.00     0.177 HD
ENDROOT
BRANCH   1  10
HETATM   10  C12 UNL     1      12.258   7.764  25.651  1.00  0.00     0.138 C 
BRANCH  10  11
HETATM   11  C11 UNL     1      10.788   7.813  25.722  1.00  0.00     0.022 C 
BRANCH  11  12
HETATM   12  C10 UNL     1      10.065   7.495  24.478  1.00  0.00     0.024 C 
BRANCH  12  13
HETATM   13  C9  UNL     1      10.343   6.281  23.707  1.00  0.00     0.163 C 
BRANCH  13  14
HETATM   14  N4  UNL     1       9.268   5.319  23.780  1.00  0.00    -0.198 N 
HETATM   15  F1  UNL     1       7.988   5.530  23.446  1.00  0.00    -0.097 F 
BRANCH  14  16
HETATM   16  C8  UNL     1       9.602   4.012  24.292  1.00  0.00     0.154 A 
HETATM   17  N3  UNL     1      10.279   3.089  23.635  1.00  0.00    -0.336 N 
HETATM   18  C7  UNL     1      10.568   1.880  24.198  1.00  0.00     0.183 A 
ATOM     19  H3  UNL     1      10.593   3.283  22.684  1.00  0.00     0.168 HD
HETATM   20  N2  UNL     1      10.158   1.621  25.448  1.00  0.00    -0.337 N 
HETATM   21  C6  UNL     1       9.470   2.490  26.189  1.00  0.00     0.127 A 
ATOM     22  H2  UNL     1      10.384   0.713  25.853  1.00  0.00     0.168 HD
HETATM   23  C23 UNL     1       9.193   3.718  25.574  1.00  0.00     0.101 A 
HETATM   24 BR1  UNL     1       8.201   4.981  26.601  1.00  0.00    -0.043 Br
BRANCH  21  25
HETATM   25  N1  UNL     1       9.089   2.267  27.358  1.00  0.00    -0.354 N 
ATOM     26  H1  UNL     1       9.258   3.043  27.997  1.00  0.00     0.166 HD
BRANCH  25  27
HETATM   27  C5  UNL     1       8.472   1.157  27.970  1.00  0.00     0.067 C 
BRANCH  27  28
HETATM   28  C3  UNL     1       7.321   1.422  28.877  1.00  0.00     0.019 C 
HETATM   29  C4  UNL     1       7.422   0.399  30.017  1.00  0.00     0.015 C 
BRANCH  28  30
HETATM   30  C2  UNL     1       7.335   2.800  29.490  1.00  0.00     0.005 C 
HETATM   31  C1  UNL     1       6.548   2.893  30.764  1.00  0.00     0.006 C 
ENDBRANCH  28  30
ENDBRANCH  27  28
ENDBRANCH  25  27
ENDBRANCH  21  25
ENDBRANCH  14  16
ENDBRANCH  13  14
ENDBRANCH  12  13
ENDBRANCH  11  12
ENDBRANCH  10  11
ENDBRANCH   1  10
BRANCH   8  32
HETATM   32  C15 UNL     1      12.432  10.494  23.161  1.00  0.00     0.139 C 
BRANCH  32  33
HETATM   33  C16 UNL     1      12.222  10.228  21.708  1.00  0.00     0.038 C 
BRANCH  33  34
HETATM   34  C17 UNL     1      11.209   9.157  21.432  1.00  0.00     0.144 C 
BRANCH  34  35
HETATM   35  N9  UNL     1      11.115   8.900  19.986  1.00  0.00    -0.098 NA
BRANCH  35  36
HETATM   36  O1  UNL     1       9.817   8.820  19.712  1.00  0.00    -0.253 OA
BRANCH  36  37
HETATM   37  C18 UNL     1       9.413   9.332  18.509  1.00  0.00     0.307 C 
BRANCH  37  38
HETATM   38  O2  UNL     1       8.651   8.482  17.743  1.00  0.00    -0.368 OA
ATOM     39  H2  UNL     1       8.234   7.776  18.222  1.00  0.00     0.212 HD
ENDBRANCH  37  38
BRANCH  37  40
HETATM   40  C19 UNL     1       8.806  10.696  18.710  1.00  0.00     0.308 C 
BRANCH  40  41
HETATM   41  N10 UNL     1       9.565  11.790  18.205  1.00  0.00    -0.013 N 
HETATM   42  C20 UNL     1      10.074  11.550  16.851  1.00  0.00     0.282 C 
HETATM   43  C21 UNL     1       8.599  12.896  18.023  1.00  0.00     0.282 C 
HETATM   44  C22 UNL     1      10.602  12.258  19.016  1.00  0.00     0.286 C 
HETATM   45  N11 UNL     1      11.845  12.009  18.803  1.00  0.00    -0.367 N 
HETATM   46  N12 UNL     1      10.296  13.063  20.149  1.00  0.00    -0.057 NA
ATOM     47 2H11 UNL     1      12.064  11.432  17.991  1.00  0.00     0.158 HD
ATOM     48 1H11 UNL     1      12.602  12.351  19.395  1.00  0.00     0.158 HD
ENDBRANCH  40  41
ENDBRANCH  37  40
ENDBRANCH  36  37
ENDBRANCH  35  36
ENDBRANCH  34  35
ENDBRANCH  33  34
ENDBRANCH  32  33
ENDBRANCH   8  32
TORSDOF 19
ENDMDL
MODEL 2
REMARK VINA RESULT: -7.339190708      2.261      2.964
REMARK  19 active torsions:
REMARK  status: ('A' for Active; 'I' for Inactive)
REMARK    1  A    between atoms: C2_2  and  C3_3 
REMARK    2  A    between atoms: C3_3  and  C5_5 
REMARK    3  A    between atoms: C5_5  and  N1_6 
REMARK    4  A    between atoms: N1_6  and  C6_8 
REMARK    5  A    between atoms: C8_14  and  N4_15 
REMARK    6  A    between atoms: N4_15  and  C9_17 
REMARK    7  A    between atoms: C9_17  and  C10_18 
REMARK    8  A    between atoms: C10_18  and  C11_19 
REMARK    9  A    between atoms: C11_19  and  C12_20 
REMARK   10  A    between atoms: C12_20  and  N5_21 
REMARK       I    between atoms: N5_21  and  C13_23 
REMARK       I    between atoms: C13_23  and  N8_28 
REMARK   11  A    between atoms: N8_28  and  C15_30 
REMARK   12  A    between atoms: C15_30  and  C16_31 
REMARK   13  A    between atoms: C16_31  and  C17_32 
REMARK   14  A    between atoms: C17_32  and  N9_33 
REMARK   15  A    between atoms: N9_33  and  O1_34 
REMARK   16  A    between atoms: O1_34  and  C18_35 
REMARK   17  A    between atoms: C18_35  and  O2_36 
REMARK   18  A    between atoms: C18_35  and  C19_38 
REMARK   19  A    between atoms: C19_38  and  N10_39 
REMARK       I    between atoms: N10_39  and  C22_42 
ROOT
HETATM    1  N5  UNL     1      13.305   9.140  25.879  1.00  0.00    -0.226 N 
ATOM      2  H5  UNL     1      13.080   9.642  26.739  1.00  0.00     0.177 HD
HETATM    3  C13 UNL     1      14.486   9.448  25.101  1.00  0.00     0.682 C 
HETATM    4  N6  UNL     1      15.495   9.938  25.719  1.00  0.00    -0.126 N 
ATOM      5  H6  UNL     1      16.345  10.168  25.204  1.00  0.00     0.197 HD
HETATM    6  C14 UNL     1      15.434  10.158  27.092  1.00  0.00     0.196 C 
HETATM    7  N7  UNL     1      15.402  10.351  28.238  1.00  0.00    -0.171 NA
HETATM    8  N8  UNL     1      14.465   9.192  23.697  1.00  0.00    -0.226 N 
ATOM      9  H8  UNL     1      14.771   8.275  23.370  1.00  0.00     0.177 HD
ENDROOT
BRANCH   1  10
HETATM   10  C12 UNL     1      12.480   8.107  25.385  1.00  0.00     0.138 C 
BRANCH  10  11
HETATM   11  C11 UNL     1      11.117   7.952  25.921  1.00  0.00     0.022 C 
BRANCH  11  12
HETATM   12  C10 UNL     1      10.536   6.600  25.839  1.00  0.00     0.024 C 
BRANCH  12  13
HETATM   13  C9  UNL     1      11.294   5.405  26.216  1.00  0.00     0.163 C 
BRANCH  13  14
HETATM   14  N4  UNL     1      10.842   4.831  27.462  1.00  0.00    -0.198 N 
HETATM   15  F1  UNL     1      11.212   5.209  28.692  1.00  0.00    -0.097 F 
BRANCH  14  16
HETATM   16  C8  UNL     1       9.924   3.721  27.369  1.00  0.00     0.154 A 
HETATM   17  N3  UNL     1      10.233   2.513  26.936  1.00  0.00    -0.336 N 
HETATM   18  C7  UNL     1       9.307   1.512  26.892  1.00  0.00     0.183 A 
ATOM     19  H3  UNL     1      11.186   2.323  26.627  1.00  0.00     0.168 HD
HETATM   20  N2  UNL     1       8.054   1.757  27.299  1.00  0.00    -0.337 N 
HETATM   21  C6  UNL     1       7.648   2.944  27.751  1.00  0.00     0.127 A 
ATOM     22  H2  UNL     1       7.375   0.997  27.261  1.00  0.00     0.168 HD
HETATM   23  C23 UNL     1       8.629   3.944  27.778  1.00  0.00     0.101 A 
HETATM   24 BR1  UNL     1       8.080   5.658  28.409  1.00  0.00    -0.043 Br
BRANCH  21  25
HETATM   25  N1  UNL     1       6.485   3.185  28.141  1.00  0.00    -0.354 N 
ATOM     26  H1  UNL     1       5.948   3.758  27.490  1.00  0.00     0.166 HD
BRANCH  25  27
HETATM   27  C5  UNL     1       5.768   2.823  29.299  1.00  0.00     0.067 C 
BRANCH  27  28
HETATM   28  C3  UNL     1       6.535   2.675  30.567  1.00  0.00     0.019 C 
HETATM   29  C4  UNL     1       5.796   3.509  31.622  1.00  0.00     0.015 C 
BRANCH  28  30
HETATM   30  C2  UNL     1       6.609   1.254  31.069  1.00  0.00     0.005 C 
HETATM   31  C1  UNL     1       6.124   1.096  32.481  1.00  0.00     0.006 C 
ENDBRANCH  28  30
ENDBRANCH  27  28
ENDBRANCH  25  27
ENDBRANCH  21  25
ENDBRANCH  14  16
ENDBRANCH  13  14
ENDBRANCH  12  13
ENDBRANCH  11  12
ENDBRANCH  10  11
ENDBRANCH   1  10
BRANCH   8  32
HETATM   32  C15 UNL     1      14.038  10.149  22.724  1.00  0.00     0.139 C 
BRANCH  32  33
HETATM   33  C16 UNL     1      12.600   9.941  22.382  1.00  0.00     0.038 C 
BRANCH  33  34
HETATM   34  C17 UNL     1      11.669  10.865  23.108  1.00  0.00     0.144 C 
BRANCH  34  35
HETATM   35  N9  UNL     1      10.643  11.385  22.190  1.00  0.00    -0.098 NA
BRANCH  35  36
HETATM   36  O1  UNL     1      11.211  11.424  20.990  1.00  0.00    -0.253 OA
BRANCH  36  37
HETATM   37  C18 UNL     1      10.445  11.910  19.965  1.00  0.00     0.307 C 
BRANCH  37  38
HETATM   38  O2  UNL     1      10.836  13.133  19.477  1.00  0.00    -0.368 OA
ATOM     39  H2  UNL     1      10.598  13.876  20.019  1.00  0.00     0.212 HD
ENDBRANCH  37  38
BRANCH  37  40
HETATM   40  C19 UNL     1      10.271  10.850  18.909  1.00  0.00     0.308 C 
BRANCH  40  41
HETATM   41  N10 UNL     1       9.283   9.861  19.184  1.00  0.00    -0.013 N 
HETATM   42  C20 UNL     1       8.038  10.433  19.705  1.00  0.00     0.282 C 
HETATM   43  C21 UNL     1       8.891   9.310  17.868  1.00  0.00     0.282 C 
HETATM   44  C22 UNL     1       9.679   8.792  19.993  1.00  0.00     0.286 C 
HETATM   45  N11 UNL     1       9.353   8.674  21.231  1.00  0.00    -0.367 N 
HETATM   46  N12 UNL     1      10.484   7.756  19.441  1.00  0.00    -0.057 NA
ATOM     47 2H11 UNL     1       8.777   9.416  21.627  1.00  0.00     0.158 HD
ATOM     48 1H11 UNL     1       9.642   7.893  21.821  1.00  0.00     0.158 HD
ENDBRANCH  40  41
ENDBRANCH  37  40
ENDBRANCH  36  37
ENDBRANCH  35  36
ENDBRANCH  34  35
ENDBRANCH  33  34
ENDBRANCH  32  33
ENDBRANCH   8  32
TORSDOF 19
ENDMDL
MODEL 3
REMARK VINA RESULT: -7.312778329      1.766      2.215
REMARK  19 active torsions:
REMARK  status: ('A' for Active; 'I' for Inactive)
REMARK    1  A    between atoms: C2_2  and  C3_3 
REMARK    2  A    between atoms: C3_3  and  C5_5 
REMARK    3  A    between atoms: C5_5  and  N1_6 
REMARK    4  A    between atoms: N1_6  and  C6_8 
REMARK    5  A    between atoms: C8_14  and  N4_15 
REMARK    6  A    between atoms: N4_15  and  C9_17 
REMARK    7  A    between atoms: C9_17  and  C10_18 
REMARK    8  A    between atoms: C10_18  and  C11_19 
REMARK    9  A    between atoms: C11_19  and  C12_20 
REMARK   10  A    between atoms: C12_20  and  N5_21 
REMARK       I    between atoms: N5_21  and  C13_23 
REMARK       I    between atoms: C13_23  and  N8_28 
REMARK   11  A    between atoms: N8_28  and  C15_30 
REMARK   12  A    between atoms: C15_30  and  C16_31 
REMARK   13  A    between atoms: C16_31  and  C17_32 
REMARK   14  A    between atoms: C17_32  and  N9_33 
REMARK   15  A    between atoms: N9_33  and  O1_34 
REMARK   16  A    between atoms: O1_34  and  C18_35 
REMARK   17  A    between atoms: C18_35  and  O2_36 
REMARK   18  A    between atoms: C18_35  and  C19_38 
REMARK   19  A    between atoms: C19_38  and  N10_39 
REMARK       I    between atoms: N10_39  and  C22_42 
ROOT
HETATM    1  N5  UNL     1      13.180   9.075  26.187  1.00  0.00    -0.226 N 
ATOM      2  H5  UNL     1      13.097   9.429  27.141  1.00  0.00     0.177 HD
HETATM    3  C13 UNL     1      13.943   9.776  25.176  1.00  0.00     0.682 C 
HETATM    4  N6  UNL     1      14.919  10.507  25.567  1.00  0.00    -0.126 N 
ATOM      5  H6  UNL     1      15.479  11.017  24.883  1.00  0.00     0.197 HD
HETATM    6  C14 UNL     1      15.216  10.609  26.923  1.00  0.00     0.196 C 
HETATM    7  N7  UNL     1      15.479  10.710  28.051  1.00  0.00    -0.171 NA
HETATM    8  N8  UNL     1      13.572   9.616  23.808  1.00  0.00    -0.226 N 
ATOM      9  H8  UNL     1      14.001   8.859  23.277  1.00  0.00     0.177 HD
ENDROOT
BRANCH   1  10
HETATM   10  C12 UNL     1      12.557   7.875  25.784  1.00  0.00     0.138 C 
BRANCH  10  11
HETATM   11  C11 UNL     1      11.089   7.774  25.824  1.00  0.00     0.022 C 
BRANCH  11  12
HETATM   12  C10 UNL     1      10.528   6.414  25.741  1.00  0.00     0.024 C 
BRANCH  12  13
HETATM   13  C9  UNL     1      11.258   5.241  26.229  1.00  0.00     0.163 C 
BRANCH  13  14
HETATM   14  N4  UNL     1      10.798   4.801  27.526  1.00  0.00    -0.198 N 
HETATM   15  F1  UNL     1      11.203   5.269  28.714  1.00  0.00    -0.097 F 
BRANCH  14  16
HETATM   16  C8  UNL     1       9.828   3.733  27.540  1.00  0.00     0.154 A 
HETATM   17  N3  UNL     1      10.069   2.483  27.190  1.00  0.00    -0.336 N 
HETATM   18  C7  UNL     1       9.098   1.526  27.247  1.00  0.00     0.183 A 
ATOM     19  H3  UNL     1      11.003   2.226  26.871  1.00  0.00     0.168 HD
HETATM   20  N2  UNL     1       7.870   1.859  27.668  1.00  0.00    -0.337 N 
HETATM   21  C6  UNL     1       7.532   3.094  28.040  1.00  0.00     0.127 A 
ATOM     22  H2  UNL     1       7.156   1.131  27.705  1.00  0.00     0.168 HD
HETATM   23  C23 UNL     1       8.557   4.046  27.966  1.00  0.00     0.101 A 
HETATM   24 BR1  UNL     1       8.106   5.826  28.482  1.00  0.00    -0.043 Br
BRANCH  21  25
HETATM   25  N1  UNL     1       6.394   3.418  28.442  1.00  0.00    -0.354 N 
ATOM     26  H1  UNL     1       5.901   4.046  27.808  1.00  0.00     0.166 HD
BRANCH  25  27
HETATM   27  C5  UNL     1       5.655   3.088  29.596  1.00  0.00     0.067 C 
BRANCH  27  28
HETATM   28  C3  UNL     1       6.414   2.839  30.853  1.00  0.00     0.019 C 
HETATM   29  C4  UNL     1       5.642   3.548  31.975  1.00  0.00     0.015 C 
BRANCH  28  30
HETATM   30  C2  UNL     1       6.523   1.380  31.218  1.00  0.00     0.005 C 
HETATM   31  C1  UNL     1       6.061   1.079  32.614  1.00  0.00     0.006 C 
ENDBRANCH  28  30
ENDBRANCH  27  28
ENDBRANCH  25  27
ENDBRANCH  21  25
ENDBRANCH  14  16
ENDBRANCH  13  14
ENDBRANCH  12  13
ENDBRANCH  11  12
ENDBRANCH  10  11
ENDBRANCH   1  10
BRANCH   8  32
HETATM   32  C15 UNL     1      12.630  10.460  23.139  1.00  0.00     0.139 C 
BRANCH  32  33
HETATM   33  C16 UNL     1      12.482  10.051  21.712  1.00  0.00     0.038 C 
BRANCH  33  34
HETATM   34  C17 UNL     1      11.215   9.302  21.428  1.00  0.00     0.144 C 
BRANCH  34  35
HETATM   35  N9  UNL     1      11.171   8.884  20.017  1.00  0.00    -0.098 NA
BRANCH  35  36
HETATM   36  O1  UNL     1       9.885   8.738  19.718  1.00  0.00    -0.253 OA
BRANCH  36  37
HETATM   37  C18 UNL     1       9.460   9.305  18.547  1.00  0.00     0.307 C 
BRANCH  37  38
HETATM   38  O2  UNL     1       8.665   8.500  17.767  1.00  0.00    -0.368 OA
ATOM     39  H2  UNL     1       8.444   7.660  18.152  1.00  0.00     0.212 HD
ENDBRANCH  37  38
BRANCH  37  40
HETATM   40  C19 UNL     1       8.882  10.669  18.819  1.00  0.00     0.308 C 
BRANCH  40  41
HETATM   41  N10 UNL     1       9.630  11.769  18.313  1.00  0.00    -0.013 N 
HETATM   42  C20 UNL     1      10.096  11.555  16.940  1.00  0.00     0.282 C 
HETATM   43  C21 UNL     1       8.666  12.884  18.185  1.00  0.00     0.282 C 
HETATM   44  C22 UNL     1      10.695  12.215  19.102  1.00  0.00     0.286 C 
HETATM   45  N11 UNL     1      11.929  11.964  18.844  1.00  0.00    -0.367 N 
HETATM   46  N12 UNL     1      10.430  12.998  20.260  1.00  0.00    -0.057 NA
ATOM     47 2H11 UNL     1      12.120  11.403  18.014  1.00  0.00     0.158 HD
ATOM     48 1H11 UNL     1      12.706  12.289  19.420  1.00  0.00     0.158 HD
ENDBRANCH  40  41
ENDBRANCH  37  40
ENDBRANCH  36  37
ENDBRANCH  35  36
ENDBRANCH  34  35
ENDBRANCH  33  34
ENDBRANCH  32  33
ENDBRANCH   8  32
TORSDOF 19
ENDMDL
MODEL 4
REMARK VINA RESULT: -7.270357137      1.418      2.002
REMARK  19 active torsions:
REMARK  status: ('A' for Active; 'I' for Inactive)
REMARK    1  A    between atoms: C2_2  and  C3_3 
REMARK    2  A    between atoms: C3_3  and  C5_5 
REMARK    3  A    between atoms: C5_5  and  N1_6 
REMARK    4  A    between atoms: N1_6  and  C6_8 
REMARK    5  A    between atoms: C8_14  and  N4_15 
REMARK    6  A    between atoms: N4_15  and  C9_17 
REMARK    7  A    between atoms: C9_17  and  C10_18 
REMARK    8  A    between atoms: C10_18  and  C11_19 
REMARK    9  A    between atoms: C11_19  and  C12_20 
REMARK   10  A    between atoms: C12_20  and  N5_21 
REMARK       I    between atoms: N5_21  and  C13_23 
REMARK       I    between atoms: C13_23  and  N8_28 
REMARK   11  A    between atoms: N8_28  and  C15_30 
REMARK   12  A    between atoms: C15_30  and  C16_31 
REMARK   13  A    between atoms: C16_31  and  C17_32 
REMARK   14  A    between atoms: C17_32  and  N9_33 
REMARK   15  A    between atoms: N9_33  and  O1_34 
REMARK   16  A    between atoms: O1_34  and  C18_35 
REMARK   17  A    between atoms: C18_35  and  O2_36 
REMARK   18  A    between atoms: C18_35  and  C19_38 
REMARK   19  A    between atoms: C19_38  and  N10_39 
REMARK       I    between atoms: N10_39  and  C22_42 
ROOT
HETATM    1  N5  UNL     1      13.212   9.125  25.987  1.00  0.00    -0.226 N 
ATOM      2  H5  UNL     1      12.929   9.682  26.793  1.00  0.00     0.177 HD
HETATM    3  C13 UNL     1      14.381   9.461  25.201  1.00  0.00     0.682 C 
HETATM    4  N6  UNL     1      15.332  10.086  25.786  1.00  0.00    -0.126 N 
ATOM      5  H6  UNL     1      16.172  10.340  25.265  1.00  0.00     0.197 HD
HETATM    6  C14 UNL     1      15.223  10.422  27.133  1.00  0.00     0.196 C 
HETATM    7  N7  UNL     1      15.151  10.714  28.256  1.00  0.00    -0.171 NA
HETATM    8  N8  UNL     1      14.412   9.078  23.826  1.00  0.00    -0.226 N 
ATOM      9  H8  UNL     1      14.799   8.165  23.588  1.00  0.00     0.177 HD
ENDROOT
BRANCH   1  10
HETATM   10  C12 UNL     1      12.486   7.987  25.577  1.00  0.00     0.138 C 
BRANCH  10  11
HETATM   11  C11 UNL     1      11.016   8.048  25.522  1.00  0.00     0.022 C 
BRANCH  11  12
HETATM   12  C10 UNL     1      10.390   7.557  24.282  1.00  0.00     0.024 C 
BRANCH  12  13
HETATM   13  C9  UNL     1      10.617   6.198  23.783  1.00  0.00     0.163 C 
BRANCH  13  14
HETATM   14  N4  UNL     1       9.465   5.344  23.955  1.00  0.00    -0.198 N 
HETATM   15  F1  UNL     1       8.192   5.663  23.687  1.00  0.00    -0.097 F 
BRANCH  14  16
HETATM   16  C8  UNL     1       9.709   4.030  24.498  1.00  0.00     0.154 A 
HETATM   17  N3  UNL     1      10.213   3.011  23.827  1.00  0.00    -0.336 N 
HETATM   18  C7  UNL     1      10.428   1.802  24.420  1.00  0.00     0.183 A 
ATOM     19  H3  UNL     1      10.448   3.132  22.842  1.00  0.00     0.168 HD
HETATM   20  N2  UNL     1      10.121   1.640  25.714  1.00  0.00    -0.337 N 
HETATM   21  C6  UNL     1       9.607   2.609  26.473  1.00  0.00     0.127 A 
ATOM     22  H2  UNL     1      10.289   0.729  26.142  1.00  0.00     0.168 HD
HETATM   23  C23 UNL     1       9.402   3.834  25.826  1.00  0.00     0.101 A 
HETATM   24 BR1  UNL     1       8.658   5.239  26.879  1.00  0.00    -0.043 Br
BRANCH  21  25
HETATM   25  N1  UNL     1       9.325   2.475  27.683  1.00  0.00    -0.354 N 
ATOM     26  H1  UNL     1       9.528   3.304  28.242  1.00  0.00     0.166 HD
BRANCH  25  27
HETATM   27  C5  UNL     1       8.782   1.410  28.430  1.00  0.00     0.067 C 
BRANCH  27  28
HETATM   28  C3  UNL     1       7.417   1.592  28.998  1.00  0.00     0.019 C 
HETATM   29  C4  UNL     1       7.284   0.575  30.140  1.00  0.00     0.015 C 
BRANCH  28  30
HETATM   30  C2  UNL     1       7.177   2.966  29.573  1.00  0.00     0.005 C 
HETATM   31  C1  UNL     1       6.477   2.942  30.900  1.00  0.00     0.006 C 
ENDBRANCH  28  30
ENDBRANCH  27  28
ENDBRANCH  25  27
ENDBRANCH  21  25
ENDBRANCH  14  16
ENDBRANCH  13  14
ENDBRANCH  12  13
ENDBRANCH  11  12
ENDBRANCH  10  11
ENDBRANCH   1  10
BRANCH   8  32
HETATM   32  C15 UNL     1      13.930   9.905  22.764  1.00  0.00     0.139 C 
BRANCH  32  33
HETATM   33  C16 UNL     1      12.601  10.487  23.115  1.00  0.00     0.038 C 
BRANCH  33  34
HETATM   34  C17 UNL     1      11.669  10.608  21.946  1.00  0.00     0.144 C 
BRANCH  34  35
HETATM   35  N9  UNL     1      12.121   9.751  20.839  1.00  0.00    -0.098 NA
BRANCH  35  36
HETATM   36  O1  UNL     1      12.162  10.531  19.764  1.00  0.00    -0.253 OA
BRANCH  36  37
HETATM   37  C18 UNL     1      11.103  11.378  19.581  1.00  0.00     0.307 C 
BRANCH  37  38
HETATM   38  O2  UNL     1      11.442  12.682  19.310  1.00  0.00    -0.368 OA
ATOM     39  H2  UNL     1      11.859  12.821  18.468  1.00  0.00     0.212 HD
ENDBRANCH  37  38
BRANCH  37  40
HETATM   40  C19 UNL     1      10.130  10.775  18.602  1.00  0.00     0.308 C 
BRANCH  40  41
HETATM   41  N10 UNL     1       8.941  10.231  19.168  1.00  0.00    -0.013 N 
HETATM   42  C20 UNL     1       8.427  11.031  20.283  1.00  0.00     0.282 C 
HETATM   43  C21 UNL     1       7.901  10.375  18.125  1.00  0.00     0.282 C 
HETATM   44  C22 UNL     1       8.988   8.886  19.542  1.00  0.00     0.286 C 
HETATM   45  N11 UNL     1       9.095   8.485  20.759  1.00  0.00    -0.367 N 
HETATM   46  N12 UNL     1       8.908   7.877  18.542  1.00  0.00    -0.057 NA
ATOM     47 2H11 UNL     1       9.152   9.208  21.476  1.00  0.00     0.158 HD
ATOM     48 1H11 UNL     1       9.129   7.503  21.032  1.00  0.00     0.158 HD
ENDBRANCH  40  41
ENDBRANCH  37  40
ENDBRANCH  36  37
ENDBRANCH  35  36
ENDBRANCH  34  35
ENDBRANCH  33  34
ENDBRANCH  32  33
ENDBRANCH   8  32
TORSDOF 19
ENDMDL
MODEL 5
REMARK VINA RESULT: -7.212942827      1.877      2.303
REMARK  19 active torsions:
REMARK  status: ('A' for Active; 'I' for Inactive)
REMARK    1  A    between atoms: C2_2  and  C3_3 
REMARK    2  A    between atoms: C3_3  and  C5_5 
REMARK    3  A    between atoms: C5_5  and  N1_6 
REMARK    4  A    between atoms: N1_6  and  C6_8 
REMARK    5  A    between atoms: C8_14  and  N4_15 
REMARK    6  A    between atoms: N4_15  and  C9_17 
REMARK    7  A    between atoms: C9_17  and  C10_18 
REMARK    8  A    between atoms: C10_18  and  C11_19 
REMARK    9  A    between atoms: C11_19  and  C12_20 
REMARK   10  A    between atoms: C12_20  and  N5_21 
REMARK       I    between atoms: N5_21  and  C13_23 
REMARK       I    between atoms: C13_23  and  N8_28 
REMARK   11  A    between atoms: N8_28  and  C15_30 
REMARK   12  A    between atoms: C15_30  and  C16_31 
REMARK   13  A    between atoms: C16_31  and  C17_32 
REMARK   14  A    between atoms: C17_32  and  N9_33 
REMARK   15  A    between atoms: N9_33  and  O1_34 
REMARK   16  A    between atoms: O1_34  and  C18_35 
REMARK   17  A    between atoms: C18_35  and  O2_36 
REMARK   18  A    between atoms: C18_35  and  C19_38 
REMARK   19  A    between atoms: C19_38  and  N10_39 
REMARK       I    between atoms: N10_39  and  C22_42 
ROOT
HETATM    1  N5  UNL     1      13.139   8.928  26.025  1.00  0.00    -0.226 N 
ATOM      2  H5  UNL     1      13.011   9.279  26.975  1.00  0.00     0.177 HD
HETATM    3  C13 UNL     1      14.063   9.549  25.100  1.00  0.00     0.682 C 
HETATM    4  N6  UNL     1      15.075  10.161  25.590  1.00  0.00    -0.126 N 
ATOM      5  H6  UNL     1      15.748  10.611  24.969  1.00  0.00     0.197 HD
HETATM    6  C14 UNL     1      15.259  10.213  26.969  1.00  0.00     0.196 C 
HETATM    7  N7  UNL     1      15.431  10.271  28.117  1.00  0.00    -0.171 NA
HETATM    8  N8  UNL     1      13.800   9.447  23.701  1.00  0.00    -0.226 N 
ATOM      9  H8  UNL     1      14.188   8.652  23.194  1.00  0.00     0.177 HD
ENDROOT
BRANCH   1  10
HETATM   10  C12 UNL     1      12.424   7.811  25.544  1.00  0.00     0.138 C 
BRANCH  10  11
HETATM   11  C11 UNL     1      10.966   7.908  25.365  1.00  0.00     0.022 C 
BRANCH  11  12
HETATM   12  C10 UNL     1      10.230   6.632  25.317  1.00  0.00     0.024 C 
BRANCH  12  13
HETATM   13  C9  UNL     1       9.650   6.117  24.075  1.00  0.00     0.163 C 
BRANCH  13  14
HETATM   14  N4  UNL     1       8.662   5.089  24.308  1.00  0.00    -0.198 N 
HETATM   15  F1  UNL     1       7.343   5.190  24.096  1.00  0.00    -0.097 F 
BRANCH  14  16
HETATM   16  C8  UNL     1       9.142   3.841  24.852  1.00  0.00     0.154 A 
HETATM   17  N3  UNL     1       9.889   2.966  24.204  1.00  0.00    -0.336 N 
HETATM   18  C7  UNL     1      10.315   1.814  24.797  1.00  0.00     0.183 A 
ATOM     19  H3  UNL     1      10.152   3.156  23.237  1.00  0.00     0.168 HD
HETATM   20  N2  UNL     1       9.971   1.562  26.068  1.00  0.00    -0.337 N 
HETATM   21  C6  UNL     1       9.221   2.384  26.802  1.00  0.00     0.127 A 
ATOM     22  H2  UNL     1      10.300   0.696  26.496  1.00  0.00     0.168 HD
HETATM   23  C23 UNL     1       8.804   3.555  26.156  1.00  0.00     0.101 A 
HETATM   24 BR1  UNL     1       7.720   4.749  27.173  1.00  0.00    -0.043 Br
BRANCH  21  25
HETATM   25  N1  UNL     1       8.900   2.167  27.990  1.00  0.00    -0.354 N 
ATOM     26  H1  UNL     1       8.981   2.987  28.590  1.00  0.00     0.166 HD
BRANCH  25  27
HETATM   27  C5  UNL     1       8.449   1.015  28.666  1.00  0.00     0.067 C 
BRANCH  27  28
HETATM   28  C3  UNL     1       7.162   1.113  29.409  1.00  0.00     0.019 C 
HETATM   29  C4  UNL     1       7.195   0.013  30.479  1.00  0.00     0.015 C 
BRANCH  28  30
HETATM   30  C2  UNL     1       6.963   2.433  30.110  1.00  0.00     0.005 C 
HETATM   31  C1  UNL     1       6.229   2.311  31.413  1.00  0.00     0.006 C 
ENDBRANCH  28  30
ENDBRANCH  27  28
ENDBRANCH  25  27
ENDBRANCH  21  25
ENDBRANCH  14  16
ENDBRANCH  13  14
ENDBRANCH  12  13
ENDBRANCH  11  12
ENDBRANCH  10  11
ENDBRANCH   1  10
BRANCH   8  32
HETATM   32  C15 UNL     1      13.022  10.399  22.970  1.00  0.00     0.139 C 
BRANCH  32  33
HETATM   33  C16 UNL     1      13.082  10.112  21.507  1.00  0.00     0.038 C 
BRANCH  33  34
HETATM   34  C17 UNL     1      11.817   9.523  20.957  1.00  0.00     0.144 C 
BRANCH  34  35
HETATM   35  N9  UNL     1      11.365   8.403  21.798  1.00  0.00    -0.098 NA
BRANCH  35  36
HETATM   36  O1  UNL     1      10.579   7.659  21.026  1.00  0.00    -0.253 OA
BRANCH  36  37
HETATM   37  C18 UNL     1       9.548   8.305  20.400  1.00  0.00     0.307 C 
BRANCH  37  38
HETATM   38  O2  UNL     1       9.302   7.893  19.112  1.00  0.00    -0.368 OA
ATOM     39  H2  UNL     1       8.471   7.452  18.984  1.00  0.00     0.212 HD
ENDBRANCH  37  38
BRANCH  37  40
HETATM   40  C19 UNL     1       8.333   8.314  21.289  1.00  0.00     0.308 C 
BRANCH  40  41
HETATM   41  N10 UNL     1       7.990   9.575  21.855  1.00  0.00    -0.013 N 
HETATM   42  C20 UNL     1       8.358  10.702  20.992  1.00  0.00     0.282 C 
HETATM   43  C21 UNL     1       6.511   9.617  21.872  1.00  0.00     0.282 C 
HETATM   44  C22 UNL     1       8.439   9.819  23.155  1.00  0.00     0.286 C 
HETATM   45  N11 UNL     1       9.436  10.581  23.437  1.00  0.00    -0.367 N 
HETATM   46  N12 UNL     1       7.772   9.207  24.253  1.00  0.00    -0.057 NA
ATOM     47 2H11 UNL     1       9.914  11.019  22.650  1.00  0.00     0.158 HD
ATOM     48 1H11 UNL     1       9.764  10.758  24.387  1.00  0.00     0.158 HD
ENDBRANCH  40  41
ENDBRANCH  37  40
ENDBRANCH  36  37
ENDBRANCH  35  36
ENDBRANCH  34  35
ENDBRANCH  33  34
ENDBRANCH  32  33
ENDBRANCH   8  32
TORSDOF 19
ENDMDL
