MODEL 1
REMARK VINA RESULT: -6.776819912      0.000      0.000
REMARK  14 active torsions:
REMARK  status: ('A' for Active; 'I' for Inactive)
REMARK    1  A    between atoms: C9_9  and  N1_10 
REMARK       I    between atoms: N1_10  and  C10_12 
REMARK    2  A    between atoms: C10_12  and  C11_14 
REMARK    3  A    between atoms: C11_14  and  C12_15 
REMARK    4  A    between atoms: C11_14  and  N3_23 
REMARK    5  A    between atoms: C12_15  and  C13_16 
REMARK    6  A    between atoms: C13_16  and  C14_17 
REMARK    7  A    between atoms: C14_17  and  C15_18 
REMARK    8  A    between atoms: C15_18  and  N2_19 
REMARK    9  A    between atoms: N3_23  and  S1_25 
REMARK   10  A    between atoms: S1_25  and  N4_28 
REMARK   11  A    between atoms: N4_28  and  C16_30 
REMARK   12  A    between atoms: C16_30  and  C17_31 
REMARK   13  A    between atoms: C16_30  and  C18_38 
REMARK       I    between atoms: C17_31  and  N5_33 
REMARK   14  A    between atoms: N5_33  and  N6_35 
ROOT
HETATM    1  C11 UNL     1      19.818  20.847  31.511  1.00  0.00     0.186 C 
ENDROOT
BRANCH   1   2
HETATM    2  C10 UNL     1      20.543  20.085  32.597  1.00  0.00     0.241 C 
HETATM    3  N1  UNL     1      21.397  19.030  32.175  1.00  0.00    -0.350 N 
ATOM      4  H1  UNL     1      21.482  18.836  31.177  1.00  0.00     0.163 HD
HETATM    5  O1  UNL     1      20.389  20.378  33.795  1.00  0.00    -0.271 OA
BRANCH   3   6
HETATM    6  C9  UNL     1      22.151  18.219  33.109  1.00  0.00     0.034 C 
HETATM    7  C8  UNL     1      23.542  18.817  33.252  1.00  0.00     0.036 C 
HETATM    8  C7  UNL     1      24.427  18.015  34.153  1.00  0.00    -0.008 C 
HETATM    9  C2  UNL     1      23.766  17.955  35.511  1.00  0.00    -0.010 C 
HETATM   10  C6  UNL     1      24.568  16.634  33.596  1.00  0.00     0.010 C 
HETATM   11  C1  UNL     1      24.599  17.270  36.552  1.00  0.00     0.011 C 
HETATM   12  C3  UNL     1      22.425  17.302  35.351  1.00  0.00    -0.008 C 
HETATM   13  C4  UNL     1      22.515  15.927  34.773  1.00  0.00     0.010 C 
HETATM   14  C23 UNL     1      21.540  18.156  34.471  1.00  0.00     0.036 C 
HETATM   15  C5  UNL     1      23.212  16.011  33.425  1.00  0.00    -0.012 C 
HETATM   16  C22 UNL     1      22.319  16.841  32.518  1.00  0.00     0.035 C 
ENDBRANCH   3   6
ENDBRANCH   1   2
BRANCH   1  17
HETATM   17  C12 UNL     1      20.001  22.298  31.873  1.00  0.00     0.035 C 
BRANCH  17  18
HETATM   18  C13 UNL     1      20.363  23.136  30.697  1.00  0.00     0.004 C 
BRANCH  18  19
HETATM   19  C14 UNL     1      20.703  22.248  29.519  1.00  0.00     0.027 C 
BRANCH  19  20
HETATM   20  C15 UNL     1      19.828  22.568  28.313  1.00  0.00     0.229 C 
BRANCH  20  21
HETATM   21  N2  UNL     1      18.726  21.637  28.234  1.00  0.00    -0.079 N 
ATOM     22  H23 UNL     1      18.429  21.321  29.157  1.00  0.00     0.274 HD
ATOM     23  H22 UNL     1      17.861  22.095  27.946  1.00  0.00     0.274 HD
ATOM     24  H21 UNL     1      18.967  20.858  27.623  1.00  0.00     0.274 HD
ENDBRANCH  20  21
ENDBRANCH  19  20
ENDBRANCH  18  19
ENDBRANCH  17  18
ENDBRANCH   1  17
BRANCH   1  25
HETATM   25  N3  UNL     1      18.441  20.454  31.597  1.00  0.00    -0.289 N 
ATOM     26  H3  UNL     1      17.744  20.957  32.145  1.00  0.00     0.174 HD
BRANCH  25  27
HETATM   27  S1  UNL     1      18.091  19.041  30.678  1.00  0.00     0.316 S 
HETATM   28  O2  UNL     1      19.285  18.755  29.770  1.00  0.00    -0.183 OA
HETATM   29  O3  UNL     1      16.975  19.403  29.739  1.00  0.00    -0.183 OA
BRANCH  27  30
HETATM   30  N4  UNL     1      17.755  17.749  31.689  1.00  0.00    -0.288 N 
ATOM     31  H4  UNL     1      17.228  17.871  32.554  1.00  0.00     0.174 HD
BRANCH  30  32
HETATM   32  C16 UNL     1      18.250  16.443  31.278  1.00  0.00     0.195 C 
BRANCH  32  33
HETATM   33  C17 UNL     1      17.393  15.877  30.212  1.00  0.00     0.259 C 
HETATM   34  O4  UNL     1      17.848  14.950  29.502  1.00  0.00    -0.269 OA
HETATM   35  N5  UNL     1      16.096  16.338  29.974  1.00  0.00    -0.275 N 
ATOM     36  H5  UNL     1      15.683  17.086  30.532  1.00  0.00     0.189 HD
BRANCH  35  37
HETATM   37  N6  UNL     1      15.371  15.710  28.908  1.00  0.00    -0.343 N 
ATOM     38  H62 UNL     1      14.480  15.247  29.087  1.00  0.00     0.176 HD
ATOM     39  H61 UNL     1      15.791  15.753  27.979  1.00  0.00     0.176 HD
ENDBRANCH  35  37
ENDBRANCH  32  33
BRANCH  32  40
HETATM   40  C18 UNL     1      18.356  15.588  32.510  1.00  0.00    -0.021 C 
HETATM   41  C19 UNL     1      18.763  16.509  33.662  1.00  0.00     0.017 C 
HETATM   42  C20 UNL     1      17.024  14.991  32.906  1.00  0.00     0.017 C 
HETATM   43  C21 UNL     1      19.442  14.546  32.446  1.00  0.00     0.017 C 
ENDBRANCH  32  40
ENDBRANCH  30  32
ENDBRANCH  27  30
ENDBRANCH  25  27
ENDBRANCH   1  25
TORSDOF 14
ENDMDL
MODEL 2
REMARK VINA RESULT: -6.534881898      2.790      6.333
REMARK  14 active torsions:
REMARK  status: ('A' for Active; 'I' for Inactive)
REMARK    1  A    between atoms: C9_9  and  N1_10 
REMARK       I    between atoms: N1_10  and  C10_12 
REMARK    2  A    between atoms: C10_12  and  C11_14 
REMARK    3  A    between atoms: C11_14  and  C12_15 
REMARK    4  A    between atoms: C11_14  and  N3_23 
REMARK    5  A    between atoms: C12_15  and  C13_16 
REMARK    6  A    between atoms: C13_16  and  C14_17 
REMARK    7  A    between atoms: C14_17  and  C15_18 
REMARK    8  A    between atoms: C15_18  and  N2_19 
REMARK    9  A    between atoms: N3_23  and  S1_25 
REMARK   10  A    between atoms: S1_25  and  N4_28 
REMARK   11  A    between atoms: N4_28  and  C16_30 
REMARK   12  A    between atoms: C16_30  and  C17_31 
REMARK   13  A    between atoms: C16_30  and  C18_38 
REMARK       I    between atoms: C17_31  and  N5_33 
REMARK   14  A    between atoms: N5_33  and  N6_35 
ROOT
HETATM    1  C11 UNL     1      19.151  21.253  28.846  1.00  0.00     0.186 C 
ENDROOT
BRANCH   1   2
HETATM    2  C10 UNL     1      18.565  19.863  28.954  1.00  0.00     0.241 C 
HETATM    3  N1  UNL     1      18.929  18.937  27.939  1.00  0.00    -0.350 N 
ATOM      4  H1  UNL     1      19.558  19.243  27.197  1.00  0.00     0.163 HD
HETATM    5  O1  UNL     1      17.803  19.562  29.888  1.00  0.00    -0.271 OA
BRANCH   3   6
HETATM    6  C9  UNL     1      18.440  17.573  27.919  1.00  0.00     0.034 C 
HETATM    7  C8  UNL     1      18.422  17.090  26.477  1.00  0.00     0.036 C 
HETATM    8  C7  UNL     1      17.872  15.705  26.338  1.00  0.00    -0.008 C 
HETATM    9  C2  UNL     1      18.738  14.783  27.165  1.00  0.00    -0.010 C 
HETATM   10  C6  UNL     1      16.469  15.683  26.856  1.00  0.00     0.010 C 
HETATM   11  C1  UNL     1      18.368  13.335  27.032  1.00  0.00     0.011 C 
HETATM   12  C3  UNL     1      18.685  15.243  28.591  1.00  0.00    -0.008 C 
HETATM   13  C4  UNL     1      17.297  15.261  29.144  1.00  0.00     0.010 C 
HETATM   14  C23 UNL     1      19.286  16.626  28.706  1.00  0.00     0.036 C 
HETATM   15  C5  UNL     1      16.440  16.168  28.277  1.00  0.00    -0.012 C 
HETATM   16  C22 UNL     1      17.012  17.570  28.407  1.00  0.00     0.035 C 
ENDBRANCH   3   6
ENDBRANCH   1   2
BRANCH   1  17
HETATM   17  C12 UNL     1      19.166  21.549  27.369  1.00  0.00     0.035 C 
BRANCH  17  18
HETATM   18  C13 UNL     1      19.559  22.954  27.075  1.00  0.00     0.004 C 
BRANCH  18  19
HETATM   19  C14 UNL     1      19.531  23.193  25.580  1.00  0.00     0.027 C 
BRANCH  19  20
HETATM   20  C15 UNL     1      19.537  24.683  25.257  1.00  0.00     0.229 C 
BRANCH  20  21
HETATM   21  N2  UNL     1      20.257  24.924  24.029  1.00  0.00    -0.079 N 
ATOM     22  H23 UNL     1      21.238  24.658  24.104  1.00  0.00     0.274 HD
ATOM     23  H22 UNL     1      19.981  24.275  23.292  1.00  0.00     0.274 HD
ATOM     24  H21 UNL     1      20.147  25.896  23.741  1.00  0.00     0.274 HD
ENDBRANCH  20  21
ENDBRANCH  19  20
ENDBRANCH  18  19
ENDBRANCH  17  18
ENDBRANCH   1  17
BRANCH   1  25
HETATM   25  N3  UNL     1      20.480  21.169  29.379  1.00  0.00    -0.289 N 
ATOM     26  H3  UNL     1      21.279  20.824  28.848  1.00  0.00     0.174 HD
BRANCH  25  27
HETATM   27  S1  UNL     1      20.582  21.712  31.009  1.00  0.00     0.316 S 
HETATM   28  O2  UNL     1      19.200  22.201  31.436  1.00  0.00    -0.183 OA
HETATM   29  O3  UNL     1      21.438  22.947  31.000  1.00  0.00    -0.183 OA
BRANCH  27  30
HETATM   30  N4  UNL     1      21.143  20.487  32.004  1.00  0.00    -0.288 N 
ATOM     31  H4  UNL     1      21.593  20.688  32.897  1.00  0.00     0.174 HD
BRANCH  30  32
HETATM   32  C16 UNL     1      20.958  19.120  31.537  1.00  0.00     0.195 C 
BRANCH  32  33
HETATM   33  C17 UNL     1      19.963  18.416  32.376  1.00  0.00     0.259 C 
HETATM   34  O4  UNL     1      20.000  18.580  33.618  1.00  0.00    -0.269 OA
HETATM   35  N5  UNL     1      18.984  17.581  31.831  1.00  0.00    -0.275 N 
ATOM     36  H5  UNL     1      18.913  17.426  30.825  1.00  0.00     0.189 HD
BRANCH  35  37
HETATM   37  N6  UNL     1      18.083  16.954  32.753  1.00  0.00    -0.343 N 
ATOM     38  H62 UNL     1      17.089  16.875  32.537  1.00  0.00     0.176 HD
ATOM     39  H61 UNL     1      18.485  16.599  33.621  1.00  0.00     0.176 HD
ENDBRANCH  35  37
ENDBRANCH  32  33
BRANCH  32  40
HETATM   40  C18 UNL     1      22.312  18.467  31.497  1.00  0.00    -0.021 C 
HETATM   41  C19 UNL     1      22.915  18.767  30.123  1.00  0.00     0.017 C 
HETATM   42  C20 UNL     1      23.263  19.065  32.508  1.00  0.00     0.017 C 
HETATM   43  C21 UNL     1      22.274  16.964  31.582  1.00  0.00     0.017 C 
ENDBRANCH  32  40
ENDBRANCH  30  32
ENDBRANCH  27  30
ENDBRANCH  25  27
ENDBRANCH   1  25
TORSDOF 14
ENDMDL
MODEL 3
REMARK VINA RESULT: -6.502335545      3.104      4.292
REMARK  14 active torsions:
REMARK  status: ('A' for Active; 'I' for Inactive)
REMARK    1  A    between atoms: C9_9  and  N1_10 
REMARK       I    between atoms: N1_10  and  C10_12 
REMARK    2  A    between atoms: C10_12  and  C11_14 
REMARK    3  A    between atoms: C11_14  and  C12_15 
REMARK    4  A    between atoms: C11_14  and  N3_23 
REMARK    5  A    between atoms: C12_15  and  C13_16 
REMARK    6  A    between atoms: C13_16  and  C14_17 
REMARK    7  A    between atoms: C14_17  and  C15_18 
REMARK    8  A    between atoms: C15_18  and  N2_19 
REMARK    9  A    between atoms: N3_23  and  S1_25 
REMARK   10  A    between atoms: S1_25  and  N4_28 
REMARK   11  A    between atoms: N4_28  and  C16_30 
REMARK   12  A    between atoms: C16_30  and  C17_31 
REMARK   13  A    between atoms: C16_30  and  C18_38 
REMARK       I    between atoms: C17_31  and  N5_33 
REMARK   14  A    between atoms: N5_33  and  N6_35 
ROOT
HETATM    1  C11 UNL     1      20.068  19.641  31.639  1.00  0.00     0.186 C 
ENDROOT
BRANCH   1   2
HETATM    2  C10 UNL     1      21.328  19.269  30.888  1.00  0.00     0.241 C 
HETATM    3  N1  UNL     1      21.552  17.882  30.668  1.00  0.00    -0.350 N 
ATOM      4  H1  UNL     1      20.868  17.212  31.018  1.00  0.00     0.163 HD
HETATM    5  O1  UNL     1      22.117  20.143  30.491  1.00  0.00    -0.271 OA
BRANCH   3   6
HETATM    6  C9  UNL     1      22.717  17.386  29.964  1.00  0.00     0.034 C 
HETATM    7  C8  UNL     1      22.594  17.772  28.498  1.00  0.00     0.036 C 
HETATM    8  C7  UNL     1      23.723  17.251  27.666  1.00  0.00    -0.008 C 
HETATM    9  C2  UNL     1      25.007  17.818  28.228  1.00  0.00    -0.010 C 
HETATM   10  C6  UNL     1      23.747  15.758  27.755  1.00  0.00     0.010 C 
HETATM   11  C1  UNL     1      26.221  17.466  27.421  1.00  0.00     0.011 C 
HETATM   12  C3  UNL     1      25.135  17.368  29.652  1.00  0.00    -0.008 C 
HETATM   13  C4  UNL     1      25.137  15.880  29.793  1.00  0.00     0.010 C 
HETATM   14  C23 UNL     1      24.005  17.944  30.476  1.00  0.00     0.036 C 
HETATM   15  C5  UNL     1      23.853  15.333  29.192  1.00  0.00    -0.012 C 
HETATM   16  C22 UNL     1      22.708  15.879  30.028  1.00  0.00     0.035 C 
ENDBRANCH   3   6
ENDBRANCH   1   2
BRANCH   1  17
HETATM   17  C12 UNL     1      20.553  20.410  32.841  1.00  0.00     0.035 C 
BRANCH  17  18
HETATM   18  C13 UNL     1      19.942  21.764  32.934  1.00  0.00     0.004 C 
BRANCH  18  19
HETATM   19  C14 UNL     1      19.447  22.198  31.570  1.00  0.00     0.027 C 
BRANCH  19  20
HETATM   20  C15 UNL     1      20.282  23.348  31.018  1.00  0.00     0.229 C 
BRANCH  20  21
HETATM   21  N2  UNL     1      21.379  22.835  30.230  1.00  0.00    -0.079 N 
ATOM     22  H23 UNL     1      21.250  21.852  29.994  1.00  0.00     0.274 HD
ATOM     23  H22 UNL     1      21.379  23.218  29.284  1.00  0.00     0.274 HD
ATOM     24  H21 UNL     1      22.264  23.000  30.708  1.00  0.00     0.274 HD
ENDBRANCH  20  21
ENDBRANCH  19  20
ENDBRANCH  18  19
ENDBRANCH  17  18
ENDBRANCH   1  17
BRANCH   1  25
HETATM   25  N3  UNL     1      19.450  18.405  32.020  1.00  0.00    -0.289 N 
ATOM     26  H3  UNL     1      19.871  17.740  32.668  1.00  0.00     0.174 HD
BRANCH  25  27
HETATM   27  S1  UNL     1      17.920  18.164  31.268  1.00  0.00     0.316 S 
HETATM   28  O2  UNL     1      17.437  19.509  30.730  1.00  0.00    -0.183 OA
HETATM   29  O3  UNL     1      16.951  17.820  32.363  1.00  0.00    -0.183 OA
BRANCH  27  30
HETATM   30  N4  UNL     1      18.035  17.014  30.056  1.00  0.00    -0.288 N 
ATOM     31  H4  UNL     1      18.539  16.138  30.197  1.00  0.00     0.174 HD
BRANCH  30  32
HETATM   32  C16 UNL     1      17.382  17.320  28.791  1.00  0.00     0.195 C 
BRANCH  32  33
HETATM   33  C17 UNL     1      16.157  16.506  28.631  1.00  0.00     0.259 C 
HETATM   34  O4  UNL     1      16.232  15.266  28.797  1.00  0.00    -0.269 OA
HETATM   35  N5  UNL     1      14.921  17.072  28.307  1.00  0.00    -0.275 N 
ATOM     36  H5  UNL     1      14.813  18.077  28.171  1.00  0.00     0.189 HD
BRANCH  35  37
HETATM   37  N6  UNL     1      13.812  16.172  28.176  1.00  0.00    -0.343 N 
ATOM     38  H62 UNL     1      13.694  15.394  28.825  1.00  0.00     0.176 HD
ATOM     39  H61 UNL     1      13.162  16.352  27.411  1.00  0.00     0.176 HD
ENDBRANCH  35  37
ENDBRANCH  32  33
BRANCH  32  40
HETATM   40  C18 UNL     1      18.398  17.136  27.699  1.00  0.00    -0.021 C 
HETATM   41  C19 UNL     1      19.132  18.470  27.539  1.00  0.00     0.017 C 
HETATM   42  C20 UNL     1      19.456  16.121  28.069  1.00  0.00     0.017 C 
HETATM   43  C21 UNL     1      17.803  16.858  26.344  1.00  0.00     0.017 C 
ENDBRANCH  32  40
ENDBRANCH  30  32
ENDBRANCH  27  30
ENDBRANCH  25  27
ENDBRANCH   1  25
TORSDOF 14
ENDMDL
MODEL 4
REMARK VINA RESULT: -6.463685076      3.052      4.729
REMARK  14 active torsions:
REMARK  status: ('A' for Active; 'I' for Inactive)
REMARK    1  A    between atoms: C9_9  and  N1_10 
REMARK       I    between atoms: N1_10  and  C10_12 
REMARK    2  A    between atoms: C10_12  and  C11_14 
REMARK    3  A    between atoms: C11_14  and  C12_15 
REMARK    4  A    between atoms: C11_14  and  N3_23 
REMARK    5  A    between atoms: C12_15  and  C13_16 
REMARK    6  A    between atoms: C13_16  and  C14_17 
REMARK    7  A    between atoms: C14_17  and  C15_18 
REMARK    8  A    between atoms: C15_18  and  N2_19 
REMARK    9  A    between atoms: N3_23  and  S1_25 
REMARK   10  A    between atoms: S1_25  and  N4_28 
REMARK   11  A    between atoms: N4_28  and  C16_30 
REMARK   12  A    between atoms: C16_30  and  C17_31 
REMARK   13  A    between atoms: C16_30  and  C18_38 
REMARK       I    between atoms: C17_31  and  N5_33 
REMARK   14  A    between atoms: N5_33  and  N6_35 
ROOT
HETATM    1  C11 UNL     1      19.300  19.581  28.491  1.00  0.00     0.186 C 
ENDROOT
BRANCH   1   2
HETATM    2  C10 UNL     1      20.689  19.149  28.907  1.00  0.00     0.241 C 
HETATM    3  N1  UNL     1      21.252  18.050  28.203  1.00  0.00    -0.350 N 
ATOM      4  H1  UNL     1      20.707  17.610  27.462  1.00  0.00     0.163 HD
HETATM    5  O1  UNL     1      21.293  19.735  29.821  1.00  0.00    -0.271 OA
BRANCH   3   6
HETATM    6  C9  UNL     1      22.572  17.532  28.499  1.00  0.00     0.034 C 
HETATM    7  C8  UNL     1      23.121  16.870  27.244  1.00  0.00     0.036 C 
HETATM    8  C7  UNL     1      24.463  16.245  27.460  1.00  0.00    -0.008 C 
HETATM    9  C2  UNL     1      25.410  17.335  27.906  1.00  0.00    -0.010 C 
HETATM   10  C6  UNL     1      24.350  15.202  28.526  1.00  0.00     0.010 C 
HETATM   11  C1  UNL     1      26.829  16.871  28.056  1.00  0.00     0.011 C 
HETATM   12  C3  UNL     1      24.880  17.924  29.179  1.00  0.00    -0.008 C 
HETATM   13  C4  UNL     1      24.726  16.912  30.268  1.00  0.00     0.010 C 
HETATM   14  C23 UNL     1      23.544  18.585  28.921  1.00  0.00     0.036 C 
HETATM   15  C5  UNL     1      23.797  15.813  29.782  1.00  0.00    -0.012 C 
HETATM   16  C22 UNL     1      22.440  16.455  29.547  1.00  0.00     0.035 C 
ENDBRANCH   3   6
ENDBRANCH   1   2
BRANCH   1  17
HETATM   17  C12 UNL     1      19.513  20.855  27.715  1.00  0.00     0.035 C 
BRANCH  17  18
HETATM   18  C13 UNL     1      19.084  22.062  28.474  1.00  0.00     0.004 C 
BRANCH  18  19
HETATM   19  C14 UNL     1      20.300  22.827  28.950  1.00  0.00     0.027 C 
BRANCH  19  20
HETATM   20  C15 UNL     1      20.200  23.156  30.436  1.00  0.00     0.229 C 
BRANCH  20  21
HETATM   21  N2  UNL     1      21.048  22.272  31.201  1.00  0.00    -0.079 N 
ATOM     22  H23 UNL     1      20.689  21.317  31.212  1.00  0.00     0.274 HD
ATOM     23  H22 UNL     1      21.935  22.093  30.730  1.00  0.00     0.274 HD
ATOM     24  H21 UNL     1      21.183  22.640  32.142  1.00  0.00     0.274 HD
ENDBRANCH  20  21
ENDBRANCH  19  20
ENDBRANCH  18  19
ENDBRANCH  17  18
ENDBRANCH   1  17
BRANCH   1  25
HETATM   25  N3  UNL     1      18.576  19.821  29.705  1.00  0.00    -0.289 N 
ATOM     26  H3  UNL     1      18.408  20.751  30.088  1.00  0.00     0.174 HD
BRANCH  25  27
HETATM   27  S1  UNL     1      18.018  18.371  30.448  1.00  0.00     0.316 S 
HETATM   28  O2  UNL     1      17.430  17.475  29.361  1.00  0.00    -0.183 OA
HETATM   29  O3  UNL     1      16.845  18.750  31.307  1.00  0.00    -0.183 OA
BRANCH  27  30
HETATM   30  N4  UNL     1      19.265  17.614  31.271  1.00  0.00    -0.288 N 
ATOM     31  H4  UNL     1      19.876  16.939  30.810  1.00  0.00     0.174 HD
BRANCH  30  32
HETATM   32  C16 UNL     1      19.438  17.963  32.673  1.00  0.00     0.195 C 
BRANCH  32  33
HETATM   33  C17 UNL     1      20.545  18.933  32.832  1.00  0.00     0.259 C 
HETATM   34  O4  UNL     1      20.313  20.022  33.407  1.00  0.00    -0.269 OA
HETATM   35  N5  UNL     1      21.838  18.673  32.369  1.00  0.00    -0.275 N 
ATOM     36  H5  UNL     1      22.072  17.796  31.902  1.00  0.00     0.189 HD
BRANCH  35  37
HETATM   37  N6  UNL     1      22.819  19.697  32.580  1.00  0.00    -0.343 N 
ATOM     38  H62 UNL     1      23.587  19.825  31.922  1.00  0.00     0.176 HD
ATOM     39  H61 UNL     1      22.706  20.277  33.411  1.00  0.00     0.176 HD
ENDBRANCH  35  37
ENDBRANCH  32  33
BRANCH  32  40
HETATM   40  C18 UNL     1      19.617  16.683  33.442  1.00  0.00    -0.021 C 
HETATM   41  C19 UNL     1      18.221  16.203  33.846  1.00  0.00     0.017 C 
HETATM   42  C20 UNL     1      20.204  15.583  32.587  1.00  0.00     0.017 C 
HETATM   43  C21 UNL     1      20.362  16.843  34.741  1.00  0.00     0.017 C 
ENDBRANCH  32  40
ENDBRANCH  30  32
ENDBRANCH  27  30
ENDBRANCH  25  27
ENDBRANCH   1  25
TORSDOF 14
ENDMDL
MODEL 5
REMARK VINA RESULT: -6.410590529      2.965      5.351
REMARK  14 active torsions:
REMARK  status: ('A' for Active; 'I' for Inactive)
REMARK    1  A    between atoms: C9_9  and  N1_10 
REMARK       I    between atoms: N1_10  and  C10_12 
REMARK    2  A    between atoms: C10_12  and  C11_14 
REMARK    3  A    between atoms: C11_14  and  C12_15 
REMARK    4  A    between atoms: C11_14  and  N3_23 
REMARK    5  A    between atoms: C12_15  and  C13_16 
REMARK    6  A    between atoms: C13_16  and  C14_17 
REMARK    7  A    between atoms: C14_17  and  C15_18 
REMARK    8  A    between atoms: C15_18  and  N2_19 
REMARK    9  A    between atoms: N3_23  and  S1_25 
REMARK   10  A    between atoms: S1_25  and  N4_28 
REMARK   11  A    between atoms: N4_28  and  C16_30 
REMARK   12  A    between atoms: C16_30  and  C17_31 
REMARK   13  A    between atoms: C16_30  and  C18_38 
REMARK       I    between atoms: C17_31  and  N5_33 
REMARK   14  A    between atoms: N5_33  and  N6_35 
ROOT
HETATM    1  C11 UNL     1      21.332  20.115  33.323  1.00  0.00     0.186 C 
ENDROOT
BRANCH   1   2
HETATM    2  C10 UNL     1      22.411  19.431  32.513  1.00  0.00     0.241 C 
HETATM    3  N1  UNL     1      21.976  18.549  31.487  1.00  0.00    -0.350 N 
ATOM      4  H1  UNL     1      20.975  18.419  31.343  1.00  0.00     0.163 HD
HETATM    5  O1  UNL     1      23.614  19.639  32.747  1.00  0.00    -0.271 OA
BRANCH   3   6
HETATM    6  C9  UNL     1      22.902  17.829  30.637  1.00  0.00     0.034 C 
HETATM    7  C8  UNL     1      23.049  18.593  29.330  1.00  0.00     0.036 C 
HETATM    8  C7  UNL     1      23.942  17.898  28.351  1.00  0.00    -0.008 C 
HETATM    9  C2  UNL     1      25.300  17.744  28.998  1.00  0.00    -0.010 C 
HETATM   10  C6  UNL     1      23.372  16.550  28.041  1.00  0.00     0.010 C 
HETATM   11  C1  UNL     1      26.334  17.157  28.084  1.00  0.00     0.011 C 
HETATM   12  C3  UNL     1      25.135  16.931  30.247  1.00  0.00    -0.008 C 
HETATM   13  C4  UNL     1      24.543  15.584  29.989  1.00  0.00     0.010 C 
HETATM   14  C23 UNL     1      24.263  17.678  31.233  1.00  0.00     0.036 C 
HETATM   15  C5  UNL     1      23.196  15.766  29.311  1.00  0.00    -0.012 C 
HETATM   16  C22 UNL     1      22.297  16.488  30.300  1.00  0.00     0.035 C 
ENDBRANCH   3   6
ENDBRANCH   1   2
BRANCH   1  17
HETATM   17  C12 UNL     1      21.427  19.492  34.692  1.00  0.00     0.035 C 
BRANCH  17  18
HETATM   18  C13 UNL     1      20.845  18.123  34.734  1.00  0.00     0.004 C 
BRANCH  18  19
HETATM   19  C14 UNL     1      21.943  17.103  34.949  1.00  0.00     0.027 C 
BRANCH  19  20
HETATM   20  C15 UNL     1      23.110  17.702  35.728  1.00  0.00     0.229 C 
BRANCH  20  21
HETATM   21  N2  UNL     1      24.341  17.531  34.992  1.00  0.00    -0.079 N 
ATOM     22  H23 UNL     1      24.942  16.824  35.414  1.00  0.00     0.274 HD
ATOM     23  H22 UNL     1      24.186  17.078  34.091  1.00  0.00     0.274 HD
ATOM     24  H21 UNL     1      24.818  18.426  34.891  1.00  0.00     0.274 HD
ENDBRANCH  20  21
ENDBRANCH  19  20
ENDBRANCH  18  19
ENDBRANCH  17  18
ENDBRANCH   1  17
BRANCH   1  25
HETATM   25  N3  UNL     1      20.089  19.793  32.685  1.00  0.00    -0.289 N 
ATOM     26  H3  UNL     1      19.532  18.971  32.916  1.00  0.00     0.174 HD
BRANCH  25  27
HETATM   27  S1  UNL     1      19.636  20.944  31.487  1.00  0.00     0.316 S 
HETATM   28  O2  UNL     1      20.910  21.507  30.862  1.00  0.00    -0.183 OA
HETATM   29  O3  UNL     1      19.022  22.106  32.216  1.00  0.00    -0.183 OA
BRANCH  27  30
HETATM   30  N4  UNL     1      18.639  20.239  30.340  1.00  0.00    -0.288 N 
ATOM     31  H4  UNL     1      17.637  20.128  30.500  1.00  0.00     0.174 HD
BRANCH  30  32
HETATM   32  C16 UNL     1      19.267  19.791  29.106  1.00  0.00     0.195 C 
BRANCH  32  33
HETATM   33  C17 UNL     1      19.008  20.756  28.014  1.00  0.00     0.259 C 
HETATM   34  O4  UNL     1      18.360  21.797  28.272  1.00  0.00    -0.269 OA
HETATM   35  N5  UNL     1      19.464  20.548  26.710  1.00  0.00    -0.275 N 
ATOM     36  H5  UNL     1      20.001  19.718  26.458  1.00  0.00     0.189 HD
BRANCH  35  37
HETATM   37  N6  UNL     1      19.142  21.557  25.743  1.00  0.00    -0.343 N 
ATOM     38  H62 UNL     1      18.815  22.476  26.040  1.00  0.00     0.176 HD
ATOM     39  H61 UNL     1      19.256  21.306  24.761  1.00  0.00     0.176 HD
ENDBRANCH  35  37
ENDBRANCH  32  33
BRANCH  32  40
HETATM   40  C18 UNL     1      18.783  18.394  28.830  1.00  0.00    -0.021 C 
HETATM   41  C19 UNL     1      18.857  17.625  30.151  1.00  0.00     0.017 C 
HETATM   42  C20 UNL     1      17.329  18.367  28.414  1.00  0.00     0.017 C 
HETATM   43  C21 UNL     1      19.654  17.616  27.879  1.00  0.00     0.017 C 
ENDBRANCH  32  40
ENDBRANCH  30  32
ENDBRANCH  27  30
ENDBRANCH  25  27
ENDBRANCH   1  25
TORSDOF 14
ENDMDL
