MODEL 1
REMARK VINA RESULT: -7.164986119      0.000      0.000
REMARK  13 active torsions:
REMARK  status: ('A' for Active; 'I' for Inactive)
REMARK    1  A    between atoms: C2_2  and  C3_3 
REMARK    2  A    between atoms: C5_7  and  C6_8 
REMARK    3  A    between atoms: C6_8  and  C7_9 
REMARK    4  A    between atoms: C7_9  and  C8_10 
REMARK    5  A    between atoms: C8_10  and  C9_11 
REMARK    6  A    between atoms: C9_11  and  C10_12 
REMARK    7  A    between atoms: C12_18  and  C13_19 
REMARK    8  A    between atoms: C13_19  and  C14_20 
REMARK    9  A    between atoms: C17_27  and  O2_28 
REMARK   10  A    between atoms: C18_32  and  C19_33 
REMARK   11  A    between atoms: C19_33  and  C20_34 
REMARK   12  A    between atoms: C20_34  and  C21_35 
REMARK   13  A    between atoms: C21_35  and  N6_36 
ROOT
HETATM    1  C3  UNL     1      20.983  18.559  32.751  1.00  0.00     0.053 C 
HETATM    2  N1  UNL     1      21.800  18.121  31.891  1.00  0.00    -0.389 N 
ATOM      3  H1  UNL     1      22.142  17.181  32.096  1.00  0.00     0.159 HD
HETATM    4  C4  UNL     1      22.335  18.668  30.703  1.00  0.00     0.133 C 
HETATM    5  C5  UNL     1      21.604  18.072  29.493  1.00  0.00     0.095 C 
HETATM    6  C11 UNL     1      20.771  16.924  29.943  1.00  0.00     0.224 C 
HETATM    7  O1  UNL     1      21.381  15.819  29.908  1.00  0.00    -0.273 OA
HETATM    8  N2  UNL     1      19.456  16.958  30.377  1.00  0.00    -0.348 N 
ATOM      9  H2  UNL     1      19.301  16.421  31.230  1.00  0.00     0.163 HD
HETATM   10  C12 UNL     1      18.276  17.582  29.886  1.00  0.00     0.164 C 
HETATM   11  C17 UNL     1      17.938  18.920  30.294  1.00  0.00     0.135 C 
HETATM   12  N5  UNL     1      18.321  19.769  31.312  1.00  0.00    -0.361 N 
ATOM     13  H5  UNL     1      17.571  19.955  31.978  1.00  0.00     0.162 HD
HETATM   14  C18 UNL     1      19.552  20.454  31.643  1.00  0.00     0.159 C 
HETATM   15  C23 UNL     1      20.319  19.866  32.758  1.00  0.00     0.193 C 
HETATM   16  O3  UNL     1      20.481  20.476  33.883  1.00  0.00    -0.289 OA
ENDROOT
BRANCH  10  17
HETATM   17  C13 UNL     1      17.126  16.635  30.154  1.00  0.00     0.092 C 
BRANCH  17  18
HETATM   18  C14 UNL     1      16.350  16.210  28.991  1.00  0.00     0.028 A 
HETATM   19  C15 UNL     1      16.395  14.988  28.365  1.00  0.00     0.114 A 
HETATM   20  N3  UNL     1      15.489  14.965  27.347  1.00  0.00    -0.360 N 
HETATM   21  C16 UNL     1      14.908  16.173  27.369  1.00  0.00     0.180 A 
ATOM     22  H3  UNL     1      15.296  14.195  26.706  1.00  0.00     0.166 HD
HETATM   23  N4  UNL     1      15.418  16.937  28.358  1.00  0.00    -0.354 N 
ATOM     24  H4  UNL     1      15.144  17.893  28.583  1.00  0.00     0.166 HD
ENDBRANCH  17  18
ENDBRANCH  10  17
BRANCH  11  25
HETATM   25  O2  UNL     1      17.049  19.418  29.474  1.00  0.00    -0.348 OA
ATOM     26  H2  UNL     1      16.186  19.095  29.704  1.00  0.00     0.219 HD
ENDBRANCH  11  25
BRANCH   5  27
HETATM   27  C6  UNL     1      22.716  17.599  28.517  1.00  0.00     0.015 C 
BRANCH  27  28
HETATM   28  C7  UNL     1      23.944  18.384  28.697  1.00  0.00     0.001 C 
BRANCH  28  29
HETATM   29  C8  UNL     1      25.192  17.694  28.324  1.00  0.00     0.001 C 
BRANCH  29  30
HETATM   30  C9  UNL     1      26.031  16.979  29.284  1.00  0.00     0.011 C 
BRANCH  30  31
HETATM   31  C10 UNL     1      25.727  17.001  30.742  1.00  0.00     0.086 C 
HETATM   32  S1  UNL     1      24.766  15.456  31.152  1.00  0.00    -0.098 SA
ENDBRANCH  30  31
ENDBRANCH  29  30
ENDBRANCH  28  29
ENDBRANCH  27  28
ENDBRANCH   5  27
BRANCH  14  33
HETATM   33  C19 UNL     1      19.292  21.919  31.947  1.00  0.00     0.035 C 
BRANCH  33  34
HETATM   34  C20 UNL     1      19.936  22.898  31.047  1.00  0.00     0.022 C 
BRANCH  34  35
HETATM   35  C21 UNL     1      20.520  22.155  29.825  1.00  0.00     0.122 C 
BRANCH  35  36
HETATM   36  N6  UNL     1      20.005  22.727  28.623  1.00  0.00    -0.367 N 
HETATM   37  C22 UNL     1      19.481  22.038  27.666  1.00  0.00     0.196 C 
HETATM   38  N7  UNL     1      18.986  22.670  26.497  1.00  0.00    -0.067 NA
HETATM   39  N8  UNL     1      19.371  20.610  27.735  1.00  0.00    -0.067 NA
ATOM     40  H6  UNL     1      20.053  23.740  28.514  1.00  0.00     0.161 HD
ENDBRANCH  35  36
ENDBRANCH  34  35
ENDBRANCH  33  34
ENDBRANCH  14  33
BRANCH   1  41
HETATM   41  C2  UNL     1      20.686  17.608  33.895  1.00  0.00     0.056 C 
HETATM   42  C1  UNL     1      19.380  16.908  33.693  1.00  0.00     0.011 C 
ENDBRANCH   1  41
TORSDOF 13
ENDMDL
MODEL 2
REMARK VINA RESULT: -7.148295370      3.449      6.233
REMARK  13 active torsions:
REMARK  status: ('A' for Active; 'I' for Inactive)
REMARK    1  A    between atoms: C2_2  and  C3_3 
REMARK    2  A    between atoms: C5_7  and  C6_8 
REMARK    3  A    between atoms: C6_8  and  C7_9 
REMARK    4  A    between atoms: C7_9  and  C8_10 
REMARK    5  A    between atoms: C8_10  and  C9_11 
REMARK    6  A    between atoms: C9_11  and  C10_12 
REMARK    7  A    between atoms: C12_18  and  C13_19 
REMARK    8  A    between atoms: C13_19  and  C14_20 
REMARK    9  A    between atoms: C17_27  and  O2_28 
REMARK   10  A    between atoms: C18_32  and  C19_33 
REMARK   11  A    between atoms: C19_33  and  C20_34 
REMARK   12  A    between atoms: C20_34  and  C21_35 
REMARK   13  A    between atoms: C21_35  and  N6_36 
ROOT
HETATM    1  C3  UNL     1      20.550  16.411  29.207  1.00  0.00     0.053 C 
HETATM    2  N1  UNL     1      20.680  17.506  28.588  1.00  0.00    -0.389 N 
ATOM      3  H1  UNL     1      21.233  17.427  27.734  1.00  0.00     0.159 HD
HETATM    4  C4  UNL     1      20.214  18.816  28.837  1.00  0.00     0.133 C 
HETATM    5  C5  UNL     1      18.995  19.102  27.950  1.00  0.00     0.095 C 
HETATM    6  C11 UNL     1      18.871  18.024  26.931  1.00  0.00     0.224 C 
HETATM    7  O1  UNL     1      19.498  18.270  25.863  1.00  0.00    -0.273 OA
HETATM    8  N2  UNL     1      18.168  16.836  27.045  1.00  0.00    -0.348 N 
ATOM      9  H2  UNL     1      18.699  16.024  26.731  1.00  0.00     0.163 HD
HETATM   10  C12 UNL     1      16.864  16.507  27.506  1.00  0.00     0.164 C 
HETATM   11  C17 UNL     1      16.638  16.213  28.897  1.00  0.00     0.135 C 
HETATM   12  N5  UNL     1      17.428  15.876  29.977  1.00  0.00    -0.361 N 
ATOM     13  H5  UNL     1      17.268  14.924  30.306  1.00  0.00     0.162 HD
HETATM   14  C18 UNL     1      18.435  16.576  30.746  1.00  0.00     0.159 C 
HETATM   15  C23 UNL     1      19.829  16.184  30.463  1.00  0.00     0.193 C 
HETATM   16  O3  UNL     1      20.567  15.581  31.334  1.00  0.00    -0.289 OA
ENDROOT
BRANCH  10  17
HETATM   17  C13 UNL     1      16.351  15.383  26.632  1.00  0.00     0.092 C 
BRANCH  17  18
HETATM   18  C14 UNL     1      15.299  15.730  25.679  1.00  0.00     0.028 A 
HETATM   19  C15 UNL     1      14.130  16.403  25.943  1.00  0.00     0.114 A 
HETATM   20  N3  UNL     1      13.432  16.573  24.785  1.00  0.00    -0.360 N 
HETATM   21  C16 UNL     1      14.186  16.001  23.836  1.00  0.00     0.180 A 
ATOM     22  H3  UNL     1      12.530  17.035  24.667  1.00  0.00     0.166 HD
HETATM   23  N4  UNL     1      15.318  15.487  24.361  1.00  0.00    -0.354 N 
ATOM     24  H4  UNL     1      16.054  15.003  23.849  1.00  0.00     0.166 HD
ENDBRANCH  17  18
ENDBRANCH  10  17
BRANCH  11  25
HETATM   25  O2  UNL     1      15.359  16.296  29.162  1.00  0.00    -0.348 OA
ATOM     26  H2  UNL     1      15.117  15.618  29.781  1.00  0.00     0.219 HD
ENDBRANCH  11  25
BRANCH   5  27
HETATM   27  C6  UNL     1      19.276  20.471  27.274  1.00  0.00     0.015 C 
BRANCH  27  28
HETATM   28  C7  UNL     1      18.912  21.583  28.162  1.00  0.00     0.001 C 
BRANCH  28  29
HETATM   29  C8  UNL     1      20.003  22.523  28.474  1.00  0.00     0.001 C 
BRANCH  29  30
HETATM   30  C9  UNL     1      20.788  22.461  29.706  1.00  0.00     0.011 C 
BRANCH  30  31
HETATM   31  C10 UNL     1      20.355  23.183  30.935  1.00  0.00     0.086 C 
HETATM   32  S1  UNL     1      19.856  21.911  32.203  1.00  0.00    -0.098 SA
ENDBRANCH  30  31
ENDBRANCH  29  30
ENDBRANCH  28  29
ENDBRANCH  27  28
ENDBRANCH   5  27
BRANCH  14  33
HETATM   33  C19 UNL     1      18.177  16.431  32.235  1.00  0.00     0.035 C 
BRANCH  33  34
HETATM   34  C20 UNL     1      16.776  16.596  32.675  1.00  0.00     0.022 C 
BRANCH  34  35
HETATM   35  C21 UNL     1      16.503  15.648  33.864  1.00  0.00     0.122 C 
BRANCH  35  36
HETATM   36  N6  UNL     1      16.085  14.373  33.376  1.00  0.00    -0.367 N 
HETATM   37  C22 UNL     1      16.235  13.269  34.027  1.00  0.00     0.196 C 
HETATM   38  N7  UNL     1      15.795  12.035  33.484  1.00  0.00    -0.067 NA
HETATM   39  N8  UNL     1      16.849  13.233  35.322  1.00  0.00    -0.067 NA
ATOM     40  H6  UNL     1      15.640  14.333  32.459  1.00  0.00     0.161 HD
ENDBRANCH  35  36
ENDBRANCH  34  35
ENDBRANCH  33  34
ENDBRANCH  14  33
BRANCH   1  41
HETATM   41  C2  UNL     1      21.237  15.224  28.560  1.00  0.00     0.056 C 
HETATM   42  C1  UNL     1      20.244  14.193  28.126  1.00  0.00     0.011 C 
ENDBRANCH   1  41
TORSDOF 13
ENDMDL
MODEL 3
REMARK VINA RESULT: -7.033522135      1.404      1.964
REMARK  13 active torsions:
REMARK  status: ('A' for Active; 'I' for Inactive)
REMARK    1  A    between atoms: C2_2  and  C3_3 
REMARK    2  A    between atoms: C5_7  and  C6_8 
REMARK    3  A    between atoms: C6_8  and  C7_9 
REMARK    4  A    between atoms: C7_9  and  C8_10 
REMARK    5  A    between atoms: C8_10  and  C9_11 
REMARK    6  A    between atoms: C9_11  and  C10_12 
REMARK    7  A    between atoms: C12_18  and  C13_19 
REMARK    8  A    between atoms: C13_19  and  C14_20 
REMARK    9  A    between atoms: C17_27  and  O2_28 
REMARK   10  A    between atoms: C18_32  and  C19_33 
REMARK   11  A    between atoms: C19_33  and  C20_34 
REMARK   12  A    between atoms: C20_34  and  C21_35 
REMARK   13  A    between atoms: C21_35  and  N6_36 
ROOT
HETATM    1  C3  UNL     1      20.936  18.705  32.889  1.00  0.00     0.053 C 
HETATM    2  N1  UNL     1      21.774  18.213  32.081  1.00  0.00    -0.389 N 
ATOM      3  H1  UNL     1      22.081  17.274  32.336  1.00  0.00     0.159 HD
HETATM    4  C4  UNL     1      22.373  18.699  30.897  1.00  0.00     0.133 C 
HETATM    5  C5  UNL     1      21.675  18.076  29.680  1.00  0.00     0.095 C 
HETATM    6  C11 UNL     1      20.793  16.969  30.138  1.00  0.00     0.224 C 
HETATM    7  O1  UNL     1      21.372  15.848  30.170  1.00  0.00    -0.273 OA
HETATM    8  N2  UNL     1      19.462  17.055  30.515  1.00  0.00    -0.348 N 
ATOM      9  H2  UNL     1      19.258  16.556  31.381  1.00  0.00     0.163 HD
HETATM   10  C12 UNL     1      18.321  17.690  29.953  1.00  0.00     0.164 C 
HETATM   11  C17 UNL     1      18.005  19.051  30.295  1.00  0.00     0.135 C 
HETATM   12  N5  UNL     1      18.369  19.929  31.296  1.00  0.00    -0.361 N 
ATOM     13  H5  UNL     1      17.598  20.160  31.923  1.00  0.00     0.162 HD
HETATM   14  C18 UNL     1      19.604  20.593  31.652  1.00  0.00     0.159 C 
HETATM   15  C23 UNL     1      20.309  20.029  32.819  1.00  0.00     0.193 C 
HETATM   16  O3  UNL     1      20.442  20.678  33.926  1.00  0.00    -0.289 OA
ENDROOT
BRANCH  10  17
HETATM   17  C13 UNL     1      17.135  16.784  30.209  1.00  0.00     0.092 C 
BRANCH  17  18
HETATM   18  C14 UNL     1      17.071  16.154  31.526  1.00  0.00     0.028 A 
HETATM   19  C15 UNL     1      16.732  16.752  32.715  1.00  0.00     0.114 A 
HETATM   20  N3  UNL     1      16.745  15.821  33.711  1.00  0.00    -0.360 N 
HETATM   21  C16 UNL     1      17.092  14.674  33.112  1.00  0.00     0.180 A 
ATOM     22  H3  UNL     1      16.536  15.967  34.699  1.00  0.00     0.166 HD
HETATM   23  N4  UNL     1      17.293  14.859  31.791  1.00  0.00    -0.354 N 
ATOM     24  H4  UNL     1      17.564  14.144  31.116  1.00  0.00     0.166 HD
ENDBRANCH  17  18
ENDBRANCH  10  17
BRANCH  11  25
HETATM   25  O2  UNL     1      17.164  19.540  29.421  1.00  0.00    -0.348 OA
ATOM     26  H2  UNL     1      17.207  19.034  28.618  1.00  0.00     0.219 HD
ENDBRANCH  11  25
BRANCH   5  27
HETATM   27  C6  UNL     1      22.811  17.537  28.770  1.00  0.00     0.015 C 
BRANCH  27  28
HETATM   28  C7  UNL     1      23.994  18.405  28.832  1.00  0.00     0.001 C 
BRANCH  28  29
HETATM   29  C8  UNL     1      25.259  17.777  28.411  1.00  0.00     0.001 C 
BRANCH  29  30
HETATM   30  C9  UNL     1      26.014  16.851  29.254  1.00  0.00     0.011 C 
BRANCH  30  31
HETATM   31  C10 UNL     1      25.927  16.913  30.740  1.00  0.00     0.086 C 
HETATM   32  S1  UNL     1      24.843  15.507  31.311  1.00  0.00    -0.098 SA
ENDBRANCH  30  31
ENDBRANCH  29  30
ENDBRANCH  28  29
ENDBRANCH  27  28
ENDBRANCH   5  27
BRANCH  14  33
HETATM   33  C19 UNL     1      19.373  22.075  31.889  1.00  0.00     0.035 C 
BRANCH  33  34
HETATM   34  C20 UNL     1      20.001  22.998  30.920  1.00  0.00     0.022 C 
BRANCH  34  35
HETATM   35  C21 UNL     1      20.495  22.192  29.700  1.00  0.00     0.122 C 
BRANCH  35  36
HETATM   36  N6  UNL     1      19.994  22.781  28.499  1.00  0.00    -0.367 N 
HETATM   37  C22 UNL     1      19.472  22.106  27.531  1.00  0.00     0.196 C 
HETATM   38  N7  UNL     1      18.992  22.754  26.364  1.00  0.00    -0.067 NA
HETATM   39  N8  UNL     1      19.351  20.678  27.584  1.00  0.00    -0.067 NA
ATOM     40  H6  UNL     1      20.051  23.794  28.402  1.00  0.00     0.161 HD
ENDBRANCH  35  36
ENDBRANCH  34  35
ENDBRANCH  33  34
ENDBRANCH  14  33
BRANCH   1  41
HETATM   41  C2  UNL     1      20.567  17.808  34.055  1.00  0.00     0.056 C 
HETATM   42  C1  UNL     1      20.855  16.373  33.747  1.00  0.00     0.011 C 
ENDBRANCH   1  41
TORSDOF 13
ENDMDL
MODEL 4
REMARK VINA RESULT: -7.018235066      2.054      2.769
REMARK  13 active torsions:
REMARK  status: ('A' for Active; 'I' for Inactive)
REMARK    1  A    between atoms: C2_2  and  C3_3 
REMARK    2  A    between atoms: C5_7  and  C6_8 
REMARK    3  A    between atoms: C6_8  and  C7_9 
REMARK    4  A    between atoms: C7_9  and  C8_10 
REMARK    5  A    between atoms: C8_10  and  C9_11 
REMARK    6  A    between atoms: C9_11  and  C10_12 
REMARK    7  A    between atoms: C12_18  and  C13_19 
REMARK    8  A    between atoms: C13_19  and  C14_20 
REMARK    9  A    between atoms: C17_27  and  O2_28 
REMARK   10  A    between atoms: C18_32  and  C19_33 
REMARK   11  A    between atoms: C19_33  and  C20_34 
REMARK   12  A    between atoms: C20_34  and  C21_35 
REMARK   13  A    between atoms: C21_35  and  N6_36 
ROOT
HETATM    1  C3  UNL     1      20.903  18.264  32.352  1.00  0.00     0.053 C 
HETATM    2  N1  UNL     1      21.643  17.888  31.398  1.00  0.00    -0.389 N 
ATOM      3  H1  UNL     1      21.995  16.936  31.507  1.00  0.00     0.159 HD
HETATM    4  C4  UNL     1      22.083  18.518  30.212  1.00  0.00     0.133 C 
HETATM    5  C5  UNL     1      21.250  18.012  29.027  1.00  0.00     0.095 C 
HETATM    6  C11 UNL     1      20.449  16.836  29.461  1.00  0.00     0.224 C 
HETATM    7  O1  UNL     1      21.047  15.735  29.297  1.00  0.00    -0.273 OA
HETATM    8  N2  UNL     1      19.175  16.839  30.004  1.00  0.00    -0.348 N 
ATOM      9  H2  UNL     1      19.087  16.243  30.827  1.00  0.00     0.163 HD
HETATM   10  C12 UNL     1      17.962  17.497  29.659  1.00  0.00     0.164 C 
HETATM   11  C17 UNL     1      17.669  18.803  30.187  1.00  0.00     0.135 C 
HETATM   12  N5  UNL     1      18.140  19.577  31.229  1.00  0.00    -0.361 N 
ATOM     13  H5  UNL     1      17.448  19.715  31.966  1.00  0.00     0.162 HD
HETATM   14  C18 UNL     1      19.398  20.235  31.505  1.00  0.00     0.159 C 
HETATM   15  C23 UNL     1      20.251  19.568  32.507  1.00  0.00     0.193 C 
HETATM   16  O3  UNL     1      20.510  20.096  33.656  1.00  0.00    -0.289 OA
ENDROOT
BRANCH  10  17
HETATM   17  C13 UNL     1      16.832  16.534  29.953  1.00  0.00     0.092 C 
BRANCH  17  18
HETATM   18  C14 UNL     1      15.993  16.153  28.819  1.00  0.00     0.028 A 
HETATM   19  C15 UNL     1      15.936  14.925  28.206  1.00  0.00     0.114 A 
HETATM   20  N3  UNL     1      14.999  14.955  27.217  1.00  0.00    -0.360 N 
HETATM   21  C16 UNL     1      14.500  16.199  27.244  1.00  0.00     0.180 A 
ATOM     22  H3  UNL     1      14.734  14.194  26.590  1.00  0.00     0.166 HD
HETATM   23  N4  UNL     1      15.092  16.935  28.208  1.00  0.00    -0.354 N 
ATOM     24  H4  UNL     1      14.890  17.909  28.432  1.00  0.00     0.166 HD
ENDBRANCH  17  18
ENDBRANCH  10  17
BRANCH  11  25
HETATM   25  O2  UNL     1      16.718  19.359  29.481  1.00  0.00    -0.348 OA
ATOM     26  H2  UNL     1      16.955  19.348  28.561  1.00  0.00     0.219 HD
ENDBRANCH  11  25
BRANCH   5  27
HETATM   27  C6  UNL     1      22.274  17.609  27.932  1.00  0.00     0.015 C 
BRANCH  27  28
HETATM   28  C7  UNL     1      21.636  17.543  26.610  1.00  0.00     0.001 C 
BRANCH  28  29
HETATM   29  C8  UNL     1      20.572  18.536  26.375  1.00  0.00     0.001 C 
BRANCH  29  30
HETATM   30  C9  UNL     1      19.227  18.178  25.927  1.00  0.00     0.011 C 
BRANCH  30  31
HETATM   31  C10 UNL     1      18.695  16.798  26.107  1.00  0.00     0.086 C 
HETATM   32  S1  UNL     1      17.446  16.484  24.758  1.00  0.00    -0.098 SA
ENDBRANCH  30  31
ENDBRANCH  29  30
ENDBRANCH  28  29
ENDBRANCH  27  28
ENDBRANCH   5  27
BRANCH  14  33
HETATM   33  C19 UNL     1      19.174  21.675  31.933  1.00  0.00     0.035 C 
BRANCH  33  34
HETATM   34  C20 UNL     1      19.875  22.709  31.143  1.00  0.00     0.022 C 
BRANCH  34  35
HETATM   35  C21 UNL     1      20.650  22.029  29.993  1.00  0.00     0.122 C 
BRANCH  35  36
HETATM   36  N6  UNL     1      20.338  22.670  28.757  1.00  0.00    -0.367 N 
HETATM   37  C22 UNL     1      19.449  22.238  27.926  1.00  0.00     0.196 C 
HETATM   38  N7  UNL     1      19.187  22.925  26.714  1.00  0.00    -0.067 NA
HETATM   39  N8  UNL     1      18.687  21.052  28.185  1.00  0.00    -0.067 NA
ATOM     40  H6  UNL     1      20.846  23.521  28.516  1.00  0.00     0.161 HD
ENDBRANCH  35  36
ENDBRANCH  34  35
ENDBRANCH  33  34
ENDBRANCH  14  33
BRANCH   1  41
HETATM   41  C2  UNL     1      20.696  17.234  33.446  1.00  0.00     0.056 C 
HETATM   42  C1  UNL     1      19.274  16.772  33.493  1.00  0.00     0.011 C 
ENDBRANCH   1  41
TORSDOF 13
ENDMDL
MODEL 5
REMARK VINA RESULT: -6.774126473      3.116      5.654
REMARK  13 active torsions:
REMARK  status: ('A' for Active; 'I' for Inactive)
REMARK    1  A    between atoms: C2_2  and  C3_3 
REMARK    2  A    between atoms: C5_7  and  C6_8 
REMARK    3  A    between atoms: C6_8  and  C7_9 
REMARK    4  A    between atoms: C7_9  and  C8_10 
REMARK    5  A    between atoms: C8_10  and  C9_11 
REMARK    6  A    between atoms: C9_11  and  C10_12 
REMARK    7  A    between atoms: C12_18  and  C13_19 
REMARK    8  A    between atoms: C13_19  and  C14_20 
REMARK    9  A    between atoms: C17_27  and  O2_28 
REMARK   10  A    between atoms: C18_32  and  C19_33 
REMARK   11  A    between atoms: C19_33  and  C20_34 
REMARK   12  A    between atoms: C20_34  and  C21_35 
REMARK   13  A    between atoms: C21_35  and  N6_36 
ROOT
HETATM    1  C3  UNL     1      21.243  16.448  28.701  1.00  0.00     0.053 C 
HETATM    2  N1  UNL     1      21.114  17.492  28.000  1.00  0.00    -0.389 N 
ATOM      3  H1  UNL     1      21.289  17.339  27.006  1.00  0.00     0.159 HD
HETATM    4  C4  UNL     1      20.775  18.828  28.312  1.00  0.00     0.133 C 
HETATM    5  C5  UNL     1      19.304  19.078  27.953  1.00  0.00     0.095 C 
HETATM    6  C11 UNL     1      18.798  17.934  27.148  1.00  0.00     0.224 C 
HETATM    7  O1  UNL     1      18.955  18.088  25.904  1.00  0.00    -0.273 OA
HETATM    8  N2  UNL     1      18.202  16.774  27.616  1.00  0.00    -0.348 N 
ATOM      9  H2  UNL     1      18.573  15.929  27.181  1.00  0.00     0.163 HD
HETATM   10  C12 UNL     1      17.185  16.511  28.574  1.00  0.00     0.164 C 
HETATM   11  C17 UNL     1      17.523  16.323  29.960  1.00  0.00     0.135 C 
HETATM   12  N5  UNL     1      18.675  16.045  30.667  1.00  0.00    -0.361 N 
ATOM     13  H5  UNL     1      18.662  15.122  31.103  1.00  0.00     0.162 HD
HETATM   14  C18 UNL     1      19.898  16.774  30.926  1.00  0.00     0.159 C 
HETATM   15  C23 UNL     1      21.073  16.328  30.152  1.00  0.00     0.193 C 
HETATM   16  O3  UNL     1      22.096  15.772  30.708  1.00  0.00    -0.289 OA
ENDROOT
BRANCH  10  17
HETATM   17  C13 UNL     1      16.377  15.340  28.057  1.00  0.00     0.092 C 
BRANCH  17  18
HETATM   18  C14 UNL     1      14.986  15.616  27.706  1.00  0.00     0.028 A 
HETATM   19  C15 UNL     1      14.443  15.668  26.445  1.00  0.00     0.114 A 
HETATM   20  N3  UNL     1      13.105  15.907  26.536  1.00  0.00    -0.360 N 
HETATM   21  C16 UNL     1      12.854  15.996  27.850  1.00  0.00     0.180 A 
ATOM     22  H3  UNL     1      12.437  15.999  25.770  1.00  0.00     0.166 HD
HETATM   23  N4  UNL     1      13.982  15.822  28.570  1.00  0.00    -0.354 N 
ATOM     24  H4  UNL     1      14.057  15.843  29.587  1.00  0.00     0.166 HD
ENDBRANCH  17  18
ENDBRANCH  10  17
BRANCH  11  25
HETATM   25  O2  UNL     1      16.450  16.455  30.696  1.00  0.00    -0.348 OA
ATOM     26  H2  UNL     1      16.491  15.853  31.430  1.00  0.00     0.219 HD
ENDBRANCH  11  25
BRANCH   5  27
HETATM   27  C6  UNL     1      19.290  20.389  27.120  1.00  0.00     0.015 C 
BRANCH  27  28
HETATM   28  C7  UNL     1      18.859  21.530  27.938  1.00  0.00     0.001 C 
BRANCH  28  29
HETATM   29  C8  UNL     1      19.944  22.389  28.443  1.00  0.00     0.001 C 
BRANCH  29  30
HETATM   30  C9  UNL     1      20.175  22.637  29.866  1.00  0.00     0.011 C 
BRANCH  30  31
HETATM   31  C10 UNL     1      20.830  21.616  30.731  1.00  0.00     0.086 C 
HETATM   32  S1  UNL     1      19.490  20.631  31.573  1.00  0.00    -0.098 SA
ENDBRANCH  30  31
ENDBRANCH  29  30
ENDBRANCH  28  29
ENDBRANCH  27  28
ENDBRANCH   5  27
BRANCH  14  33
HETATM   33  C19 UNL     1      20.245  16.741  32.405  1.00  0.00     0.035 C 
BRANCH  33  34
HETATM   34  C20 UNL     1      19.164  17.121  33.338  1.00  0.00     0.022 C 
BRANCH  34  35
HETATM   35  C21 UNL     1      18.931  15.968  34.340  1.00  0.00     0.122 C 
BRANCH  35  36
HETATM   36  N6  UNL     1      17.532  15.811  34.575  1.00  0.00    -0.367 N 
HETATM   37  C22 UNL     1      16.782  14.985  33.926  1.00  0.00     0.196 C 
HETATM   38  N7  UNL     1      15.397  14.878  34.210  1.00  0.00    -0.067 NA
HETATM   39  N8  UNL     1      17.306  14.139  32.894  1.00  0.00    -0.067 NA
ATOM     40  H6  UNL     1      17.099  16.386  35.298  1.00  0.00     0.161 HD
ENDBRANCH  35  36
ENDBRANCH  34  35
ENDBRANCH  33  34
ENDBRANCH  14  33
BRANCH   1  41
HETATM   41  C2  UNL     1      21.629  15.201  27.928  1.00  0.00     0.056 C 
HETATM   42  C1  UNL     1      20.548  14.169  27.989  1.00  0.00     0.011 C 
ENDBRANCH   1  41
TORSDOF 13
ENDMDL
