MODEL 1
REMARK VINA RESULT: -8.329547670      0.000      0.000
REMARK  12 active torsions:
REMARK  status: ('A' for Active; 'I' for Inactive)
REMARK       I    between atoms: C1_4  and  N3_6 
REMARK    1  A    between atoms: N3_6  and  C2_8 
REMARK    2  A    between atoms: C2_8  and  C3_9 
REMARK    3  A    between atoms: C3_9  and  C4_10 
REMARK    4  A    between atoms: C4_10  and  C5_11 
REMARK    5  A    between atoms: C5_11  and  O1_12 
REMARK    6  A    between atoms: O1_12  and  C6_13 
REMARK    7  A    between atoms: C6_13  and  C7_15 
REMARK    8  A    between atoms: C7_15  and  C8_16 
REMARK    9  A    between atoms: C7_15  and  N6_30 
REMARK   10  A    between atoms: C8_16  and  N4_17 
REMARK       I    between atoms: N4_17  and  C9_19 
REMARK       I    between atoms: C9_19  and  N5_21 
REMARK   11  A    between atoms: N5_21  and  C10_23 
REMARK       I    between atoms: N6_30  and  C17_32 
REMARK   12  A    between atoms: C17_32  and  C18_34 
ROOT
HETATM    1  C7  UNL     1      18.476  16.963  32.427  1.00  0.00     0.202 C 
ENDROOT
BRANCH   1   2
HETATM    2  C6  UNL     1      18.798  16.558  33.809  1.00  0.00     0.283 C 
HETATM    3  O2  UNL     1      19.779  17.190  34.353  1.00  0.00    -0.263 OA
BRANCH   2   4
HETATM    4  O1  UNL     1      18.152  15.586  34.539  1.00  0.00    -0.320 OA
BRANCH   4   5
HETATM    5  C5  UNL     1      16.782  15.744  34.835  1.00  0.00     0.178 C 
BRANCH   5   6
HETATM    6  C4  UNL     1      16.045  14.638  34.098  1.00  0.00     0.028 C 
BRANCH   6   7
HETATM    7  C3  UNL     1      16.789  13.329  34.253  1.00  0.00     0.022 C 
BRANCH   7   8
HETATM    8  C2  UNL     1      16.715  12.521  32.989  1.00  0.00     0.122 C 
BRANCH   8   9
HETATM    9  N3  UNL     1      15.567  11.616  33.051  1.00  0.00    -0.365 N 
HETATM   10  C1  UNL     1      15.617  10.311  32.514  1.00  0.00     0.181 C 
HETATM   11  N1  UNL     1      15.043  10.032  31.417  1.00  0.00    -0.374 N 
HETATM   12  N2  UNL     1      16.325   9.300  33.215  1.00  0.00    -0.064 NA
ATOM     13  H12 UNL     1      15.078   9.089  31.029  1.00  0.00     0.158 HD
ATOM     14  H11 UNL     1      14.534  10.759  30.914  1.00  0.00     0.158 HD
ATOM     15  H3  UNL     1      14.706  11.937  33.495  1.00  0.00     0.162 HD
ENDBRANCH   8   9
ENDBRANCH   7   8
ENDBRANCH   6   7
ENDBRANCH   5   6
ENDBRANCH   4   5
ENDBRANCH   2   4
ENDBRANCH   1   2
BRANCH   1  16
HETATM   16  C8  UNL     1      18.531  15.775  31.516  1.00  0.00     0.159 C 
BRANCH  16  17
HETATM   17  N4  UNL     1      17.265  15.466  30.939  1.00  0.00    -0.341 N 
HETATM   18  C9  UNL     1      16.938  15.958  29.635  1.00  0.00     0.316 C 
HETATM   19  O3  UNL     1      17.779  16.652  29.013  1.00  0.00    -0.247 OA
HETATM   20  N5  UNL     1      15.683  15.665  29.047  1.00  0.00    -0.338 N 
ATOM     21  H5  UNL     1      15.005  15.101  29.560  1.00  0.00     0.164 HD
ATOM     22  H4  UNL     1      16.594  14.896  31.455  1.00  0.00     0.164 HD
BRANCH  20  23
HETATM   23  C10 UNL     1      15.358  16.151  27.743  1.00  0.00     0.090 C 
HETATM   24  C11 UNL     1      14.561  17.467  27.827  1.00  0.00     0.030 C 
HETATM   25  C12 UNL     1      13.392  17.177  26.950  1.00  0.00    -0.012 C 
HETATM   26  C13 UNL     1      13.903  16.969  25.547  1.00  0.00     0.005 C 
HETATM   27  C16 UNL     1      13.098  15.720  27.352  1.00  0.00     0.011 C 
HETATM   28  C14 UNL     1      14.524  15.569  25.522  1.00  0.00     0.007 C 
HETATM   29  C15 UNL     1      14.492  15.190  26.962  1.00  0.00     0.009 C 
ENDBRANCH  20  23
ENDBRANCH  16  17
ENDBRANCH   1  16
BRANCH   1  30
HETATM   30  N6  UNL     1      19.385  17.988  31.951  1.00  0.00    -0.344 N 
HETATM   31  C17 UNL     1      18.875  19.171  31.361  1.00  0.00     0.252 C 
HETATM   32  O4  UNL     1      17.644  19.377  31.228  1.00  0.00    -0.271 OA
ATOM     33  H6  UNL     1      20.393  17.857  32.040  1.00  0.00     0.163 HD
BRANCH  31  34
HETATM   34  C18 UNL     1      19.831  20.197  30.886  1.00  0.00     0.314 C 
HETATM   35  C19 UNL     1      19.842  21.398  31.842  1.00  0.00     0.048 C 
HETATM   36  C20 UNL     1      20.232  22.534  30.923  1.00  0.00     0.038 C 
HETATM   37  C21 UNL     1      20.345  21.943  29.562  1.00  0.00     0.224 C 
HETATM   38  C22 UNL     1      19.840  22.831  28.453  1.00  0.00     0.036 C 
HETATM   39  N7  UNL     1      19.433  20.806  29.654  1.00  0.00     0.106 N 
HETATM   40  C23 UNL     1      19.485  22.133  27.201  1.00  0.00     0.004 C 
HETATM   41  C24 UNL     1      19.198  20.684  27.294  1.00  0.00     0.030 C 
HETATM   42  C25 UNL     1      19.758  19.994  28.490  1.00  0.00     0.274 C 
ENDBRANCH  31  34
ENDBRANCH   1  30
TORSDOF 12
ENDMDL
MODEL 2
REMARK VINA RESULT: -8.210120617      2.357      4.528
REMARK  12 active torsions:
REMARK  status: ('A' for Active; 'I' for Inactive)
REMARK       I    between atoms: C1_4  and  N3_6 
REMARK    1  A    between atoms: N3_6  and  C2_8 
REMARK    2  A    between atoms: C2_8  and  C3_9 
REMARK    3  A    between atoms: C3_9  and  C4_10 
REMARK    4  A    between atoms: C4_10  and  C5_11 
REMARK    5  A    between atoms: C5_11  and  O1_12 
REMARK    6  A    between atoms: O1_12  and  C6_13 
REMARK    7  A    between atoms: C6_13  and  C7_15 
REMARK    8  A    between atoms: C7_15  and  C8_16 
REMARK    9  A    between atoms: C7_15  and  N6_30 
REMARK   10  A    between atoms: C8_16  and  N4_17 
REMARK       I    between atoms: N4_17  and  C9_19 
REMARK       I    between atoms: C9_19  and  N5_21 
REMARK   11  A    between atoms: N5_21  and  C10_23 
REMARK       I    between atoms: N6_30  and  C17_32 
REMARK   12  A    between atoms: C17_32  and  C18_34 
ROOT
HETATM    1  C7  UNL     1      18.641  17.006  32.583  1.00  0.00     0.202 C 
ENDROOT
BRANCH   1   2
HETATM    2  C6  UNL     1      19.164  16.612  33.904  1.00  0.00     0.283 C 
HETATM    3  O2  UNL     1      18.282  16.191  34.743  1.00  0.00    -0.263 OA
BRANCH   2   4
HETATM    4  O1  UNL     1      20.482  16.658  34.300  1.00  0.00    -0.320 OA
BRANCH   4   5
HETATM    5  C5  UNL     1      20.947  17.779  35.017  1.00  0.00     0.178 C 
BRANCH   5   6
HETATM    6  C4  UNL     1      22.444  17.594  35.195  1.00  0.00     0.028 C 
BRANCH   6   7
HETATM    7  C3  UNL     1      23.186  18.762  34.581  1.00  0.00     0.022 C 
BRANCH   7   8
HETATM    8  C2  UNL     1      22.327  19.468  33.571  1.00  0.00     0.122 C 
BRANCH   8   9
HETATM    9  N3  UNL     1      23.012  19.497  32.279  1.00  0.00    -0.365 N 
HETATM   10  C1  UNL     1      23.292  18.317  31.556  1.00  0.00     0.181 C 
HETATM   11  N1  UNL     1      24.466  17.837  31.514  1.00  0.00    -0.374 N 
HETATM   12  N2  UNL     1      22.238  17.659  30.869  1.00  0.00    -0.064 NA
ATOM     13  H12 UNL     1      24.668  16.984  30.992  1.00  0.00     0.158 HD
ATOM     14  H11 UNL     1      25.223  18.310  32.008  1.00  0.00     0.158 HD
ATOM     15  H3  UNL     1      23.296  20.396  31.889  1.00  0.00     0.162 HD
ENDBRANCH   8   9
ENDBRANCH   7   8
ENDBRANCH   6   7
ENDBRANCH   5   6
ENDBRANCH   4   5
ENDBRANCH   2   4
ENDBRANCH   1   2
BRANCH   1  16
HETATM   16  C8  UNL     1      18.560  15.811  31.683  1.00  0.00     0.159 C 
BRANCH  16  17
HETATM   17  N4  UNL     1      17.256  15.617  31.143  1.00  0.00    -0.341 N 
HETATM   18  C9  UNL     1      16.973  16.026  29.801  1.00  0.00     0.316 C 
HETATM   19  O3  UNL     1      17.885  16.547  29.114  1.00  0.00    -0.247 OA
HETATM   20  N5  UNL     1      15.681  15.846  29.249  1.00  0.00    -0.338 N 
ATOM     21  H5  UNL     1      14.945  15.424  29.814  1.00  0.00     0.164 HD
ATOM     22  H4  UNL     1      16.525  15.188  31.712  1.00  0.00     0.164 HD
BRANCH  20  23
HETATM   23  C10 UNL     1      15.400  16.250  27.907  1.00  0.00     0.090 C 
HETATM   24  C11 UNL     1      14.579  17.553  27.883  1.00  0.00     0.030 C 
HETATM   25  C12 UNL     1      13.450  17.191  26.980  1.00  0.00    -0.012 C 
HETATM   26  C13 UNL     1      14.019  16.913  25.613  1.00  0.00     0.005 C 
HETATM   27  C16 UNL     1      13.164  15.755  27.455  1.00  0.00     0.011 C 
HETATM   28  C14 UNL     1      14.663  15.525  25.694  1.00  0.00     0.007 C 
HETATM   29  C15 UNL     1      14.581  15.229  27.151  1.00  0.00     0.009 C 
ENDBRANCH  20  23
ENDBRANCH  16  17
ENDBRANCH   1  16
BRANCH   1  30
HETATM   30  N6  UNL     1      19.469  18.026  31.969  1.00  0.00    -0.344 N 
HETATM   31  C17 UNL     1      18.877  19.209  31.458  1.00  0.00     0.252 C 
HETATM   32  O4  UNL     1      17.641  19.418  31.514  1.00  0.00    -0.271 OA
ATOM     33  H6  UNL     1      20.478  17.893  31.903  1.00  0.00     0.163 HD
BRANCH  31  34
HETATM   34  C18 UNL     1      19.752  20.229  30.837  1.00  0.00     0.314 C 
HETATM   35  C19 UNL     1      19.629  21.563  31.588  1.00  0.00     0.048 C 
HETATM   36  C20 UNL     1      19.942  22.570  30.505  1.00  0.00     0.038 C 
HETATM   37  C21 UNL     1      20.146  21.783  29.258  1.00  0.00     0.224 C 
HETATM   38  C22 UNL     1      19.596  22.434  28.014  1.00  0.00     0.036 C 
HETATM   39  N7  UNL     1      19.336  20.597  29.519  1.00  0.00     0.106 N 
HETATM   40  C23 UNL     1      19.339  21.516  26.886  1.00  0.00     0.004 C 
HETATM   41  C24 UNL     1      19.180  20.080  27.206  1.00  0.00     0.030 C 
HETATM   42  C25 UNL     1      19.764  19.644  28.504  1.00  0.00     0.274 C 
ENDBRANCH  31  34
ENDBRANCH   1  30
TORSDOF 12
ENDMDL
MODEL 3
REMARK VINA RESULT: -7.817533977      3.516      7.241
REMARK  12 active torsions:
REMARK  status: ('A' for Active; 'I' for Inactive)
REMARK       I    between atoms: C1_4  and  N3_6 
REMARK    1  A    between atoms: N3_6  and  C2_8 
REMARK    2  A    between atoms: C2_8  and  C3_9 
REMARK    3  A    between atoms: C3_9  and  C4_10 
REMARK    4  A    between atoms: C4_10  and  C5_11 
REMARK    5  A    between atoms: C5_11  and  O1_12 
REMARK    6  A    between atoms: O1_12  and  C6_13 
REMARK    7  A    between atoms: C6_13  and  C7_15 
REMARK    8  A    between atoms: C7_15  and  C8_16 
REMARK    9  A    between atoms: C7_15  and  N6_30 
REMARK   10  A    between atoms: C8_16  and  N4_17 
REMARK       I    between atoms: N4_17  and  C9_19 
REMARK       I    between atoms: C9_19  and  N5_21 
REMARK   11  A    between atoms: N5_21  and  C10_23 
REMARK       I    between atoms: N6_30  and  C17_32 
REMARK   12  A    between atoms: C17_32  and  C18_34 
ROOT
HETATM    1  C7  UNL     1      19.312  16.172  27.511  1.00  0.00     0.202 C 
ENDROOT
BRANCH   1   2
HETATM    2  C6  UNL     1      18.190  15.284  27.153  1.00  0.00     0.283 C 
HETATM    3  O2  UNL     1      17.496  14.846  28.145  1.00  0.00    -0.263 OA
BRANCH   2   4
HETATM    4  O1  UNL     1      17.838  14.898  25.879  1.00  0.00    -0.320 OA
BRANCH   4   5
HETATM    5  C5  UNL     1      18.016  15.802  24.812  1.00  0.00     0.178 C 
BRANCH   5   6
HETATM    6  C4  UNL     1      16.826  16.746  24.834  1.00  0.00     0.028 C 
BRANCH   6   7
HETATM    7  C3  UNL     1      15.592  16.034  24.322  1.00  0.00     0.022 C 
BRANCH   7   8
HETATM    8  C2  UNL     1      14.461  16.157  25.303  1.00  0.00     0.122 C 
BRANCH   8   9
HETATM    9  N3  UNL     1      14.670  15.227  26.413  1.00  0.00    -0.365 N 
HETATM   10  C1  UNL     1      14.141  15.470  27.699  1.00  0.00     0.181 C 
HETATM   11  N1  UNL     1      14.884  15.864  28.649  1.00  0.00    -0.374 N 
HETATM   12  N2  UNL     1      12.754  15.273  27.927  1.00  0.00    -0.064 NA
ATOM     13  H12 UNL     1      14.502  16.040  29.579  1.00  0.00     0.158 HD
ATOM     14  H11 UNL     1      15.881  16.005  28.486  1.00  0.00     0.158 HD
ATOM     15  H3  UNL     1      15.213  14.378  26.253  1.00  0.00     0.162 HD
ENDBRANCH   8   9
ENDBRANCH   7   8
ENDBRANCH   6   7
ENDBRANCH   5   6
ENDBRANCH   4   5
ENDBRANCH   2   4
ENDBRANCH   1   2
BRANCH   1  16
HETATM   16  C8  UNL     1      20.025  15.640  28.717  1.00  0.00     0.159 C 
BRANCH  16  17
HETATM   17  N4  UNL     1      19.674  16.331  29.912  1.00  0.00    -0.341 N 
HETATM   18  C9  UNL     1      20.637  16.471  30.962  1.00  0.00     0.316 C 
HETATM   19  O3  UNL     1      21.784  15.984  30.811  1.00  0.00    -0.247 OA
HETATM   20  N5  UNL     1      20.305  17.151  32.160  1.00  0.00    -0.338 N 
ATOM     21  H5  UNL     1      19.370  17.542  32.276  1.00  0.00     0.164 HD
ATOM     22  H4  UNL     1      18.739  16.726  30.019  1.00  0.00     0.164 HD
BRANCH  20  23
HETATM   23  C10 UNL     1      21.268  17.294  33.207  1.00  0.00     0.090 C 
HETATM   24  C11 UNL     1      20.605  17.152  34.590  1.00  0.00     0.030 C 
HETATM   25  C12 UNL     1      21.094  18.371  35.294  1.00  0.00    -0.012 C 
HETATM   26  C13 UNL     1      22.591  18.263  35.425  1.00  0.00     0.005 C 
HETATM   27  C16 UNL     1      20.992  19.407  34.160  1.00  0.00     0.011 C 
HETATM   28  C14 UNL     1      23.164  18.588  34.041  1.00  0.00     0.007 C 
HETATM   29  C15 UNL     1      21.935  18.650  33.203  1.00  0.00     0.009 C 
ENDBRANCH  20  23
ENDBRANCH  16  17
ENDBRANCH   1  16
BRANCH   1  30
HETATM   30  N6  UNL     1      18.856  17.524  27.770  1.00  0.00    -0.344 N 
HETATM   31  C17 UNL     1      19.565  18.628  27.235  1.00  0.00     0.252 C 
HETATM   32  O4  UNL     1      20.596  18.485  26.531  1.00  0.00    -0.271 OA
ATOM     33  H6  UNL     1      18.023  17.681  28.337  1.00  0.00     0.163 HD
BRANCH  31  34
HETATM   34  C18 UNL     1      19.072  19.994  27.517  1.00  0.00     0.314 C 
HETATM   35  C19 UNL     1      19.256  20.892  26.286  1.00  0.00     0.048 C 
HETATM   36  C20 UNL     1      19.406  22.262  26.908  1.00  0.00     0.038 C 
HETATM   37  C21 UNL     1      19.366  22.051  28.381  1.00  0.00     0.224 C 
HETATM   38  C22 UNL     1      20.310  22.930  29.162  1.00  0.00     0.036 C 
HETATM   39  N7  UNL     1      19.853  20.681  28.499  1.00  0.00     0.106 N 
HETATM   40  C23 UNL     1      20.655  22.438  30.511  1.00  0.00     0.004 C 
HETATM   41  C24 UNL     1      20.463  20.995  30.773  1.00  0.00     0.030 C 
HETATM   42  C25 UNL     1      19.512  20.298  29.863  1.00  0.00     0.274 C 
ENDBRANCH  31  34
ENDBRANCH   1  30
TORSDOF 12
ENDMDL
MODEL 4
REMARK VINA RESULT: -7.779311855      3.351      5.087
REMARK  12 active torsions:
REMARK  status: ('A' for Active; 'I' for Inactive)
REMARK       I    between atoms: C1_4  and  N3_6 
REMARK    1  A    between atoms: N3_6  and  C2_8 
REMARK    2  A    between atoms: C2_8  and  C3_9 
REMARK    3  A    between atoms: C3_9  and  C4_10 
REMARK    4  A    between atoms: C4_10  and  C5_11 
REMARK    5  A    between atoms: C5_11  and  O1_12 
REMARK    6  A    between atoms: O1_12  and  C6_13 
REMARK    7  A    between atoms: C6_13  and  C7_15 
REMARK    8  A    between atoms: C7_15  and  C8_16 
REMARK    9  A    between atoms: C7_15  and  N6_30 
REMARK   10  A    between atoms: C8_16  and  N4_17 
REMARK       I    between atoms: N4_17  and  C9_19 
REMARK       I    between atoms: C9_19  and  N5_21 
REMARK   11  A    between atoms: N5_21  and  C10_23 
REMARK       I    between atoms: N6_30  and  C17_32 
REMARK   12  A    between atoms: C17_32  and  C18_34 
ROOT
HETATM    1  C7  UNL     1      18.917  17.230  32.543  1.00  0.00     0.202 C 
ENDROOT
BRANCH   1   2
HETATM    2  C6  UNL     1      19.489  16.890  33.859  1.00  0.00     0.283 C 
HETATM    3  O2  UNL     1      19.160  15.734  34.320  1.00  0.00    -0.263 OA
BRANCH   2   4
HETATM    4  O1  UNL     1      20.321  17.688  34.611  1.00  0.00    -0.320 OA
BRANCH   4   5
HETATM    5  C5  UNL     1      21.648  17.272  34.845  1.00  0.00     0.178 C 
BRANCH   5   6
HETATM    6  C4  UNL     1      22.492  18.532  34.936  1.00  0.00     0.028 C 
BRANCH   6   7
HETATM    7  C3  UNL     1      23.926  18.171  35.261  1.00  0.00     0.022 C 
BRANCH   7   8
HETATM    8  C2  UNL     1      23.980  17.064  36.275  1.00  0.00     0.122 C 
BRANCH   8   9
HETATM    9  N3  UNL     1      25.079  17.308  37.210  1.00  0.00    -0.365 N 
HETATM   10  C1  UNL     1      25.739  16.252  37.876  1.00  0.00     0.181 C 
HETATM   11  N1  UNL     1      25.517  16.011  39.102  1.00  0.00    -0.374 N 
HETATM   12  N2  UNL     1      26.661  15.448  37.156  1.00  0.00    -0.064 NA
ATOM     13  H12 UNL     1      25.994  15.248  39.583  1.00  0.00     0.158 HD
ATOM     14  H11 UNL     1      24.854  16.589  39.618  1.00  0.00     0.158 HD
ATOM     15  H3  UNL     1      25.377  18.267  37.385  1.00  0.00     0.162 HD
ENDBRANCH   8   9
ENDBRANCH   7   8
ENDBRANCH   6   7
ENDBRANCH   5   6
ENDBRANCH   4   5
ENDBRANCH   2   4
ENDBRANCH   1   2
BRANCH   1  16
HETATM   16  C8  UNL     1      18.836  16.005  31.685  1.00  0.00     0.159 C 
BRANCH  16  17
HETATM   17  N4  UNL     1      17.520  15.763  31.196  1.00  0.00    -0.341 N 
HETATM   18  C9  UNL     1      17.178  16.136  29.856  1.00  0.00     0.316 C 
HETATM   19  O3  UNL     1      18.050  16.668  29.127  1.00  0.00    -0.247 OA
HETATM   20  N5  UNL     1      15.874  15.907  29.355  1.00  0.00    -0.338 N 
ATOM     21  H5  UNL     1      15.170  15.476  29.954  1.00  0.00     0.164 HD
ATOM     22  H4  UNL     1      16.823  15.324  31.799  1.00  0.00     0.164 HD
BRANCH  20  23
HETATM   23  C10 UNL     1      15.533  16.275  28.016  1.00  0.00     0.090 C 
HETATM   24  C11 UNL     1      14.649  17.537  27.997  1.00  0.00     0.030 C 
HETATM   25  C12 UNL     1      13.513  17.106  27.135  1.00  0.00    -0.012 C 
HETATM   26  C13 UNL     1      14.055  16.833  25.755  1.00  0.00     0.005 C 
HETATM   27  C16 UNL     1      13.312  15.665  27.639  1.00  0.00     0.011 C 
HETATM   28  C14 UNL     1      14.768  15.480  25.837  1.00  0.00     0.007 C 
HETATM   29  C15 UNL     1      14.744  15.204  27.300  1.00  0.00     0.009 C 
ENDBRANCH  20  23
ENDBRANCH  16  17
ENDBRANCH   1  16
BRANCH   1  30
HETATM   30  N6  UNL     1      19.703  18.247  31.870  1.00  0.00    -0.344 N 
HETATM   31  C17 UNL     1      19.082  19.433  31.407  1.00  0.00     0.252 C 
HETATM   32  O4  UNL     1      17.855  19.649  31.554  1.00  0.00    -0.271 OA
ATOM     33  H6  UNL     1      20.704  18.108  31.731  1.00  0.00     0.163 HD
BRANCH  31  34
HETATM   34  C18 UNL     1      19.914  20.450  30.725  1.00  0.00     0.314 C 
HETATM   35  C19 UNL     1      19.800  21.801  31.446  1.00  0.00     0.048 C 
HETATM   36  C20 UNL     1      20.053  22.784  30.325  1.00  0.00     0.038 C 
HETATM   37  C21 UNL     1      20.218  21.968  29.092  1.00  0.00     0.224 C 
HETATM   38  C22 UNL     1      19.609  22.578  27.855  1.00  0.00     0.036 C 
HETATM   39  N7  UNL     1      19.440  20.777  29.416  1.00  0.00     0.106 N 
HETATM   40  C23 UNL     1      19.321  21.627  26.762  1.00  0.00     0.004 C 
HETATM   41  C24 UNL     1      19.198  20.198  27.125  1.00  0.00     0.030 C 
HETATM   42  C25 UNL     1      19.841  19.804  28.409  1.00  0.00     0.274 C 
ENDBRANCH  31  34
ENDBRANCH   1  30
TORSDOF 12
ENDMDL
MODEL 5
REMARK VINA RESULT: -7.757954306      2.843      6.569
REMARK  12 active torsions:
REMARK  status: ('A' for Active; 'I' for Inactive)
REMARK       I    between atoms: C1_4  and  N3_6 
REMARK    1  A    between atoms: N3_6  and  C2_8 
REMARK    2  A    between atoms: C2_8  and  C3_9 
REMARK    3  A    between atoms: C3_9  and  C4_10 
REMARK    4  A    between atoms: C4_10  and  C5_11 
REMARK    5  A    between atoms: C5_11  and  O1_12 
REMARK    6  A    between atoms: O1_12  and  C6_13 
REMARK    7  A    between atoms: C6_13  and  C7_15 
REMARK    8  A    between atoms: C7_15  and  C8_16 
REMARK    9  A    between atoms: C7_15  and  N6_30 
REMARK   10  A    between atoms: C8_16  and  N4_17 
REMARK       I    between atoms: N4_17  and  C9_19 
REMARK       I    between atoms: C9_19  and  N5_21 
REMARK   11  A    between atoms: N5_21  and  C10_23 
REMARK       I    between atoms: N6_30  and  C17_32 
REMARK   12  A    between atoms: C17_32  and  C18_34 
ROOT
HETATM    1  C7  UNL     1      19.304  16.152  26.377  1.00  0.00     0.202 C 
ENDROOT
BRANCH   1   2
HETATM    2  C6  UNL     1      18.226  15.351  25.767  1.00  0.00     0.283 C 
HETATM    3  O2  UNL     1      17.418  14.791  26.599  1.00  0.00    -0.263 OA
BRANCH   2   4
HETATM    4  O1  UNL     1      18.022  15.160  24.419  1.00  0.00    -0.320 OA
BRANCH   4   5
HETATM    5  C5  UNL     1      17.554  16.234  23.635  1.00  0.00     0.178 C 
BRANCH   5   6
HETATM    6  C4  UNL     1      16.399  16.862  24.397  1.00  0.00     0.028 C 
BRANCH   6   7
HETATM    7  C3  UNL     1      15.137  16.055  24.181  1.00  0.00     0.022 C 
BRANCH   7   8
HETATM    8  C2  UNL     1      14.189  16.228  25.333  1.00  0.00     0.122 C 
BRANCH   8   9
HETATM    9  N3  UNL     1      14.441  15.192  26.336  1.00  0.00    -0.365 N 
HETATM   10  C1  UNL     1      14.188  15.407  27.709  1.00  0.00     0.181 C 
HETATM   11  N1  UNL     1      15.137  15.614  28.525  1.00  0.00    -0.374 N 
HETATM   12  N2  UNL     1      12.848  15.393  28.176  1.00  0.00    -0.064 NA
ATOM     13  H12 UNL     1      14.954  15.768  29.517  1.00  0.00     0.158 HD
ATOM     14  H11 UNL     1      16.100  15.623  28.189  1.00  0.00     0.158 HD
ATOM     15  H3  UNL     1      14.810  14.290  26.035  1.00  0.00     0.162 HD
ENDBRANCH   8   9
ENDBRANCH   7   8
ENDBRANCH   6   7
ENDBRANCH   5   6
ENDBRANCH   4   5
ENDBRANCH   2   4
ENDBRANCH   1   2
BRANCH   1  16
HETATM   16  C8  UNL     1      19.881  15.427  27.555  1.00  0.00     0.159 C 
BRANCH  16  17
HETATM   17  N4  UNL     1      19.585  16.068  28.792  1.00  0.00    -0.341 N 
HETATM   18  C9  UNL     1      18.682  15.450  29.715  1.00  0.00     0.316 C 
HETATM   19  O3  UNL     1      18.165  14.345  29.421  1.00  0.00    -0.247 OA
HETATM   20  N5  UNL     1      18.372  16.074  30.948  1.00  0.00    -0.338 N 
ATOM     21  H5  UNL     1      18.794  16.974  31.179  1.00  0.00     0.164 HD
ATOM     22  H4  UNL     1      20.016  16.964  29.020  1.00  0.00     0.164 HD
BRANCH  20  23
HETATM   23  C10 UNL     1      17.474  15.456  31.872  1.00  0.00     0.090 C 
HETATM   24  C11 UNL     1      16.593  16.507  32.575  1.00  0.00     0.030 C 
HETATM   25  C12 UNL     1      16.775  16.153  34.011  1.00  0.00    -0.012 C 
HETATM   26  C13 UNL     1      16.205  14.774  34.225  1.00  0.00     0.005 C 
HETATM   27  C16 UNL     1      18.281  15.833  34.030  1.00  0.00     0.011 C 
HETATM   28  C14 UNL     1      17.231  13.795  33.647  1.00  0.00     0.007 C 
HETATM   29  C15 UNL     1      18.192  14.712  32.975  1.00  0.00     0.009 C 
ENDBRANCH  20  23
ENDBRANCH  16  17
ENDBRANCH   1  16
BRANCH   1  30
HETATM   30  N6  UNL     1      18.825  17.456  26.791  1.00  0.00    -0.344 N 
HETATM   31  C17 UNL     1      19.577  18.618  26.491  1.00  0.00     0.252 C 
HETATM   32  O4  UNL     1      20.666  18.569  25.868  1.00  0.00    -0.271 OA
ATOM     33  H6  UNL     1      17.944  17.538  27.301  1.00  0.00     0.163 HD
BRANCH  31  34
HETATM   34  C18 UNL     1      19.059  19.934  26.928  1.00  0.00     0.314 C 
HETATM   35  C19 UNL     1      19.239  20.974  25.814  1.00  0.00     0.048 C 
HETATM   36  C20 UNL     1      19.360  22.262  26.595  1.00  0.00     0.038 C 
HETATM   37  C21 UNL     1      19.311  21.878  28.032  1.00  0.00     0.224 C 
HETATM   38  C22 UNL     1      20.234  22.673  28.921  1.00  0.00     0.036 C 
HETATM   39  N7  UNL     1      19.820  20.511  27.992  1.00  0.00     0.106 N 
HETATM   40  C23 UNL     1      20.576  22.030  30.207  1.00  0.00     0.004 C 
HETATM   41  C24 UNL     1      20.406  20.563  30.294  1.00  0.00     0.030 C 
HETATM   42  C25 UNL     1      19.475  19.964  29.297  1.00  0.00     0.274 C 
ENDBRANCH  31  34
ENDBRANCH   1  30
TORSDOF 12
ENDMDL
