MODEL 1
REMARK VINA RESULT: -7.006041069      0.000      0.000
REMARK  9 active torsions:
REMARK  status: ('A' for Active; 'I' for Inactive)
REMARK    1  A    between atoms: N1_8  and  C8_9 
REMARK    2  A    between atoms: C8_9  and  C9_10 
REMARK    3  A    between atoms: C9_10  and  C10_11 
REMARK    4  A    between atoms: C10_11  and  C11_12 
REMARK    5  A    between atoms: C14_15  and  S1_16 
REMARK    6  A    between atoms: S1_16  and  N2_19 
REMARK    7  A    between atoms: N2_19  and  C15_21 
REMARK    8  A    between atoms: C22_29  and  N3_31 
REMARK       I    between atoms: N3_31  and  C24_33 
REMARK    9  A    between atoms: C24_33  and  C25_35 
ROOT
HETATM    1  C1  UNL     1      85.134  62.524  16.578  1.00  0.00     0.048 C 
HETATM    2  C2  UNL     1      84.543  61.832  15.407  1.00  0.00    -0.060 A 
HETATM    3  C3  UNL     1      85.098  60.640  15.009  1.00  0.00     0.007 A 
HETATM    4  C4  UNL     1      84.609  59.941  13.935  1.00  0.00     0.013 A 
HETATM    5  C5  UNL     1      83.542  60.385  13.192  1.00  0.00     0.006 A 
HETATM    6  C6  UNL     1      82.965  61.582  13.574  1.00  0.00     0.047 A 
HETATM    7  C7  UNL     1      83.475  62.291  14.678  1.00  0.00     0.037 A 
HETATM    8  N1  UNL     1      81.851  61.848  12.741  1.00  0.00    -0.315 N 
HETATM    9  C21 UNL     1      81.718  60.805  11.823  1.00  0.00     0.257 C 
HETATM   10  O3  UNL     1      80.785  60.637  10.970  1.00  0.00    -0.270 OA
HETATM   11  C22 UNL     1      82.857  59.865  11.969  1.00  0.00     0.140 C 
HETATM   12  C23 UNL     1      82.303  58.493  12.149  1.00  0.00     0.055 C 
ENDROOT
BRANCH   8  13
HETATM   13  C8  UNL     1      81.005  63.006  12.803  1.00  0.00     0.132 C 
BRANCH  13  14
HETATM   14  C9  UNL     1      79.897  62.956  13.790  1.00  0.00     0.025 C 
BRANCH  14  15
HETATM   15  C10 UNL     1      78.528  62.716  13.263  1.00  0.00     0.040 C 
BRANCH  15  16
HETATM   16  C11 UNL     1      77.567  63.197  14.293  1.00  0.00    -0.058 A 
HETATM   17  C12 UNL     1      77.613  62.678  15.563  1.00  0.00     0.009 A 
HETATM   18  C13 UNL     1      76.757  63.078  16.556  1.00  0.00     0.026 A 
HETATM   19  C14 UNL     1      75.793  64.043  16.305  1.00  0.00     0.079 A 
HETATM   20  C19 UNL     1      75.729  64.579  15.034  1.00  0.00     0.026 A 
HETATM   21  C20 UNL     1      76.608  64.154  14.050  1.00  0.00     0.009 A 
BRANCH  19  22
HETATM   22  S1  UNL     1      74.731  64.551  17.590  1.00  0.00     0.259 S 
HETATM   23  O1  UNL     1      74.564  66.061  17.391  1.00  0.00    -0.201 OA
HETATM   24  O2  UNL     1      75.492  64.295  18.868  1.00  0.00    -0.201 OA
BRANCH  22  25
HETATM   25  N2  UNL     1      73.252  63.818  17.494  1.00  0.00    -0.307 N 
ATOM     26  H2  UNL     1      72.544  64.262  16.908  1.00  0.00     0.173 HD
BRANCH  25  27
HETATM   27  C15 UNL     1      72.901  62.652  18.146  1.00  0.00     0.029 C 
HETATM   28  C16 UNL     1      71.440  62.299  17.754  1.00  0.00     0.038 C 
HETATM   29  C17 UNL     1      72.936  62.658  19.645  1.00  0.00     0.038 C 
HETATM   30  C18 UNL     1      73.702  61.462  17.658  1.00  0.00     0.038 C 
ENDBRANCH  25  27
ENDBRANCH  22  25
ENDBRANCH  19  22
ENDBRANCH  15  16
ENDBRANCH  14  15
ENDBRANCH  13  14
ENDBRANCH   8  13
BRANCH  11  31
HETATM   31  N3  UNL     1      83.646  60.021  10.762  1.00  0.00    -0.339 N 
HETATM   32  C24 UNL     1      84.694  59.204  10.319  1.00  0.00     0.226 C 
HETATM   33  O4  UNL     1      85.051  58.205  10.963  1.00  0.00    -0.273 OA
ATOM     34  H3  UNL     1      83.410  60.815  10.168  1.00  0.00     0.164 HD
BRANCH  32  35
HETATM   35  C25 UNL     1      85.450  59.473   9.053  1.00  0.00     0.030 C 
HETATM   36  C26 UNL     1      86.842  59.979   9.345  1.00  0.00     0.024 C 
HETATM   37  C27 UNL     1      84.739  60.480   8.187  1.00  0.00     0.024 C 
HETATM   38  C28 UNL     1      85.616  58.181   8.258  1.00  0.00     0.024 C 
ENDBRANCH  32  35
ENDBRANCH  11  31
TORSDOF 9
ENDMDL
MODEL 2
REMARK VINA RESULT: -6.763929651      1.812      2.603
REMARK  9 active torsions:
REMARK  status: ('A' for Active; 'I' for Inactive)
REMARK    1  A    between atoms: N1_8  and  C8_9 
REMARK    2  A    between atoms: C8_9  and  C9_10 
REMARK    3  A    between atoms: C9_10  and  C10_11 
REMARK    4  A    between atoms: C10_11  and  C11_12 
REMARK    5  A    between atoms: C14_15  and  S1_16 
REMARK    6  A    between atoms: S1_16  and  N2_19 
REMARK    7  A    between atoms: N2_19  and  C15_21 
REMARK    8  A    between atoms: C22_29  and  N3_31 
REMARK       I    between atoms: N3_31  and  C24_33 
REMARK    9  A    between atoms: C24_33  and  C25_35 
ROOT
HETATM    1  C1  UNL     1      84.847  62.553  16.358  1.00  0.00     0.048 C 
HETATM    2  C2  UNL     1      84.610  61.607  15.242  1.00  0.00    -0.060 A 
HETATM    3  C3  UNL     1      85.580  60.675  14.962  1.00  0.00     0.007 A 
HETATM    4  C4  UNL     1      85.435  59.768  13.943  1.00  0.00     0.013 A 
HETATM    5  C5  UNL     1      84.319  59.732  13.142  1.00  0.00     0.006 A 
HETATM    6  C6  UNL     1      83.327  60.659  13.407  1.00  0.00     0.047 A 
HETATM    7  C7  UNL     1      83.487  61.586  14.453  1.00  0.00     0.037 A 
HETATM    8  N1  UNL     1      82.237  60.434  12.531  1.00  0.00    -0.315 N 
HETATM    9  C21 UNL     1      82.540  59.351  11.706  1.00  0.00     0.257 C 
HETATM   10  O3  UNL     1      81.777  58.788  10.852  1.00  0.00    -0.270 OA
HETATM   11  C22 UNL     1      83.934  58.908  11.956  1.00  0.00     0.140 C 
HETATM   12  C23 UNL     1      83.908  57.446  12.246  1.00  0.00     0.055 C 
ENDROOT
BRANCH   8  13
HETATM   13  C8  UNL     1      81.025  61.202  12.473  1.00  0.00     0.132 C 
BRANCH  13  14
HETATM   14  C9  UNL     1      81.117  62.521  11.797  1.00  0.00     0.025 C 
BRANCH  14  15
HETATM   15  C10 UNL     1      80.590  63.700  12.534  1.00  0.00     0.040 C 
BRANCH  15  16
HETATM   16  C11 UNL     1      79.348  63.267  13.231  1.00  0.00    -0.058 A 
HETATM   17  C12 UNL     1      78.165  63.201  12.535  1.00  0.00     0.009 A 
HETATM   18  C13 UNL     1      76.987  62.811  13.117  1.00  0.00     0.026 A 
HETATM   19  C14 UNL     1      76.949  62.460  14.458  1.00  0.00     0.079 A 
HETATM   20  C19 UNL     1      78.127  62.518  15.177  1.00  0.00     0.026 A 
HETATM   21  C20 UNL     1      79.303  62.917  14.561  1.00  0.00     0.009 A 
BRANCH  19  22
HETATM   22  S1  UNL     1      75.443  61.946  15.169  1.00  0.00     0.259 S 
HETATM   23  O1  UNL     1      75.162  60.573  14.549  1.00  0.00    -0.201 OA
HETATM   24  O2  UNL     1      74.410  62.935  14.686  1.00  0.00    -0.201 OA
BRANCH  22  25
HETATM   25  N2  UNL     1      75.556  61.794  16.811  1.00  0.00    -0.307 N 
ATOM     26  H2  UNL     1      75.636  60.851  17.192  1.00  0.00     0.173 HD
BRANCH  25  27
HETATM   27  C15 UNL     1      75.551  62.845  17.707  1.00  0.00     0.029 C 
HETATM   28  C16 UNL     1      74.318  62.683  18.638  1.00  0.00     0.038 C 
HETATM   29  C17 UNL     1      75.466  64.234  17.149  1.00  0.00     0.038 C 
HETATM   30  C18 UNL     1      76.729  62.790  18.658  1.00  0.00     0.038 C 
ENDBRANCH  25  27
ENDBRANCH  22  25
ENDBRANCH  19  22
ENDBRANCH  15  16
ENDBRANCH  14  15
ENDBRANCH  13  14
ENDBRANCH   8  13
BRANCH  11  31
HETATM   31  N3  UNL     1      84.672  59.252  10.757  1.00  0.00    -0.339 N 
HETATM   32  C24 UNL     1      85.979  58.872  10.423  1.00  0.00     0.226 C 
HETATM   33  O4  UNL     1      86.654  58.152  11.175  1.00  0.00    -0.273 OA
ATOM     34  H3  UNL     1      84.185  59.836  10.078  1.00  0.00     0.164 HD
BRANCH  32  35
HETATM   35  C25 UNL     1      86.647  59.302   9.152  1.00  0.00     0.030 C 
HETATM   36  C26 UNL     1      86.427  58.292   8.052  1.00  0.00     0.024 C 
HETATM   37  C27 UNL     1      88.128  59.498   9.343  1.00  0.00     0.024 C 
HETATM   38  C28 UNL     1      86.043  60.615   8.663  1.00  0.00     0.024 C 
ENDBRANCH  32  35
ENDBRANCH  11  31
TORSDOF 9
ENDMDL
MODEL 3
REMARK VINA RESULT: -6.737827811      4.620      6.734
REMARK  9 active torsions:
REMARK  status: ('A' for Active; 'I' for Inactive)
REMARK    1  A    between atoms: N1_8  and  C8_9 
REMARK    2  A    between atoms: C8_9  and  C9_10 
REMARK    3  A    between atoms: C9_10  and  C10_11 
REMARK    4  A    between atoms: C10_11  and  C11_12 
REMARK    5  A    between atoms: C14_15  and  S1_16 
REMARK    6  A    between atoms: S1_16  and  N2_19 
REMARK    7  A    between atoms: N2_19  and  C15_21 
REMARK    8  A    between atoms: C22_29  and  N3_31 
REMARK       I    between atoms: N3_31  and  C24_33 
REMARK    9  A    between atoms: C24_33  and  C25_35 
ROOT
HETATM    1  C1  UNL     1      84.933  62.511  16.563  1.00  0.00     0.048 C 
HETATM    2  C2  UNL     1      84.525  61.760  15.351  1.00  0.00    -0.060 A 
HETATM    3  C3  UNL     1      85.140  60.559  15.094  1.00  0.00     0.007 A 
HETATM    4  C4  UNL     1      84.819  59.806  13.992  1.00  0.00     0.013 A 
HETATM    5  C5  UNL     1      83.869  60.202  13.082  1.00  0.00     0.006 A 
HETATM    6  C6  UNL     1      83.234  61.407  13.322  1.00  0.00     0.047 A 
HETATM    7  C7  UNL     1      83.572  62.171  14.454  1.00  0.00     0.037 A 
HETATM    8  N1  UNL     1      82.251  61.621  12.324  1.00  0.00    -0.315 N 
HETATM    9  C21 UNL     1      82.261  60.537  11.445  1.00  0.00     0.257 C 
HETATM   10  O3  UNL     1      81.464  60.319  10.473  1.00  0.00    -0.270 OA
HETATM   11  C22 UNL     1      83.373  59.620  11.798  1.00  0.00     0.140 C 
HETATM   12  C23 UNL     1      82.808  58.250  11.958  1.00  0.00     0.055 C 
ENDROOT
BRANCH   8  13
HETATM   13  C8  UNL     1      81.397  62.769  12.209  1.00  0.00     0.132 C 
BRANCH  13  14
HETATM   14  C9  UNL     1      79.966  62.558  12.542  1.00  0.00     0.025 C 
BRANCH  14  15
HETATM   15  C10 UNL     1      79.269  63.652  13.268  1.00  0.00     0.040 C 
BRANCH  15  16
HETATM   16  C11 UNL     1      79.249  64.837  12.367  1.00  0.00    -0.058 A 
HETATM   17  C12 UNL     1      79.849  66.006  12.766  1.00  0.00     0.009 A 
HETATM   18  C13 UNL     1      79.866  67.132  11.984  1.00  0.00     0.026 A 
HETATM   19  C14 UNL     1      79.263  67.128  10.735  1.00  0.00     0.079 A 
HETATM   20  C19 UNL     1      78.654  65.962  10.313  1.00  0.00     0.026 A 
HETATM   21  C20 UNL     1      78.653  64.840  11.126  1.00  0.00     0.009 A 
BRANCH  19  22
HETATM   22  S1  UNL     1      79.317  68.565   9.751  1.00  0.00     0.259 S 
HETATM   23  O1  UNL     1      78.727  69.670  10.633  1.00  0.00    -0.201 OA
HETATM   24  O2  UNL     1      78.384  68.297   8.594  1.00  0.00    -0.201 OA
BRANCH  22  25
HETATM   25  N2  UNL     1      80.863  68.967   9.328  1.00  0.00    -0.307 N 
ATOM     26  H2  UNL     1      81.544  69.077  10.081  1.00  0.00     0.173 HD
BRANCH  25  27
HETATM   27  C15 UNL     1      81.306  69.166   8.035  1.00  0.00     0.029 C 
HETATM   28  C16 UNL     1      82.845  69.368   8.074  1.00  0.00     0.038 C 
HETATM   29  C17 UNL     1      80.754  70.340   7.285  1.00  0.00     0.038 C 
HETATM   30  C18 UNL     1      81.128  67.930   7.175  1.00  0.00     0.038 C 
ENDBRANCH  25  27
ENDBRANCH  22  25
ENDBRANCH  19  22
ENDBRANCH  15  16
ENDBRANCH  14  15
ENDBRANCH  13  14
ENDBRANCH   8  13
BRANCH  11  31
HETATM   31  N3  UNL     1      84.329  59.733  10.713  1.00  0.00    -0.339 N 
HETATM   32  C24 UNL     1      85.450  58.926  10.479  1.00  0.00     0.226 C 
HETATM   33  O4  UNL     1      85.731  57.977  11.227  1.00  0.00    -0.273 OA
ATOM     34  H3  UNL     1      84.166  60.485  10.044  1.00  0.00     0.164 HD
BRANCH  32  35
HETATM   35  C25 UNL     1      86.379  59.148   9.324  1.00  0.00     0.030 C 
HETATM   36  C26 UNL     1      85.940  60.327   8.489  1.00  0.00     0.024 C 
HETATM   37  C27 UNL     1      86.464  57.932   8.440  1.00  0.00     0.024 C 
HETATM   38  C28 UNL     1      87.779  59.476   9.834  1.00  0.00     0.024 C 
ENDBRANCH  32  35
ENDBRANCH  11  31
TORSDOF 9
ENDMDL
MODEL 4
REMARK VINA RESULT: -6.714378258      1.723      2.214
REMARK  9 active torsions:
REMARK  status: ('A' for Active; 'I' for Inactive)
REMARK    1  A    between atoms: N1_8  and  C8_9 
REMARK    2  A    between atoms: C8_9  and  C9_10 
REMARK    3  A    between atoms: C9_10  and  C10_11 
REMARK    4  A    between atoms: C10_11  and  C11_12 
REMARK    5  A    between atoms: C14_15  and  S1_16 
REMARK    6  A    between atoms: S1_16  and  N2_19 
REMARK    7  A    between atoms: N2_19  and  C15_21 
REMARK    8  A    between atoms: C22_29  and  N3_31 
REMARK       I    between atoms: N3_31  and  C24_33 
REMARK    9  A    between atoms: C24_33  and  C25_35 
ROOT
HETATM    1  C1  UNL     1      84.978  62.524  16.554  1.00  0.00     0.048 C 
HETATM    2  C2  UNL     1      84.589  61.747  15.353  1.00  0.00    -0.060 A 
HETATM    3  C3  UNL     1      85.241  60.564  15.104  1.00  0.00     0.007 A 
HETATM    4  C4  UNL     1      84.939  59.790  14.012  1.00  0.00     0.013 A 
HETATM    5  C5  UNL     1      83.972  60.145  13.103  1.00  0.00     0.006 A 
HETATM    6  C6  UNL     1      83.299  61.331  13.334  1.00  0.00     0.047 A 
HETATM    7  C7  UNL     1      83.618  62.118  14.456  1.00  0.00     0.037 A 
HETATM    8  N1  UNL     1      82.305  61.502  12.339  1.00  0.00    -0.315 N 
HETATM    9  C21 UNL     1      82.346  60.410  11.472  1.00  0.00     0.257 C 
HETATM   10  O3  UNL     1      81.551  60.156  10.507  1.00  0.00    -0.270 OA
HETATM   11  C22 UNL     1      83.489  59.534  11.828  1.00  0.00     0.140 C 
HETATM   12  C23 UNL     1      82.970  58.148  12.005  1.00  0.00     0.055 C 
ENDROOT
BRANCH   8  13
HETATM   13  C8  UNL     1      81.413  62.621  12.217  1.00  0.00     0.132 C 
BRANCH  13  14
HETATM   14  C9  UNL     1      80.166  62.556  13.021  1.00  0.00     0.025 C 
BRANCH  14  15
HETATM   15  C10 UNL     1      79.057  61.722  12.488  1.00  0.00     0.040 C 
BRANCH  15  16
HETATM   16  C11 UNL     1      77.942  61.788  13.471  1.00  0.00    -0.058 A 
HETATM   17  C12 UNL     1      76.813  61.031  13.273  1.00  0.00     0.009 A 
HETATM   18  C13 UNL     1      75.751  61.047  14.140  1.00  0.00     0.026 A 
HETATM   19  C14 UNL     1      75.782  61.846  15.272  1.00  0.00     0.079 A 
HETATM   20  C19 UNL     1      76.908  62.616  15.492  1.00  0.00     0.026 A 
HETATM   21  C20 UNL     1      77.965  62.579  14.597  1.00  0.00     0.009 A 
BRANCH  19  22
HETATM   22  S1  UNL     1      74.429  61.833  16.370  1.00  0.00     0.259 S 
HETATM   23  O1  UNL     1      73.707  60.510  16.091  1.00  0.00    -0.201 OA
HETATM   24  O2  UNL     1      73.550  62.983  15.942  1.00  0.00    -0.201 OA
BRANCH  22  25
HETATM   25  N2  UNL     1      74.915  61.870  17.949  1.00  0.00    -0.307 N 
ATOM     26  H2  UNL     1      74.938  60.985  18.456  1.00  0.00     0.173 HD
BRANCH  25  27
HETATM   27  C15 UNL     1      75.292  63.008  18.637  1.00  0.00     0.029 C 
HETATM   28  C16 UNL     1      74.507  63.048  19.976  1.00  0.00     0.038 C 
HETATM   29  C17 UNL     1      75.048  64.331  17.976  1.00  0.00     0.038 C 
HETATM   30  C18 UNL     1      76.742  62.957  19.072  1.00  0.00     0.038 C 
ENDBRANCH  25  27
ENDBRANCH  22  25
ENDBRANCH  19  22
ENDBRANCH  15  16
ENDBRANCH  14  15
ENDBRANCH  13  14
ENDBRANCH   8  13
BRANCH  11  31
HETATM   31  N3  UNL     1      84.434  59.667  10.736  1.00  0.00    -0.339 N 
HETATM   32  C24 UNL     1      85.593  58.909  10.517  1.00  0.00     0.226 C 
HETATM   33  O4  UNL     1      85.921  57.993  11.287  1.00  0.00    -0.273 OA
ATOM     34  H3  UNL     1      84.233  60.393  10.050  1.00  0.00     0.164 HD
BRANCH  32  35
HETATM   35  C25 UNL     1      86.506  59.148   9.353  1.00  0.00     0.030 C 
HETATM   36  C26 UNL     1      86.168  60.440   8.650  1.00  0.00     0.024 C 
HETATM   37  C27 UNL     1      86.440  58.021   8.356  1.00  0.00     0.024 C 
HETATM   38  C28 UNL     1      87.947  59.282   9.838  1.00  0.00     0.024 C 
ENDBRANCH  32  35
ENDBRANCH  11  31
TORSDOF 9
ENDMDL
MODEL 5
REMARK VINA RESULT: -6.710777242      2.882     10.037
REMARK  9 active torsions:
REMARK  status: ('A' for Active; 'I' for Inactive)
REMARK    1  A    between atoms: N1_8  and  C8_9 
REMARK    2  A    between atoms: C8_9  and  C9_10 
REMARK    3  A    between atoms: C9_10  and  C10_11 
REMARK    4  A    between atoms: C10_11  and  C11_12 
REMARK    5  A    between atoms: C14_15  and  S1_16 
REMARK    6  A    between atoms: S1_16  and  N2_19 
REMARK    7  A    between atoms: N2_19  and  C15_21 
REMARK    8  A    between atoms: C22_29  and  N3_31 
REMARK       I    between atoms: N3_31  and  C24_33 
REMARK    9  A    between atoms: C24_33  and  C25_35 
ROOT
HETATM    1  C1  UNL     1      78.682  66.901  11.979  1.00  0.00     0.048 C 
HETATM    2  C2  UNL     1      77.558  66.340  12.766  1.00  0.00    -0.060 A 
HETATM    3  C3  UNL     1      77.229  66.948  13.954  1.00  0.00     0.007 A 
HETATM    4  C4  UNL     1      76.204  66.486  14.740  1.00  0.00     0.013 A 
HETATM    5  C5  UNL     1      75.445  65.395  14.393  1.00  0.00     0.006 A 
HETATM    6  C6  UNL     1      75.755  64.768  13.200  1.00  0.00     0.047 A 
HETATM    7  C7  UNL     1      76.810  65.249  12.403  1.00  0.00     0.037 A 
HETATM    8  N1  UNL     1      74.838  63.711  12.978  1.00  0.00    -0.315 N 
HETATM    9  C21 UNL     1      73.934  63.672  14.040  1.00  0.00     0.257 C 
HETATM   10  O3  UNL     1      72.908  62.923  14.159  1.00  0.00    -0.270 OA
HETATM   11  C22 UNL     1      74.332  64.662  15.071  1.00  0.00     0.140 C 
HETATM   12  C23 UNL     1      73.154  65.528  15.360  1.00  0.00     0.055 C 
ENDROOT
BRANCH   8  13
HETATM   13  C8  UNL     1      74.841  62.808  11.863  1.00  0.00     0.132 C 
BRANCH  13  14
HETATM   14  C9  UNL     1      75.539  61.513  12.070  1.00  0.00     0.025 C 
BRANCH  14  15
HETATM   15  C10 UNL     1      75.894  61.149  13.467  1.00  0.00     0.040 C 
BRANCH  15  16
HETATM   16  C11 UNL     1      77.368  61.304  13.604  1.00  0.00    -0.058 A 
HETATM   17  C12 UNL     1      78.207  60.430  12.957  1.00  0.00     0.009 A 
HETATM   18  C13 UNL     1      79.573  60.518  13.041  1.00  0.00     0.026 A 
HETATM   19  C14 UNL     1      80.166  61.516  13.800  1.00  0.00     0.079 A 
HETATM   20  C19 UNL     1      79.340  62.406  14.459  1.00  0.00     0.026 A 
HETATM   21  C20 UNL     1      77.963  62.291  14.355  1.00  0.00     0.009 A 
BRANCH  19  22
HETATM   22  S1  UNL     1      81.904  61.620  13.875  1.00  0.00     0.259 S 
HETATM   23  O1  UNL     1      82.213  62.046  15.314  1.00  0.00    -0.201 OA
HETATM   24  O2  UNL     1      82.282  62.737  12.931  1.00  0.00    -0.201 OA
BRANCH  22  25
HETATM   25  N2  UNL     1      82.624  60.165  13.566  1.00  0.00    -0.307 N 
ATOM     26  H2  UNL     1      82.289  59.354  14.087  1.00  0.00     0.173 HD
BRANCH  25  27
HETATM   27  C15 UNL     1      83.644  59.962  12.657  1.00  0.00     0.029 C 
HETATM   28  C16 UNL     1      84.088  58.476  12.750  1.00  0.00     0.038 C 
HETATM   29  C17 UNL     1      84.891  60.777  12.819  1.00  0.00     0.038 C 
HETATM   30  C18 UNL     1      83.168  60.105  11.225  1.00  0.00     0.038 C 
ENDBRANCH  25  27
ENDBRANCH  22  25
ENDBRANCH  19  22
ENDBRANCH  15  16
ENDBRANCH  14  15
ENDBRANCH  13  14
ENDBRANCH   8  13
BRANCH  11  31
HETATM   31  N3  UNL     1      74.774  63.880  16.210  1.00  0.00    -0.339 N 
HETATM   32  C24 UNL     1      75.017  64.336  17.513  1.00  0.00     0.226 C 
HETATM   33  O4  UNL     1      74.854  65.526  17.822  1.00  0.00    -0.273 OA
ATOM     34  H3  UNL     1      74.924  62.885  16.044  1.00  0.00     0.164 HD
BRANCH  32  35
HETATM   35  C25 UNL     1      75.486  63.430  18.611  1.00  0.00     0.030 C 
HETATM   36  C26 UNL     1      74.372  62.531  19.090  1.00  0.00     0.024 C 
HETATM   37  C27 UNL     1      76.018  64.212  19.784  1.00  0.00     0.024 C 
HETATM   38  C28 UNL     1      76.593  62.514  18.097  1.00  0.00     0.024 C 
ENDBRANCH  32  35
ENDBRANCH  11  31
TORSDOF 9
ENDMDL
