MODEL 1
REMARK VINA RESULT: -7.194121367      0.000      0.000
REMARK  7 active torsions:
REMARK  status: ('A' for Active; 'I' for Inactive)
REMARK    1  A    between atoms: C3_3  and  N1_4 
REMARK       I    between atoms: N1_4  and  C5_6 
REMARK       I    between atoms: C5_6  and  N2_8 
REMARK    2  A    between atoms: N2_8  and  C7_10 
REMARK    3  A    between atoms: C10_13  and  N3_14 
REMARK       I    between atoms: N3_14  and  C11_16 
REMARK    4  A    between atoms: C11_16  and  C12_18 
REMARK    5  A    between atoms: C15_21  and  N4_22 
REMARK    6  A    between atoms: N4_22  and  S1_24 
REMARK    7  A    between atoms: S1_24  and  C16_27 
ROOT
HETATM    1  C1  UNL     1      92.272  55.600  14.731  1.00  0.00     0.014 C 
HETATM    2  C2  UNL     1      91.800  56.132  13.759  1.00  0.00    -0.098 C 
HETATM    3  C3  UNL     1      91.232  56.807  12.559  1.00  0.00     0.220 C 
ENDROOT
BRANCH   3   4
HETATM    4  N1  UNL     1      90.872  58.156  12.910  1.00  0.00    -0.328 N 
HETATM    5  C4  UNL     1      92.062  59.020  13.182  1.00  0.00     0.155 C 
HETATM    6  C5  UNL     1      89.604  58.722  13.025  1.00  0.00     0.325 C 
HETATM    7  O1  UNL     1      89.589  59.956  13.403  1.00  0.00    -0.247 OA
HETATM    8  N2  UNL     1      88.339  58.172  12.794  1.00  0.00    -0.304 N 
HETATM    9  C6  UNL     1      88.026  56.863  12.291  1.00  0.00     0.161 C 
BRANCH   8  10
HETATM   10  C7  UNL     1      87.163  58.996  13.058  1.00  0.00     0.038 A 
HETATM   11  C8  UNL     1      86.677  59.837  12.090  1.00  0.00     0.032 A 
HETATM   12  C9  UNL     1      85.576  60.602  12.352  1.00  0.00     0.032 A 
HETATM   13  C10 UNL     1      84.909  60.562  13.596  1.00  0.00     0.035 A 
HETATM   14  C27 UNL     1      85.439  59.708  14.513  1.00  0.00     0.032 A 
HETATM   15  C28 UNL     1      86.558  58.915  14.280  1.00  0.00     0.032 A 
BRANCH  13  16
HETATM   16  N3  UNL     1      83.755  61.376  13.767  1.00  0.00    -0.323 N 
HETATM   17  C11 UNL     1      82.474  60.974  13.435  1.00  0.00     0.256 C 
HETATM   18  O2  UNL     1      82.222  59.846  12.962  1.00  0.00    -0.267 OA
ATOM     19  H3  UNL     1      83.880  62.310  14.157  1.00  0.00     0.169 HD
BRANCH  17  20
HETATM   20  C12 UNL     1      81.338  61.901  13.639  1.00  0.00     0.032 A 
HETATM   21  C13 UNL     1      80.538  61.860  14.750  1.00  0.00     0.019 A 
HETATM   22  C14 UNL     1      79.492  62.738  14.891  1.00  0.00     0.031 A 
HETATM   23  C15 UNL     1      79.185  63.706  13.928  1.00  0.00     0.042 A 
HETATM   24  C25 UNL     1      79.997  63.736  12.817  1.00  0.00     0.031 A 
HETATM   25  C26 UNL     1      81.049  62.858  12.669  1.00  0.00     0.019 A 
BRANCH  23  26
HETATM   26  N4  UNL     1      78.094  64.579  14.153  1.00  0.00    -0.281 N 
ATOM     27  H4  UNL     1      78.266  65.569  14.328  1.00  0.00     0.179 HD
BRANCH  26  28
HETATM   28  S1  UNL     1      76.489  63.992  14.135  1.00  0.00     0.264 S 
HETATM   29  O3  UNL     1      75.573  64.980  13.423  1.00  0.00    -0.200 OA
HETATM   30  O4  UNL     1      76.471  62.765  13.228  1.00  0.00    -0.200 OA
BRANCH  28  31
HETATM   31  C16 UNL     1      75.859  63.629  15.704  1.00  0.00     0.091 A 
HETATM   32  C17 UNL     1      75.805  62.292  16.115  1.00  0.00    -0.038 A 
HETATM   33  C18 UNL     1      76.296  61.219  15.215  1.00  0.00     0.050 C 
HETATM   34  C19 UNL     1      75.299  61.944  17.367  1.00  0.00     0.015 A 
HETATM   35  C20 UNL     1      74.852  62.957  18.190  1.00  0.00    -0.061 A 
HETATM   36  C21 UNL     1      74.312  62.610  19.516  1.00  0.00     0.048 C 
HETATM   37  C22 UNL     1      74.911  64.268  17.772  1.00  0.00     0.015 A 
HETATM   38  C23 UNL     1      75.412  64.610  16.535  1.00  0.00    -0.038 A 
HETATM   39  C24 UNL     1      75.439  66.021  16.159  1.00  0.00     0.050 C 
ENDBRANCH  28  31
ENDBRANCH  26  28
ENDBRANCH  23  26
ENDBRANCH  17  20
ENDBRANCH  13  16
ENDBRANCH   8  10
ENDBRANCH   3   4
TORSDOF 7
ENDMDL
MODEL 2
REMARK VINA RESULT: -7.052285272      1.111      2.257
REMARK  7 active torsions:
REMARK  status: ('A' for Active; 'I' for Inactive)
REMARK    1  A    between atoms: C3_3  and  N1_4 
REMARK       I    between atoms: N1_4  and  C5_6 
REMARK       I    between atoms: C5_6  and  N2_8 
REMARK    2  A    between atoms: N2_8  and  C7_10 
REMARK    3  A    between atoms: C10_13  and  N3_14 
REMARK       I    between atoms: N3_14  and  C11_16 
REMARK    4  A    between atoms: C11_16  and  C12_18 
REMARK    5  A    between atoms: C15_21  and  N4_22 
REMARK    6  A    between atoms: N4_22  and  S1_24 
REMARK    7  A    between atoms: S1_24  and  C16_27 
ROOT
HETATM    1  C1  UNL     1      91.326  54.487  13.999  1.00  0.00     0.014 C 
HETATM    2  C2  UNL     1      90.879  55.030  13.022  1.00  0.00    -0.098 C 
HETATM    3  C3  UNL     1      90.314  55.716  11.827  1.00  0.00     0.220 C 
ENDROOT
BRANCH   3   4
HETATM    4  N1  UNL     1      88.877  55.666  11.897  1.00  0.00    -0.328 N 
HETATM    5  C4  UNL     1      88.324  54.336  11.497  1.00  0.00     0.155 C 
HETATM    6  C5  UNL     1      87.984  56.667  12.273  1.00  0.00     0.325 C 
HETATM    7  O1  UNL     1      86.737  56.343  12.195  1.00  0.00    -0.247 OA
HETATM    8  N2  UNL     1      88.215  57.970  12.726  1.00  0.00    -0.304 N 
HETATM    9  C6  UNL     1      89.480  58.596  12.996  1.00  0.00     0.161 C 
BRANCH   8  10
HETATM   10  C7  UNL     1      87.066  58.829  12.993  1.00  0.00     0.038 A 
HETATM   11  C8  UNL     1      86.529  59.596  11.991  1.00  0.00     0.032 A 
HETATM   12  C9  UNL     1      85.454  60.395  12.256  1.00  0.00     0.032 A 
HETATM   13  C10 UNL     1      84.865  60.467  13.538  1.00  0.00     0.035 A 
HETATM   14  C27 UNL     1      85.443  59.682  14.488  1.00  0.00     0.032 A 
HETATM   15  C28 UNL     1      86.538  58.857  14.252  1.00  0.00     0.032 A 
BRANCH  13  16
HETATM   16  N3  UNL     1      83.733  61.309  13.712  1.00  0.00    -0.323 N 
HETATM   17  C11 UNL     1      82.446  60.955  13.345  1.00  0.00     0.256 C 
HETATM   18  O2  UNL     1      82.171  59.849  12.834  1.00  0.00    -0.267 OA
ATOM     19  H3  UNL     1      83.877  62.227  14.131  1.00  0.00     0.169 HD
BRANCH  17  20
HETATM   20  C12 UNL     1      81.334  61.908  13.555  1.00  0.00     0.032 A 
HETATM   21  C13 UNL     1      81.074  62.944  12.698  1.00  0.00     0.019 A 
HETATM   22  C14 UNL     1      80.033  63.807  12.941  1.00  0.00     0.031 A 
HETATM   23  C15 UNL     1      79.195  63.683  14.055  1.00  0.00     0.042 A 
HETATM   24  C25 UNL     1      79.468  62.638  14.908  1.00  0.00     0.031 A 
HETATM   25  C26 UNL     1      80.512  61.768  14.670  1.00  0.00     0.019 A 
BRANCH  23  26
HETATM   26  N4  UNL     1      78.139  64.610  14.227  1.00  0.00    -0.281 N 
ATOM     27  H4  UNL     1      78.353  65.594  14.391  1.00  0.00     0.179 HD
BRANCH  26  28
HETATM   28  S1  UNL     1      76.510  64.100  14.163  1.00  0.00     0.264 S 
HETATM   29  O3  UNL     1      75.646  65.169  13.506  1.00  0.00    -0.200 OA
HETATM   30  O4  UNL     1      76.445  62.931  13.184  1.00  0.00    -0.200 OA
BRANCH  28  31
HETATM   31  C16 UNL     1      75.850  63.673  15.703  1.00  0.00     0.091 A 
HETATM   32  C17 UNL     1      75.415  64.693  16.557  1.00  0.00    -0.038 A 
HETATM   33  C18 UNL     1      75.514  66.111  16.128  1.00  0.00     0.050 C 
HETATM   34  C19 UNL     1      74.882  64.403  17.813  1.00  0.00     0.015 A 
HETATM   35  C20 UNL     1      74.796  63.079  18.190  1.00  0.00    -0.061 A 
HETATM   36  C21 UNL     1      74.236  62.752  19.513  1.00  0.00     0.048 C 
HETATM   37  C22 UNL     1      75.227  62.085  17.339  1.00  0.00     0.015 A 
HETATM   38  C23 UNL     1      75.753  62.374  16.099  1.00  0.00    -0.038 A 
HETATM   39  C24 UNL     1      76.194  61.267  15.254  1.00  0.00     0.050 C 
ENDBRANCH  28  31
ENDBRANCH  26  28
ENDBRANCH  23  26
ENDBRANCH  17  20
ENDBRANCH  13  16
ENDBRANCH   8  10
ENDBRANCH   3   4
TORSDOF 7
ENDMDL
MODEL 3
REMARK VINA RESULT: -6.966896309      0.546      1.690
REMARK  7 active torsions:
REMARK  status: ('A' for Active; 'I' for Inactive)
REMARK    1  A    between atoms: C3_3  and  N1_4 
REMARK       I    between atoms: N1_4  and  C5_6 
REMARK       I    between atoms: C5_6  and  N2_8 
REMARK    2  A    between atoms: N2_8  and  C7_10 
REMARK    3  A    between atoms: C10_13  and  N3_14 
REMARK       I    between atoms: N3_14  and  C11_16 
REMARK    4  A    between atoms: C11_16  and  C12_18 
REMARK    5  A    between atoms: C15_21  and  N4_22 
REMARK    6  A    between atoms: N4_22  and  S1_24 
REMARK    7  A    between atoms: S1_24  and  C16_27 
ROOT
HETATM    1  C1  UNL     1      91.830  56.919   9.913  1.00  0.00     0.014 C 
HETATM    2  C2  UNL     1      91.552  56.935  11.085  1.00  0.00    -0.098 C 
HETATM    3  C3  UNL     1      91.187  56.965  12.529  1.00  0.00     0.220 C 
ENDROOT
BRANCH   3   4
HETATM    4  N1  UNL     1      90.819  58.309  12.889  1.00  0.00    -0.328 N 
HETATM    5  C4  UNL     1      92.003  59.179  13.164  1.00  0.00     0.155 C 
HETATM    6  C5  UNL     1      89.547  58.864  13.009  1.00  0.00     0.325 C 
HETATM    7  O1  UNL     1      89.524  60.096  13.395  1.00  0.00    -0.247 OA
HETATM    8  N2  UNL     1      88.285  58.308  12.777  1.00  0.00    -0.304 N 
HETATM    9  C6  UNL     1      87.980  56.999  12.266  1.00  0.00     0.161 C 
BRANCH   8  10
HETATM   10  C7  UNL     1      87.105  59.121  13.048  1.00  0.00     0.038 A 
HETATM   11  C8  UNL     1      86.602  59.955  12.082  1.00  0.00     0.032 A 
HETATM   12  C9  UNL     1      85.497  60.711  12.350  1.00  0.00     0.032 A 
HETATM   13  C10 UNL     1      84.841  60.669  13.601  1.00  0.00     0.035 A 
HETATM   14  C27 UNL     1      85.386  59.822  14.516  1.00  0.00     0.032 A 
HETATM   15  C28 UNL     1      86.510  59.039  14.275  1.00  0.00     0.032 A 
BRANCH  13  16
HETATM   16  N3  UNL     1      83.681  61.473  13.778  1.00  0.00    -0.323 N 
HETATM   17  C11 UNL     1      82.403  61.067  13.438  1.00  0.00     0.256 C 
HETATM   18  O2  UNL     1      82.160  59.943  12.950  1.00  0.00    -0.267 OA
ATOM     19  H3  UNL     1      83.799  62.403  14.180  1.00  0.00     0.169 HD
BRANCH  17  20
HETATM   20  C12 UNL     1      81.261  61.983  13.650  1.00  0.00     0.032 A 
HETATM   21  C13 UNL     1      80.419  61.881  14.725  1.00  0.00     0.019 A 
HETATM   22  C14 UNL     1      79.367  62.752  14.876  1.00  0.00     0.031 A 
HETATM   23  C15 UNL     1      79.099  63.775  13.958  1.00  0.00     0.042 A 
HETATM   24  C25 UNL     1      79.953  63.866  12.883  1.00  0.00     0.031 A 
HETATM   25  C26 UNL     1      81.010  62.994  12.726  1.00  0.00     0.019 A 
BRANCH  23  26
HETATM   26  N4  UNL     1      78.000  64.636  14.191  1.00  0.00    -0.281 N 
ATOM     27  H4  UNL     1      78.164  65.625  14.379  1.00  0.00     0.179 HD
BRANCH  26  28
HETATM   28  S1  UNL     1      76.400  64.037  14.159  1.00  0.00     0.264 S 
HETATM   29  O3  UNL     1      75.469  65.050  13.504  1.00  0.00    -0.200 OA
HETATM   30  O4  UNL     1      76.383  62.855  13.194  1.00  0.00    -0.200 OA
BRANCH  28  31
HETATM   31  C16 UNL     1      75.788  63.593  15.714  1.00  0.00     0.091 A 
HETATM   32  C17 UNL     1      75.378  64.604  16.591  1.00  0.00    -0.038 A 
HETATM   33  C18 UNL     1      75.462  66.026  16.173  1.00  0.00     0.050 C 
HETATM   34  C19 UNL     1      74.884  64.300  17.859  1.00  0.00     0.015 A 
HETATM   35  C20 UNL     1      74.811  62.973  18.226  1.00  0.00    -0.061 A 
HETATM   36  C21 UNL     1      74.293  62.632  19.562  1.00  0.00     0.048 C 
HETATM   37  C22 UNL     1      75.218  61.988  17.352  1.00  0.00     0.015 A 
HETATM   38  C23 UNL     1      75.705  62.290  16.100  1.00  0.00    -0.038 A 
HETATM   39  C24 UNL     1      76.121  61.193  15.230  1.00  0.00     0.050 C 
ENDBRANCH  28  31
ENDBRANCH  26  28
ENDBRANCH  23  26
ENDBRANCH  17  20
ENDBRANCH  13  16
ENDBRANCH   8  10
ENDBRANCH   3   4
TORSDOF 7
ENDMDL
MODEL 4
REMARK VINA RESULT: -6.915359498      3.981     12.616
REMARK  7 active torsions:
REMARK  status: ('A' for Active; 'I' for Inactive)
REMARK    1  A    between atoms: C3_3  and  N1_4 
REMARK       I    between atoms: N1_4  and  C5_6 
REMARK       I    between atoms: C5_6  and  N2_8 
REMARK    2  A    between atoms: N2_8  and  C7_10 
REMARK    3  A    between atoms: C10_13  and  N3_14 
REMARK       I    between atoms: N3_14  and  C11_16 
REMARK    4  A    between atoms: C11_16  and  C12_18 
REMARK    5  A    between atoms: C15_21  and  N4_22 
REMARK    6  A    between atoms: N4_22  and  S1_24 
REMARK    7  A    between atoms: S1_24  and  C16_27 
ROOT
HETATM    1  C1  UNL     1      76.501  71.227  13.162  1.00  0.00     0.014 C 
HETATM    2  C2  UNL     1      75.779  70.277  13.328  1.00  0.00    -0.098 C 
HETATM    3  C3  UNL     1      74.886  69.107  13.556  1.00  0.00     0.220 C 
ENDROOT
BRANCH   3   4
HETATM    4  N1  UNL     1      75.538  68.193  14.458  1.00  0.00    -0.328 N 
HETATM    5  C4  UNL     1      75.110  68.378  15.878  1.00  0.00     0.155 C 
HETATM    6  C5  UNL     1      76.479  67.206  14.173  1.00  0.00     0.325 C 
HETATM    7  O1  UNL     1      76.924  66.564  15.201  1.00  0.00    -0.247 OA
HETATM    8  N2  UNL     1      77.021  66.791  12.953  1.00  0.00    -0.304 N 
HETATM    9  C6  UNL     1      76.674  67.245  11.634  1.00  0.00     0.161 C 
BRANCH   8  10
HETATM   10  C7  UNL     1      78.051  65.756  12.964  1.00  0.00     0.038 A 
HETATM   11  C8  UNL     1      79.361  66.086  13.204  1.00  0.00     0.032 A 
HETATM   12  C9  UNL     1      80.312  65.107  13.211  1.00  0.00     0.032 A 
HETATM   13  C10 UNL     1      80.000  63.750  12.977  1.00  0.00     0.035 A 
HETATM   14  C27 UNL     1      78.685  63.487  12.747  1.00  0.00     0.032 A 
HETATM   15  C28 UNL     1      77.690  64.460  12.733  1.00  0.00     0.032 A 
BRANCH  13  16
HETATM   16  N3  UNL     1      81.055  62.798  13.030  1.00  0.00    -0.323 N 
HETATM   17  C11 UNL     1      81.293  61.971  14.113  1.00  0.00     0.256 C 
HETATM   18  O2  UNL     1      80.584  61.986  15.142  1.00  0.00    -0.267 OA
ATOM     19  H3  UNL     1      81.673  62.721  12.222  1.00  0.00     0.169 HD
BRANCH  17  20
HETATM   20  C12 UNL     1      82.427  61.021  14.076  1.00  0.00     0.032 A 
HETATM   21  C13 UNL     1      82.291  59.721  13.668  1.00  0.00     0.019 A 
HETATM   22  C14 UNL     1      83.374  58.875  13.658  1.00  0.00     0.031 A 
HETATM   23  C15 UNL     1      84.652  59.281  14.056  1.00  0.00     0.042 A 
HETATM   24  C25 UNL     1      84.774  60.590  14.464  1.00  0.00     0.031 A 
HETATM   25  C26 UNL     1      83.691  61.445  14.477  1.00  0.00     0.019 A 
BRANCH  23  26
HETATM   26  N4  UNL     1      85.716  58.349  14.008  1.00  0.00    -0.281 N 
ATOM     27  H4  UNL     1      86.074  57.946  14.874  1.00  0.00     0.179 HD
BRANCH  26  28
HETATM   28  S1  UNL     1      86.408  57.891  12.515  1.00  0.00     0.264 S 
HETATM   29  O3  UNL     1      87.776  57.257  12.737  1.00  0.00    -0.200 OA
HETATM   30  O4  UNL     1      85.565  56.745  11.963  1.00  0.00    -0.200 OA
BRANCH  28  31
HETATM   31  C16 UNL     1      86.536  59.186  11.376  1.00  0.00     0.091 A 
HETATM   32  C17 UNL     1      85.678  59.199  10.270  1.00  0.00    -0.038 A 
HETATM   33  C18 UNL     1      84.672  58.120  10.100  1.00  0.00     0.050 C 
HETATM   34  C19 UNL     1      85.746  60.216   9.319  1.00  0.00     0.015 A 
HETATM   35  C20 UNL     1      86.684  61.210   9.498  1.00  0.00    -0.061 A 
HETATM   36  C21 UNL     1      86.772  62.293   8.503  1.00  0.00     0.048 C 
HETATM   37  C22 UNL     1      87.523  61.185  10.591  1.00  0.00     0.015 A 
HETATM   38  C23 UNL     1      87.454  60.179  11.530  1.00  0.00    -0.038 A 
HETATM   39  C24 UNL     1      88.379  60.217  12.661  1.00  0.00     0.050 C 
ENDBRANCH  28  31
ENDBRANCH  26  28
ENDBRANCH  23  26
ENDBRANCH  17  20
ENDBRANCH  13  16
ENDBRANCH   8  10
ENDBRANCH   3   4
TORSDOF 7
ENDMDL
MODEL 5
REMARK VINA RESULT: -6.884245141      3.907     12.670
REMARK  7 active torsions:
REMARK  status: ('A' for Active; 'I' for Inactive)
REMARK    1  A    between atoms: C3_3  and  N1_4 
REMARK       I    between atoms: N1_4  and  C5_6 
REMARK       I    between atoms: C5_6  and  N2_8 
REMARK    2  A    between atoms: N2_8  and  C7_10 
REMARK    3  A    between atoms: C10_13  and  N3_14 
REMARK       I    between atoms: N3_14  and  C11_16 
REMARK    4  A    between atoms: C11_16  and  C12_18 
REMARK    5  A    between atoms: C15_21  and  N4_22 
REMARK    6  A    between atoms: N4_22  and  S1_24 
REMARK    7  A    between atoms: S1_24  and  C16_27 
ROOT
HETATM    1  C1  UNL     1      76.154  71.134  14.055  1.00  0.00     0.014 C 
HETATM    2  C2  UNL     1      75.530  70.139  13.789  1.00  0.00    -0.098 C 
HETATM    3  C3  UNL     1      74.751  68.907  13.482  1.00  0.00     0.220 C 
ENDROOT
BRANCH   3   4
HETATM    4  N1  UNL     1      75.243  67.829  14.301  1.00  0.00    -0.328 N 
HETATM    5  C4  UNL     1      74.544  67.740  15.620  1.00  0.00     0.155 C 
HETATM    6  C5  UNL     1      76.248  66.907  14.021  1.00  0.00     0.325 C 
HETATM    7  O1  UNL     1      76.506  66.074  14.974  1.00  0.00    -0.247 OA
HETATM    8  N2  UNL     1      77.028  66.731  12.873  1.00  0.00    -0.304 N 
HETATM    9  C6  UNL     1      76.929  67.436  11.625  1.00  0.00     0.161 C 
BRANCH   8  10
HETATM   10  C7  UNL     1      78.065  65.704  12.886  1.00  0.00     0.038 A 
HETATM   11  C8  UNL     1      79.337  66.011  13.296  1.00  0.00     0.032 A 
HETATM   12  C9  UNL     1      80.297  65.040  13.302  1.00  0.00     0.032 A 
HETATM   13  C10 UNL     1      80.030  63.713  12.897  1.00  0.00     0.035 A 
HETATM   14  C27 UNL     1      78.750  63.472  12.504  1.00  0.00     0.032 A 
HETATM   15  C28 UNL     1      77.748  64.438  12.485  1.00  0.00     0.032 A 
BRANCH  13  16
HETATM   16  N3  UNL     1      81.087  62.765  12.962  1.00  0.00    -0.323 N 
HETATM   17  C11 UNL     1      81.307  61.930  14.043  1.00  0.00     0.256 C 
HETATM   18  O2  UNL     1      80.579  61.934  15.058  1.00  0.00    -0.267 OA
ATOM     19  H3  UNL     1      81.721  62.696  12.166  1.00  0.00     0.169 HD
BRANCH  17  20
HETATM   20  C12 UNL     1      82.445  60.984  14.020  1.00  0.00     0.032 A 
HETATM   21  C13 UNL     1      82.317  59.681  13.619  1.00  0.00     0.019 A 
HETATM   22  C14 UNL     1      83.403  58.839  13.621  1.00  0.00     0.031 A 
HETATM   23  C15 UNL     1      84.677  59.252  14.027  1.00  0.00     0.042 A 
HETATM   24  C25 UNL     1      84.790  60.564  14.428  1.00  0.00     0.031 A 
HETATM   25  C26 UNL     1      83.705  61.414  14.428  1.00  0.00     0.019 A 
BRANCH  23  26
HETATM   26  N4  UNL     1      85.744  58.324  13.992  1.00  0.00    -0.281 N 
ATOM     27  H4  UNL     1      86.088  57.917  14.862  1.00  0.00     0.179 HD
BRANCH  26  28
HETATM   28  S1  UNL     1      86.463  57.875  12.508  1.00  0.00     0.264 S 
HETATM   29  O3  UNL     1      87.860  57.315  12.745  1.00  0.00    -0.200 OA
HETATM   30  O4  UNL     1      85.680  56.679  11.975  1.00  0.00    -0.200 OA
BRANCH  28  31
HETATM   31  C16 UNL     1      86.530  59.155  11.348  1.00  0.00     0.091 A 
HETATM   32  C17 UNL     1      87.459  60.186  11.534  1.00  0.00    -0.038 A 
HETATM   33  C18 UNL     1      88.372  60.158  12.705  1.00  0.00     0.050 C 
HETATM   34  C19 UNL     1      87.549  61.246  10.633  1.00  0.00     0.015 A 
HETATM   35  C20 UNL     1      86.695  61.250   9.550  1.00  0.00    -0.061 A 
HETATM   36  C21 UNL     1      86.773  62.362   8.586  1.00  0.00     0.048 C 
HETATM   37  C22 UNL     1      85.785  60.229   9.379  1.00  0.00     0.015 A 
HETATM   38  C23 UNL     1      85.698  59.183  10.271  1.00  0.00    -0.038 A 
HETATM   39  C24 UNL     1      84.706  58.139  10.026  1.00  0.00     0.050 C 
ENDBRANCH  28  31
ENDBRANCH  26  28
ENDBRANCH  23  26
ENDBRANCH  17  20
ENDBRANCH  13  16
ENDBRANCH   8  10
ENDBRANCH   3   4
TORSDOF 7
ENDMDL
