MODEL 1
REMARK VINA RESULT: -4.496108050      0.000      0.000
REMARK  7 active torsions:
REMARK  status: ('A' for Active; 'I' for Inactive)
REMARK    1  A    between atoms: C2_2  and  C5_5 
REMARK    2  A    between atoms: C5_5  and  O1_7 
REMARK    3  A    between atoms: C5_5  and  C7_9 
REMARK    4  A    between atoms: C7_9  and  S1_10 
REMARK    5  A    between atoms: S1_10  and  C8_11 
REMARK    6  A    between atoms: C8_11  and  N1_13 
REMARK    7  A    between atoms: N1_13  and  N2_15 
ROOT
HETATM    1  C7  UNL     1      24.104   6.944  13.717  1.00  0.00     0.119 C 
ENDROOT
BRANCH   1   2
HETATM    2  C5  UNL     1      23.887   5.481  13.511  1.00  0.00     0.069 C 
HETATM    3  C6  UNL     1      25.278   4.842  13.540  1.00  0.00     0.047 C 
BRANCH   2   4
HETATM    4  C2  UNL     1      23.184   5.138  12.218  1.00  0.00    -0.020 C 
HETATM    5  C1  UNL     1      23.935   5.657  11.013  1.00  0.00     0.017 C 
HETATM    6  C3  UNL     1      23.168   3.609  12.085  1.00  0.00     0.017 C 
HETATM    7  C4  UNL     1      21.762   5.601  12.142  1.00  0.00     0.017 C 
ENDBRANCH   2   4
BRANCH   2   8
HETATM    8  O1  UNL     1      23.163   4.952  14.554  1.00  0.00    -0.389 OA
ATOM      9  H1  UNL     1      23.388   5.425  15.347  1.00  0.00     0.210 HD
ENDBRANCH   2   8
ENDBRANCH   1   2
BRANCH   1  10
HETATM   10  S1  UNL     1      25.438   7.387  14.793  1.00  0.00    -0.096 SA
BRANCH  10  11
HETATM   11  C8  UNL     1      25.163   7.194  16.519  1.00  0.00     0.152 C 
HETATM   12  S2  UNL     1      24.447   8.287  17.481  1.00  0.00    -0.051 SA
BRANCH  11  13
HETATM   13  N1  UNL     1      25.592   5.949  17.106  1.00  0.00    -0.291 N 
ATOM     14  H1  UNL     1      26.497   5.899  17.574  1.00  0.00     0.188 HD
BRANCH  13  15
HETATM   15  N2  UNL     1      24.783   4.808  17.044  1.00  0.00    -0.344 N 
ATOM     16  H22 UNL     1      23.794   4.924  16.825  1.00  0.00     0.176 HD
ATOM     17  H21 UNL     1      25.172   3.881  17.213  1.00  0.00     0.176 HD
ENDBRANCH  13  15
ENDBRANCH  11  13
ENDBRANCH  10  11
ENDBRANCH   1  10
TORSDOF 7
ENDMDL
MODEL 2
REMARK VINA RESULT: -4.494868071      1.587      2.284
REMARK  7 active torsions:
REMARK  status: ('A' for Active; 'I' for Inactive)
REMARK    1  A    between atoms: C2_2  and  C5_5 
REMARK    2  A    between atoms: C5_5  and  O1_7 
REMARK    3  A    between atoms: C5_5  and  C7_9 
REMARK    4  A    between atoms: C7_9  and  S1_10 
REMARK    5  A    between atoms: S1_10  and  C8_11 
REMARK    6  A    between atoms: C8_11  and  N1_13 
REMARK    7  A    between atoms: N1_13  and  N2_15 
ROOT
HETATM    1  C7  UNL     1      22.575   5.634  13.279  1.00  0.00     0.119 C 
ENDROOT
BRANCH   1   2
HETATM    2  C5  UNL     1      23.185   4.780  12.216  1.00  0.00     0.069 C 
HETATM    3  C6  UNL     1      24.264   5.640  11.553  1.00  0.00     0.047 C 
BRANCH   2   4
HETATM    4  C2  UNL     1      22.200   4.289  11.180  1.00  0.00    -0.020 C 
HETATM    5  C1  UNL     1      20.792   4.748  11.479  1.00  0.00     0.017 C 
HETATM    6  C3  UNL     1      22.580   4.925   9.836  1.00  0.00     0.017 C 
HETATM    7  C4  UNL     1      22.197   2.806  10.980  1.00  0.00     0.017 C 
ENDBRANCH   2   4
BRANCH   2   8
HETATM    8  O1  UNL     1      23.807   3.689  12.777  1.00  0.00    -0.389 OA
ATOM      9  H1  UNL     1      23.971   3.875  13.695  1.00  0.00     0.210 HD
ENDBRANCH   2   8
ENDBRANCH   1   2
BRANCH   1  10
HETATM   10  S1  UNL     1      23.617   6.897  13.951  1.00  0.00    -0.096 SA
BRANCH  10  11
HETATM   11  C8  UNL     1      24.953   6.369  14.965  1.00  0.00     0.152 C 
HETATM   12  S2  UNL     1      26.210   7.292  15.413  1.00  0.00    -0.051 SA
BRANCH  11  13
HETATM   13  N1  UNL     1      24.900   5.012  15.448  1.00  0.00    -0.291 N 
ATOM     14  H1  UNL     1      24.970   4.239  14.786  1.00  0.00     0.188 HD
BRANCH  13  15
HETATM   15  N2  UNL     1      24.754   4.740  16.813  1.00  0.00    -0.344 N 
ATOM     16  H22 UNL     1      25.586   4.505  17.355  1.00  0.00     0.176 HD
ATOM     17  H21 UNL     1      23.838   4.777  17.260  1.00  0.00     0.176 HD
ENDBRANCH  13  15
ENDBRANCH  11  13
ENDBRANCH  10  11
ENDBRANCH   1  10
TORSDOF 7
ENDMDL
MODEL 3
REMARK VINA RESULT: -4.483973002      0.060      1.177
REMARK  7 active torsions:
REMARK  status: ('A' for Active; 'I' for Inactive)
REMARK    1  A    between atoms: C2_2  and  C5_5 
REMARK    2  A    between atoms: C5_5  and  O1_7 
REMARK    3  A    between atoms: C5_5  and  C7_9 
REMARK    4  A    between atoms: C7_9  and  S1_10 
REMARK    5  A    between atoms: S1_10  and  C8_11 
REMARK    6  A    between atoms: C8_11  and  N1_13 
REMARK    7  A    between atoms: N1_13  and  N2_15 
ROOT
HETATM    1  C7  UNL     1      24.099   6.932  13.681  1.00  0.00     0.119 C 
ENDROOT
BRANCH   1   2
HETATM    2  C5  UNL     1      23.909   5.464  13.480  1.00  0.00     0.069 C 
HETATM    3  C6  UNL     1      25.308   4.847  13.542  1.00  0.00     0.047 C 
BRANCH   2   4
HETATM    4  C2  UNL     1      23.238   5.103  12.174  1.00  0.00    -0.020 C 
HETATM    5  C1  UNL     1      23.094   3.608  12.010  1.00  0.00     0.017 C 
HETATM    6  C3  UNL     1      21.811   5.667  12.210  1.00  0.00     0.017 C 
HETATM    7  C4  UNL     1      23.903   5.665  10.957  1.00  0.00     0.017 C 
ENDBRANCH   2   4
BRANCH   2   8
HETATM    8  O1  UNL     1      23.171   4.932  14.511  1.00  0.00    -0.389 OA
ATOM      9  H1  UNL     1      22.899   5.640  15.084  1.00  0.00     0.210 HD
ENDBRANCH   2   8
ENDBRANCH   1   2
BRANCH   1  10
HETATM   10  S1  UNL     1      25.420   7.402  14.760  1.00  0.00    -0.096 SA
BRANCH  10  11
HETATM   11  C8  UNL     1      25.144   7.207  16.485  1.00  0.00     0.152 C 
HETATM   12  S2  UNL     1      24.426   8.298  17.449  1.00  0.00    -0.051 SA
BRANCH  11  13
HETATM   13  N1  UNL     1      25.573   5.961  17.071  1.00  0.00    -0.291 N 
ATOM     14  H1  UNL     1      26.481   5.909  17.533  1.00  0.00     0.188 HD
BRANCH  13  15
HETATM   15  N2  UNL     1      24.760   4.823  17.016  1.00  0.00    -0.344 N 
ATOM     16  H22 UNL     1      24.121   4.643  17.789  1.00  0.00     0.176 HD
ATOM     17  H21 UNL     1      24.806   4.186  16.220  1.00  0.00     0.176 HD
ENDBRANCH  13  15
ENDBRANCH  11  13
ENDBRANCH  10  11
ENDBRANCH   1  10
TORSDOF 7
ENDMDL
MODEL 4
REMARK VINA RESULT: -4.469896285      1.585      2.248
REMARK  7 active torsions:
REMARK  status: ('A' for Active; 'I' for Inactive)
REMARK    1  A    between atoms: C2_2  and  C5_5 
REMARK    2  A    between atoms: C5_5  and  O1_7 
REMARK    3  A    between atoms: C5_5  and  C7_9 
REMARK    4  A    between atoms: C7_9  and  S1_10 
REMARK    5  A    between atoms: S1_10  and  C8_11 
REMARK    6  A    between atoms: C8_11  and  N1_13 
REMARK    7  A    between atoms: N1_13  and  N2_15 
ROOT
HETATM    1  C7  UNL     1      22.553   5.618  13.249  1.00  0.00     0.119 C 
ENDROOT
BRANCH   1   2
HETATM    2  C5  UNL     1      23.196   4.788  12.186  1.00  0.00     0.069 C 
HETATM    3  C6  UNL     1      24.295   5.664  11.577  1.00  0.00     0.047 C 
BRANCH   2   4
HETATM    4  C2  UNL     1      22.245   4.322  11.108  1.00  0.00    -0.020 C 
HETATM    5  C1  UNL     1      22.206   2.815  11.005  1.00  0.00     0.017 C 
HETATM    6  C3  UNL     1      20.830   4.759  11.512  1.00  0.00     0.017 C 
HETATM    7  C4  UNL     1      22.513   4.896   9.752  1.00  0.00     0.017 C 
ENDBRANCH   2   4
BRANCH   2   8
HETATM    8  O1  UNL     1      23.801   3.685  12.741  1.00  0.00    -0.389 OA
ATOM      9  H1  UNL     1      23.366   2.906  12.413  1.00  0.00     0.210 HD
ENDBRANCH   2   8
ENDBRANCH   1   2
BRANCH   1  10
HETATM   10  S1  UNL     1      23.564   6.885  13.961  1.00  0.00    -0.096 SA
BRANCH  10  11
HETATM   11  C8  UNL     1      24.904   6.358  14.969  1.00  0.00     0.152 C 
HETATM   12  S2  UNL     1      26.164   7.282  15.411  1.00  0.00    -0.051 SA
BRANCH  11  13
HETATM   13  N1  UNL     1      24.853   5.002  15.456  1.00  0.00    -0.291 N 
ATOM     14  H1  UNL     1      24.879   4.228  14.792  1.00  0.00     0.188 HD
BRANCH  13  15
HETATM   15  N2  UNL     1      24.769   4.732  16.827  1.00  0.00    -0.344 N 
ATOM     16  H22 UNL     1      25.245   5.358  17.476  1.00  0.00     0.176 HD
ATOM     17  H21 UNL     1      24.244   3.928  17.171  1.00  0.00     0.176 HD
ENDBRANCH  13  15
ENDBRANCH  11  13
ENDBRANCH  10  11
ENDBRANCH   1  10
TORSDOF 7
ENDMDL
MODEL 5
REMARK VINA RESULT: -4.469887463      3.064      5.241
REMARK  7 active torsions:
REMARK  status: ('A' for Active; 'I' for Inactive)
REMARK    1  A    between atoms: C2_2  and  C5_5 
REMARK    2  A    between atoms: C5_5  and  O1_7 
REMARK    3  A    between atoms: C5_5  and  C7_9 
REMARK    4  A    between atoms: C7_9  and  S1_10 
REMARK    5  A    between atoms: S1_10  and  C8_11 
REMARK    6  A    between atoms: C8_11  and  N1_13 
REMARK    7  A    between atoms: N1_13  and  N2_15 
ROOT
HETATM    1  C7  UNL     1      24.995   6.206  14.806  1.00  0.00     0.119 C 
ENDROOT
BRANCH   1   2
HETATM    2  C5  UNL     1      24.487   5.862  16.168  1.00  0.00     0.069 C 
HETATM    3  C6  UNL     1      22.960   5.845  16.054  1.00  0.00     0.047 C 
BRANCH   2   4
HETATM    4  C2  UNL     1      24.917   6.828  17.248  1.00  0.00    -0.020 C 
HETATM    5  C1  UNL     1      25.343   8.160  16.676  1.00  0.00     0.017 C 
HETATM    6  C3  UNL     1      23.696   7.114  18.133  1.00  0.00     0.017 C 
HETATM    7  C4  UNL     1      26.001   6.314  18.145  1.00  0.00     0.017 C 
ENDBRANCH   2   4
BRANCH   2   8
HETATM    8  O1  UNL     1      24.893   4.598  16.526  1.00  0.00    -0.389 OA
ATOM      9  H1  UNL     1      25.472   4.670  17.276  1.00  0.00     0.210 HD
ENDBRANCH   2   8
ENDBRANCH   1   2
BRANCH   1  10
HETATM   10  S1  UNL     1      25.252   4.842  13.707  1.00  0.00    -0.096 SA
BRANCH  10  11
HETATM   11  C8  UNL     1      24.068   4.621  12.426  1.00  0.00     0.152 C 
HETATM   12  S2  UNL     1      23.759   5.689  11.243  1.00  0.00    -0.051 SA
BRANCH  11  13
HETATM   13  N1  UNL     1      23.341   3.377  12.425  1.00  0.00    -0.291 N 
ATOM     14  H1  UNL     1      23.519   2.690  13.158  1.00  0.00     0.188 HD
BRANCH  13  15
HETATM   15  N2  UNL     1      22.394   3.098  11.433  1.00  0.00    -0.344 N 
ATOM     16  H22 UNL     1      21.715   3.819  11.192  1.00  0.00     0.176 HD
ATOM     17  H21 UNL     1      22.381   2.194  10.961  1.00  0.00     0.176 HD
ENDBRANCH  13  15
ENDBRANCH  11  13
ENDBRANCH  10  11
ENDBRANCH   1  10
TORSDOF 7
ENDMDL
