MODEL 1
REMARK VINA RESULT: -5.717595065      0.000      0.000
REMARK  2 active torsions:
REMARK  status: ('A' for Active; 'I' for Inactive)
REMARK    1  A    between atoms: C2_2  and  C4_5 
REMARK    2  A    between atoms: C4_5  and  C5_6 
ROOT
HETATM    1  C1  UNL     1     -33.146   5.992  20.434  1.00  0.00     0.025 C 
HETATM    2  C2  UNL     1     -34.225   5.910  19.401  1.00  0.00     0.092 C 
HETATM    3  C3  UNL     1     -35.422   5.372  20.105  1.00  0.00     0.063 C 
HETATM    4  N1  UNL     1     -36.359   4.956  20.638  1.00  0.00    -0.197 NA
ENDROOT
BRANCH   2   5
HETATM    5  C4  UNL     1     -33.978   5.058  18.223  1.00  0.00     0.064 C 
BRANCH   5   6
HETATM    6  C5  UNL     1     -34.484   5.483  16.903  1.00  0.00     0.116 C 
HETATM    7  C6  UNL     1     -34.757   7.005  17.038  1.00  0.00     0.055 C 
HETATM    8  O1  UNL     1     -33.520   5.320  15.885  1.00  0.00    -0.371 OA
HETATM    9  C7  UNL     1     -34.036   5.770  14.694  1.00  0.00     0.189 C 
HETATM   10  C8  UNL     1     -34.902   4.651  14.121  1.00  0.00     0.147 C 
HETATM   11  N2  UNL     1     -35.898   4.353  15.120  1.00  0.00    -0.376 N 
HETATM   12  C9  UNL     1     -35.754   4.905  16.444  1.00  0.00     0.105 C 
ATOM     13  H2  UNL     1     -36.695   3.759  14.893  1.00  0.00     0.160 HD
HETATM   14  N3  UNL     1     -36.796   4.880  17.196  1.00  0.00    -0.387 N 
ATOM     15  H32 UNL     1     -36.694   5.270  18.134  1.00  0.00     0.157 HD
ATOM     16  H31 UNL     1     -37.678   4.478  16.878  1.00  0.00     0.157 HD
ENDBRANCH   5   6
ENDBRANCH   2   5
TORSDOF 2
ENDMDL
MODEL 2
REMARK VINA RESULT: -5.546675715      1.040      1.162
REMARK  2 active torsions:
REMARK  status: ('A' for Active; 'I' for Inactive)
REMARK    1  A    between atoms: C2_2  and  C4_5 
REMARK    2  A    between atoms: C4_5  and  C5_6 
ROOT
HETATM    1  C1  UNL     1     -33.352   4.946  19.521  1.00  0.00     0.025 C 
HETATM    2  C2  UNL     1     -34.642   5.191  18.803  1.00  0.00     0.092 C 
HETATM    3  C3  UNL     1     -35.709   5.089  19.836  1.00  0.00     0.063 C 
HETATM    4  N1  UNL     1     -36.548   5.013  20.628  1.00  0.00    -0.197 NA
ENDROOT
BRANCH   2   5
HETATM    5  C4  UNL     1     -34.994   4.273  17.704  1.00  0.00     0.064 C 
BRANCH   5   6
HETATM    6  C5  UNL     1     -35.327   4.826  16.377  1.00  0.00     0.116 C 
HETATM    7  C6  UNL     1     -34.992   6.339  16.467  1.00  0.00     0.055 C 
HETATM    8  O1  UNL     1     -34.523   4.279  15.354  1.00  0.00    -0.371 OA
HETATM    9  C7  UNL     1     -34.854   4.863  14.155  1.00  0.00     0.189 C 
HETATM   10  C8  UNL     1     -36.096   4.149  13.627  1.00  0.00     0.147 C 
HETATM   11  N2  UNL     1     -37.107   4.283  14.647  1.00  0.00    -0.376 N 
HETATM   12  C9  UNL     1     -36.732   4.770  15.950  1.00  0.00     0.105 C 
ATOM     13  H2  UNL     1     -38.076   4.034  14.448  1.00  0.00     0.160 HD
HETATM   14  N3  UNL     1     -37.687   5.166  16.715  1.00  0.00    -0.387 N 
ATOM     15  H32 UNL     1     -37.422   5.511  17.638  1.00  0.00     0.157 HD
ATOM     16  H31 UNL     1     -38.663   5.127  16.419  1.00  0.00     0.157 HD
ENDBRANCH   5   6
ENDBRANCH   2   5
TORSDOF 2
ENDMDL
MODEL 3
REMARK VINA RESULT: -5.512831510      1.416      1.678
REMARK  2 active torsions:
REMARK  status: ('A' for Active; 'I' for Inactive)
REMARK    1  A    between atoms: C2_2  and  C4_5 
REMARK    2  A    between atoms: C4_5  and  C5_6 
ROOT
HETATM    1  C1  UNL     1     -34.261   3.816  19.562  1.00  0.00     0.025 C 
HETATM    2  C2  UNL     1     -33.597   5.030  18.992  1.00  0.00     0.092 C 
HETATM    3  C3  UNL     1     -32.848   5.650  20.119  1.00  0.00     0.063 C 
HETATM    4  N1  UNL     1     -32.261   6.143  20.985  1.00  0.00    -0.197 NA
ENDROOT
BRANCH   2   5
HETATM    5  C4  UNL     1     -34.465   6.068  18.406  1.00  0.00     0.064 C 
BRANCH   5   6
HETATM    6  C5  UNL     1     -34.812   5.996  16.972  1.00  0.00     0.116 C 
HETATM    7  C6  UNL     1     -35.177   7.448  16.565  1.00  0.00     0.055 C 
HETATM    8  O1  UNL     1     -33.715   5.600  16.177  1.00  0.00    -0.371 OA
HETATM    9  C7  UNL     1     -34.091   5.593  14.856  1.00  0.00     0.189 C 
HETATM   10  C8  UNL     1     -34.817   4.275  14.596  1.00  0.00     0.147 C 
HETATM   11  N2  UNL     1     -35.920   4.227  15.524  1.00  0.00    -0.376 N 
HETATM   12  C9  UNL     1     -35.980   5.187  16.596  1.00  0.00     0.105 C 
ATOM     13  H2  UNL     1     -36.648   3.521  15.422  1.00  0.00     0.160 HD
HETATM   14  N3  UNL     1     -37.110   5.311  17.198  1.00  0.00    -0.387 N 
ATOM     15  H32 UNL     1     -37.153   5.992  17.957  1.00  0.00     0.157 HD
ATOM     16  H31 UNL     1     -37.921   4.750  16.936  1.00  0.00     0.157 HD
ENDBRANCH   5   6
ENDBRANCH   2   5
TORSDOF 2
ENDMDL
MODEL 4
REMARK VINA RESULT: -5.505567150      2.377      5.630
REMARK  2 active torsions:
REMARK  status: ('A' for Active; 'I' for Inactive)
REMARK    1  A    between atoms: C2_2  and  C4_5 
REMARK    2  A    between atoms: C4_5  and  C5_6 
ROOT
HETATM    1  C1  UNL     1     -36.035   2.282  12.524  1.00  0.00     0.025 C 
HETATM    2  C2  UNL     1     -35.968   3.753  12.788  1.00  0.00     0.092 C 
HETATM    3  C3  UNL     1     -35.798   4.398  11.457  1.00  0.00     0.063 C 
HETATM    4  N1  UNL     1     -35.667   4.912  10.429  1.00  0.00    -0.197 NA
ENDROOT
BRANCH   2   5
HETATM    5  C4  UNL     1     -34.885   4.239  13.662  1.00  0.00     0.064 C 
BRANCH   5   6
HETATM    6  C5  UNL     1     -35.215   4.749  15.008  1.00  0.00     0.116 C 
HETATM    7  C6  UNL     1     -36.764   4.827  15.049  1.00  0.00     0.055 C 
HETATM    8  O1  UNL     1     -34.812   3.861  16.028  1.00  0.00    -0.371 OA
HETATM    9  C7  UNL     1     -35.183   4.373  17.248  1.00  0.00     0.189 C 
HETATM   10  C8  UNL     1     -34.124   5.395  17.654  1.00  0.00     0.147 C 
HETATM   11  N2  UNL     1     -34.074   6.372  16.595  1.00  0.00    -0.376 N 
HETATM   12  C9  UNL     1     -34.753   6.101  15.353  1.00  0.00     0.105 C 
ATOM     13  H2  UNL     1     -33.563   7.246  16.723  1.00  0.00     0.160 HD
HETATM   14  N3  UNL     1     -34.948   7.103  14.571  1.00  0.00    -0.387 N 
ATOM     15  H32 UNL     1     -35.429   6.910  13.691  1.00  0.00     0.157 HD
ATOM     16  H31 UNL     1     -34.629   8.041  14.811  1.00  0.00     0.157 HD
ENDBRANCH   5   6
ENDBRANCH   2   5
TORSDOF 2
ENDMDL
MODEL 5
REMARK VINA RESULT: -5.354618835      1.795      2.225
REMARK  2 active torsions:
REMARK  status: ('A' for Active; 'I' for Inactive)
REMARK    1  A    between atoms: C2_2  and  C4_5 
REMARK    2  A    between atoms: C4_5  and  C5_6 
ROOT
HETATM    1  C1  UNL     1     -33.883   4.762  18.870  1.00  0.00     0.025 C 
HETATM    2  C2  UNL     1     -34.512   5.509  17.737  1.00  0.00     0.092 C 
HETATM    3  C3  UNL     1     -35.537   6.395  18.354  1.00  0.00     0.063 C 
HETATM    4  N1  UNL     1     -36.337   7.089  18.819  1.00  0.00    -0.197 NA
ENDROOT
BRANCH   2   5
HETATM    5  C4  UNL     1     -35.178   4.719  16.686  1.00  0.00     0.064 C 
BRANCH   5   6
HETATM    6  C5  UNL     1     -34.788   4.915  15.275  1.00  0.00     0.116 C 
HETATM    7  C6  UNL     1     -33.535   5.829  15.319  1.00  0.00     0.055 C 
HETATM    8  O1  UNL     1     -34.405   3.707  14.654  1.00  0.00    -0.371 OA
HETATM    9  C7  UNL     1     -34.017   3.964  13.362  1.00  0.00     0.189 C 
HETATM   10  C8  UNL     1     -35.284   4.054  12.515  1.00  0.00     0.147 C 
HETATM   11  N2  UNL     1     -36.095   5.090  13.103  1.00  0.00    -0.376 N 
HETATM   12  C9  UNL     1     -35.740   5.612  14.398  1.00  0.00     0.105 C 
ATOM     13  H2  UNL     1     -36.912   5.449  12.609  1.00  0.00     0.160 HD
HETATM   14  N3  UNL     1     -36.285   6.725  14.742  1.00  0.00    -0.387 N 
ATOM     15  H32 UNL     1     -36.033   7.095  15.659  1.00  0.00     0.157 HD
ATOM     16  H31 UNL     1     -36.945   7.209  14.133  1.00  0.00     0.157 HD
ENDBRANCH   5   6
ENDBRANCH   2   5
TORSDOF 2
ENDMDL
