MODEL 1
REMARK VINA RESULT: -6.049276324      0.000      0.000
REMARK  6 active torsions:
REMARK  status: ('A' for Active; 'I' for Inactive)
REMARK    1  A    between atoms: C2_2  and  C3_3 
REMARK    2  A    between atoms: C3_3  and  N1_4 
REMARK    3  A    between atoms: N1_4  and  C4_5 
REMARK    4  A    between atoms: C4_5  and  C5_6 
REMARK    5  A    between atoms: C5_6  and  N2_7 
REMARK       I    between atoms: N2_7  and  C6_9 
REMARK    6  A    between atoms: C6_9  and  C7_11 
ROOT
HETATM    1  C7  UNL     1      -1.111  16.264  17.724  1.00  0.00     0.209 C 
HETATM    2  C8  UNL     1      -0.426  15.063  18.359  1.00  0.00     0.155 C 
HETATM    3  N3  UNL     1      -1.360  14.063  18.770  1.00  0.00    -0.383 N 
ATOM      4  H3  UNL     1      -1.906  14.132  19.629  1.00  0.00     0.160 HD
HETATM    5  C9  UNL     1      -1.462  12.951  17.867  1.00  0.00     0.193 C 
HETATM    6  N4  UNL     1      -1.421  13.296  16.489  1.00  0.00    -0.189 N 
ATOM      7  H4  UNL     1      -1.091  12.563  15.862  1.00  0.00     0.184 HD
HETATM    8  C10 UNL     1      -1.776  14.518  15.869  1.00  0.00     0.673 C 
HETATM    9  N5  UNL     1      -2.190  14.457  14.632  1.00  0.00    -0.235 N 
ATOM     10  H51 UNL     1      -2.446  15.337  14.186  1.00  0.00     0.174 HD
ATOM     11  H52 UNL     1      -2.233  13.539  14.190  1.00  0.00     0.174 HD
HETATM   12  N6  UNL     1      -1.716  15.803  16.489  1.00  0.00    -0.212 N 
ATOM     13  H6  UNL     1      -2.188  16.537  15.962  1.00  0.00     0.178 HD
ENDROOT
BRANCH   1  14
HETATM   14  C6  UNL     1      -0.174  17.370  17.492  1.00  0.00     0.242 C 
HETATM   15  N2  UNL     1      -0.329  18.332  16.463  1.00  0.00    -0.358 N 
ATOM     16  H2  UNL     1      -1.143  18.237  15.855  1.00  0.00     0.162 HD
HETATM   17  O1  UNL     1       0.822  17.470  18.250  1.00  0.00    -0.271 OA
BRANCH  15  18
HETATM   18  C5  UNL     1       0.560  19.431  16.202  1.00  0.00     0.150 C 
BRANCH  18  19
HETATM   19  C4  UNL     1       1.607  19.133  15.161  1.00  0.00     0.258 C 
BRANCH  19  20
HETATM   20  N1  UNL     1       1.851  20.274  14.294  1.00  0.00    -0.055 N 
HETATM   21  C11 UNL     1       0.732  21.049  13.807  1.00  0.00     0.271 A 
HETATM   22  C12 UNL     1       1.477  20.177  12.905  1.00  0.00     0.213 A 
HETATM   23  C13 UNL     1       2.299  20.829  11.831  1.00  0.00     0.042 C 
BRANCH  20  24
HETATM   24  C3  UNL     1       3.097  20.957  14.591  1.00  0.00     0.265 C 
BRANCH  24  25
HETATM   25  C2  UNL     1       4.228  20.069  14.873  1.00  0.00    -0.009 C 
HETATM   26  C1  UNL     1       5.352  20.070  14.170  1.00  0.00     0.008 C 
ENDBRANCH  24  25
ENDBRANCH  20  24
ENDBRANCH  19  20
ENDBRANCH  18  19
ENDBRANCH  15  18
ENDBRANCH   1  14
TORSDOF 6
ENDMDL
MODEL 2
REMARK VINA RESULT: -5.853170684      5.106      8.400
REMARK  6 active torsions:
REMARK  status: ('A' for Active; 'I' for Inactive)
REMARK    1  A    between atoms: C2_2  and  C3_3 
REMARK    2  A    between atoms: C3_3  and  N1_4 
REMARK    3  A    between atoms: N1_4  and  C4_5 
REMARK    4  A    between atoms: C4_5  and  C5_6 
REMARK    5  A    between atoms: C5_6  and  N2_7 
REMARK       I    between atoms: N2_7  and  C6_9 
REMARK    6  A    between atoms: C6_9  and  C7_11 
ROOT
HETATM    1  C7  UNL     1       0.347  17.005  18.687  1.00  0.00     0.209 C 
HETATM    2  C8  UNL     1      -0.698  17.670  17.804  1.00  0.00     0.155 C 
HETATM    3  N3  UNL     1      -0.712  17.127  16.482  1.00  0.00    -0.383 N 
ATOM      4  H3  UNL     1      -0.030  17.385  15.769  1.00  0.00     0.160 HD
HETATM    5  C9  UNL     1      -1.772  16.188  16.246  1.00  0.00     0.193 C 
HETATM    6  N4  UNL     1      -2.040  15.307  17.328  1.00  0.00    -0.189 N 
ATOM      7  H4  UNL     1      -2.987  14.931  17.366  1.00  0.00     0.184 HD
HETATM    8  C10 UNL     1      -1.171  14.879  18.361  1.00  0.00     0.673 C 
HETATM    9  N5  UNL     1      -1.408  13.709  18.889  1.00  0.00    -0.235 N 
ATOM     10  H51 UNL     1      -0.782  13.401  19.633  1.00  0.00     0.174 HD
ATOM     11  H52 UNL     1      -2.199  13.176  18.529  1.00  0.00     0.174 HD
HETATM   12  N6  UNL     1      -0.063  15.626  18.865  1.00  0.00    -0.212 N 
ATOM     13  H6  UNL     1       0.559  15.086  19.466  1.00  0.00     0.178 HD
ENDROOT
BRANCH   1  14
HETATM   14  C6  UNL     1       0.500  17.698  19.972  1.00  0.00     0.242 C 
HETATM   15  N2  UNL     1      -0.453  17.638  21.019  1.00  0.00    -0.358 N 
ATOM     16  H2  UNL     1      -1.290  17.078  20.856  1.00  0.00     0.162 HD
HETATM   17  O1  UNL     1       1.536  18.384  20.154  1.00  0.00    -0.271 OA
BRANCH  15  18
HETATM   18  C5  UNL     1      -0.344  18.297  22.292  1.00  0.00     0.150 C 
BRANCH  18  19
HETATM   19  C4  UNL     1      -0.601  17.394  23.470  1.00  0.00     0.258 C 
BRANCH  19  20
HETATM   20  N1  UNL     1      -1.410  18.045  24.487  1.00  0.00    -0.055 N 
HETATM   21  C11 UNL     1      -1.333  19.480  24.646  1.00  0.00     0.271 A 
HETATM   22  C12 UNL     1      -0.751  18.592  25.647  1.00  0.00     0.213 A 
HETATM   23  C13 UNL     1      -1.399  18.553  27.001  1.00  0.00     0.042 C 
BRANCH  20  24
HETATM   24  C3  UNL     1      -2.684  17.386  24.707  1.00  0.00     0.265 C 
BRANCH  24  25
HETATM   25  C2  UNL     1      -3.831  18.051  24.083  1.00  0.00    -0.009 C 
HETATM   26  C1  UNL     1      -5.093  17.762  24.376  1.00  0.00     0.008 C 
ENDBRANCH  24  25
ENDBRANCH  20  24
ENDBRANCH  19  20
ENDBRANCH  18  19
ENDBRANCH  15  18
ENDBRANCH   1  14
TORSDOF 6
ENDMDL
MODEL 3
REMARK VINA RESULT: -5.833440665      2.417      3.473
REMARK  6 active torsions:
REMARK  status: ('A' for Active; 'I' for Inactive)
REMARK    1  A    between atoms: C2_2  and  C3_3 
REMARK    2  A    between atoms: C3_3  and  N1_4 
REMARK    3  A    between atoms: N1_4  and  C4_5 
REMARK    4  A    between atoms: C4_5  and  C5_6 
REMARK    5  A    between atoms: C5_6  and  N2_7 
REMARK       I    between atoms: N2_7  and  C6_9 
REMARK    6  A    between atoms: C6_9  and  C7_11 
ROOT
HETATM    1  C7  UNL     1      -1.551  14.380  17.472  1.00  0.00     0.209 C 
HETATM    2  C8  UNL     1      -0.269  13.585  17.278  1.00  0.00     0.155 C 
HETATM    3  N3  UNL     1      -0.514  12.180  17.176  1.00  0.00    -0.383 N 
ATOM      4  H3  UNL     1      -0.690  11.588  17.987  1.00  0.00     0.160 HD
HETATM    5  C9  UNL     1      -0.490  11.678  15.832  1.00  0.00     0.193 C 
HETATM    6  N4  UNL     1      -1.092  12.529  14.866  1.00  0.00    -0.189 N 
ATOM      7  H4  UNL     1      -0.752  12.420  13.911  1.00  0.00     0.184 HD
HETATM    8  C10 UNL     1      -2.098  13.508  15.049  1.00  0.00     0.673 C 
HETATM    9  N5  UNL     1      -2.873  13.760  14.029  1.00  0.00    -0.235 N 
ATOM     10  H51 UNL     1      -3.598  14.465  14.161  1.00  0.00     0.174 HD
ATOM     11  H52 UNL     1      -2.709  13.241  13.167  1.00  0.00     0.174 HD
HETATM   12  N6  UNL     1      -2.329  14.235  16.257  1.00  0.00    -0.212 N 
ATOM     13  H6  UNL     1      -3.208  14.751  16.266  1.00  0.00     0.178 HD
ENDROOT
BRANCH   1  14
HETATM   14  C6  UNL     1      -1.281  15.790  17.780  1.00  0.00     0.242 C 
HETATM   15  N2  UNL     1      -0.661  16.231  18.976  1.00  0.00    -0.358 N 
ATOM     16  H2  UNL     1      -0.394  15.516  19.653  1.00  0.00     0.162 HD
HETATM   17  O1  UNL     1      -1.618  16.655  16.935  1.00  0.00    -0.271 OA
BRANCH  15  18
HETATM   18  C5  UNL     1      -0.375  17.597  19.317  1.00  0.00     0.150 C 
BRANCH  18  19
HETATM   19  C4  UNL     1       1.076  17.973  19.165  1.00  0.00     0.258 C 
BRANCH  19  20
HETATM   20  N1  UNL     1       1.251  19.126  18.297  1.00  0.00    -0.055 N 
HETATM   21  C11 UNL     1       0.086  19.814  17.786  1.00  0.00     0.271 A 
HETATM   22  C12 UNL     1       0.911  18.998  16.901  1.00  0.00     0.213 A 
HETATM   23  C13 UNL     1       1.702  19.705  15.840  1.00  0.00     0.042 C 
BRANCH  20  24
HETATM   24  C3  UNL     1       2.436  19.901  18.614  1.00  0.00     0.265 C 
BRANCH  24  25
HETATM   25  C2  UNL     1       3.163  19.447  19.802  1.00  0.00    -0.009 C 
HETATM   26  C1  UNL     1       3.966  20.229  20.512  1.00  0.00     0.008 C 
ENDBRANCH  24  25
ENDBRANCH  20  24
ENDBRANCH  19  20
ENDBRANCH  18  19
ENDBRANCH  15  18
ENDBRANCH   1  14
TORSDOF 6
ENDMDL
MODEL 4
REMARK VINA RESULT: -5.829099120      3.331      3.969
REMARK  6 active torsions:
REMARK  status: ('A' for Active; 'I' for Inactive)
REMARK    1  A    between atoms: C2_2  and  C3_3 
REMARK    2  A    between atoms: C3_3  and  N1_4 
REMARK    3  A    between atoms: N1_4  and  C4_5 
REMARK    4  A    between atoms: C4_5  and  C5_6 
REMARK    5  A    between atoms: C5_6  and  N2_7 
REMARK       I    between atoms: N2_7  and  C6_9 
REMARK    6  A    between atoms: C6_9  and  C7_11 
ROOT
HETATM    1  C7  UNL     1      -1.189  16.029  17.913  1.00  0.00     0.209 C 
HETATM    2  C8  UNL     1      -0.491  14.793  18.462  1.00  0.00     0.155 C 
HETATM    3  N3  UNL     1      -1.415  13.756  18.797  1.00  0.00    -0.383 N 
ATOM      4  H3  UNL     1      -1.962  13.757  19.658  1.00  0.00     0.160 HD
HETATM    5  C9  UNL     1      -1.504  12.711  17.817  1.00  0.00     0.193 C 
HETATM    6  N4  UNL     1      -1.465  13.155  16.467  1.00  0.00    -0.189 N 
ATOM      7  H4  UNL     1      -1.127  12.473  15.789  1.00  0.00     0.184 HD
HETATM    8  C10 UNL     1      -1.833  14.415  15.936  1.00  0.00     0.673 C 
HETATM    9  N5  UNL     1      -2.245  14.439  14.698  1.00  0.00    -0.235 N 
ATOM     10  H51 UNL     1      -2.510  15.346  14.316  1.00  0.00     0.174 HD
ATOM     11  H52 UNL     1      -2.278  13.556  14.190  1.00  0.00     0.174 HD
HETATM   12  N6  UNL     1      -1.787  15.652  16.648  1.00  0.00    -0.212 N 
ATOM     13  H6  UNL     1      -2.267  16.418  16.175  1.00  0.00     0.178 HD
ENDROOT
BRANCH   1  14
HETATM   14  C6  UNL     1      -0.264  17.160  17.764  1.00  0.00     0.242 C 
HETATM   15  N2  UNL     1       0.861  17.374  18.597  1.00  0.00    -0.358 N 
ATOM     16  H2  UNL     1       1.025  16.696  19.342  1.00  0.00     0.162 HD
HETATM   17  O1  UNL     1      -0.484  17.985  16.843  1.00  0.00    -0.271 OA
BRANCH  15  18
HETATM   18  C5  UNL     1       1.792  18.463  18.486  1.00  0.00     0.150 C 
BRANCH  18  19
HETATM   19  C4  UNL     1       2.103  19.136  19.797  1.00  0.00     0.258 C 
BRANCH  19  20
HETATM   20  N1  UNL     1       2.969  20.290  19.624  1.00  0.00    -0.055 N 
HETATM   21  C11 UNL     1       2.383  21.607  19.510  1.00  0.00     0.271 A 
HETATM   22  C12 UNL     1       2.981  20.959  18.347  1.00  0.00     0.213 A 
HETATM   23  C13 UNL     1       4.242  21.554  17.792  1.00  0.00     0.042 C 
BRANCH  20  24
HETATM   24  C3  UNL     1       4.245  20.151  20.302  1.00  0.00     0.265 C 
BRANCH  24  25
HETATM   25  C2  UNL     1       4.480  21.128  21.368  1.00  0.00    -0.009 C 
HETATM   26  C1  UNL     1       5.681  21.601  21.674  1.00  0.00     0.008 C 
ENDBRANCH  24  25
ENDBRANCH  20  24
ENDBRANCH  19  20
ENDBRANCH  18  19
ENDBRANCH  15  18
ENDBRANCH   1  14
TORSDOF 6
ENDMDL
MODEL 5
REMARK VINA RESULT: -5.788097394      3.175      4.084
REMARK  6 active torsions:
REMARK  status: ('A' for Active; 'I' for Inactive)
REMARK    1  A    between atoms: C2_2  and  C3_3 
REMARK    2  A    between atoms: C3_3  and  N1_4 
REMARK    3  A    between atoms: N1_4  and  C4_5 
REMARK    4  A    between atoms: C4_5  and  C5_6 
REMARK    5  A    between atoms: C5_6  and  N2_7 
REMARK       I    between atoms: N2_7  and  C6_9 
REMARK    6  A    between atoms: C6_9  and  C7_11 
ROOT
HETATM    1  C7  UNL     1      -1.202  16.041  17.855  1.00  0.00     0.209 C 
HETATM    2  C8  UNL     1      -0.499  14.815  18.417  1.00  0.00     0.155 C 
HETATM    3  N3  UNL     1      -1.418  13.776  18.763  1.00  0.00    -0.383 N 
ATOM      4  H3  UNL     1      -1.966  13.784  19.623  1.00  0.00     0.160 HD
HETATM    5  C9  UNL     1      -1.500  12.721  17.793  1.00  0.00     0.193 C 
HETATM    6  N4  UNL     1      -1.462  13.151  16.439  1.00  0.00    -0.189 N 
ATOM      7  H4  UNL     1      -1.119  12.463  15.769  1.00  0.00     0.184 HD
HETATM    8  C10 UNL     1      -1.835  14.403  15.894  1.00  0.00     0.673 C 
HETATM    9  N5  UNL     1      -2.246  14.412  14.655  1.00  0.00    -0.235 N 
ATOM     10  H51 UNL     1      -2.515  15.314  14.263  1.00  0.00     0.174 HD
ATOM     11  H52 UNL     1      -2.273  13.523  14.157  1.00  0.00     0.174 HD
HETATM   12  N6  UNL     1      -1.797  15.648  16.592  1.00  0.00    -0.212 N 
ATOM     13  H6  UNL     1      -2.279  16.406  16.111  1.00  0.00     0.178 HD
ENDROOT
BRANCH   1  14
HETATM   14  C6  UNL     1      -0.283  17.175  17.695  1.00  0.00     0.242 C 
HETATM   15  N2  UNL     1       0.830  17.414  18.539  1.00  0.00    -0.358 N 
ATOM     16  H2  UNL     1       0.988  16.752  19.300  1.00  0.00     0.162 HD
HETATM   17  O1  UNL     1      -0.495  17.979  16.754  1.00  0.00    -0.271 OA
BRANCH  15  18
HETATM   18  C5  UNL     1       1.755  18.507  18.418  1.00  0.00     0.150 C 
BRANCH  18  19
HETATM   19  C4  UNL     1       2.648  18.686  19.618  1.00  0.00     0.258 C 
BRANCH  19  20
HETATM   20  N1  UNL     1       2.854  20.088  19.938  1.00  0.00    -0.055 N 
HETATM   21  C11 UNL     1       3.457  20.448  21.202  1.00  0.00     0.271 A 
HETATM   22  C12 UNL     1       2.038  20.690  20.964  1.00  0.00     0.213 A 
HETATM   23  C13 UNL     1       1.584  22.117  20.860  1.00  0.00     0.042 C 
BRANCH  20  24
HETATM   24  C3  UNL     1       3.143  20.901  18.771  1.00  0.00     0.265 C 
BRANCH  24  25
HETATM   25  C2  UNL     1       4.492  21.471  18.742  1.00  0.00    -0.009 C 
HETATM   26  C1  UNL     1       5.120  21.810  17.624  1.00  0.00     0.008 C 
ENDBRANCH  24  25
ENDBRANCH  20  24
ENDBRANCH  19  20
ENDBRANCH  18  19
ENDBRANCH  15  18
ENDBRANCH   1  14
TORSDOF 6
ENDMDL
