MODEL 1
REMARK VINA RESULT: -5.755793698      0.000      0.000
REMARK  7 active torsions:
REMARK  status: ('A' for Active; 'I' for Inactive)
REMARK    1  A    between atoms: C3_3  and  N1_4 
REMARK    2  A    between atoms: N1_4  and  C4_5 
REMARK    3  A    between atoms: C5_6  and  O1_7 
REMARK    4  A    between atoms: C5_6  and  N2_9 
REMARK    5  A    between atoms: N2_9  and  C6_11 
REMARK    6  A    between atoms: C12_17  and  C13_18 
REMARK    7  A    between atoms: C13_18  and  O2_19 
ROOT
HETATM    1  C1  UNL     1       3.086  19.950  20.511  1.00  0.00     0.013 C 
HETATM    2  C2  UNL     1       2.546  19.113  19.819  1.00  0.00    -0.088 C 
HETATM    3  C3  UNL     1       1.932  18.086  18.984  1.00  0.00     0.346 C 
ENDROOT
BRANCH   3   4
HETATM    4  N1  UNL     1       0.510  18.210  18.860  1.00  0.00     0.029 N 
HETATM    5  C11 UNL     1       0.022  17.495  17.664  1.00  0.00     0.281 C 
HETATM    6  C12 UNL     1      -0.415  16.170  18.183  1.00  0.00     0.135 C 
HETATM    7  N3  UNL     1      -1.101  16.597  19.382  1.00  0.00    -0.347 N 
HETATM    8  C14 UNL     1      -0.180  17.570  19.934  1.00  0.00     0.280 C 
ATOM      9  H3  UNL     1      -2.003  16.291  19.747  1.00  0.00     0.163 HD
HETATM   10  N4  UNL     1      -0.103  17.705  21.200  1.00  0.00    -0.365 N 
ATOM     11  H42 UNL     1       0.545  18.390  21.589  1.00  0.00     0.159 HD
ATOM     12  H41 UNL     1      -0.596  17.248  21.967  1.00  0.00     0.159 HD
BRANCH   4  13
HETATM   13  C4  UNL     1       0.050  19.547  18.674  1.00  0.00     0.268 C 
HETATM   14  C5  UNL     1       0.302  20.321  17.511  1.00  0.00     0.160 C 
BRANCH  14  15
HETATM   15  O1  UNL     1      -0.208  21.521  17.514  1.00  0.00    -0.345 OA
ATOM     16  H1  UNL     1       0.419  22.231  17.434  1.00  0.00     0.219 HD
ENDBRANCH  14  15
BRANCH  14  17
HETATM   17  N2  UNL     1       1.010  20.015  16.354  1.00  0.00    -0.365 N 
ATOM     18  H2  UNL     1       0.840  19.119  15.895  1.00  0.00     0.162 HD
BRANCH  17  19
HETATM   19  C6  UNL     1       2.000  20.940  15.764  1.00  0.00     0.083 C 
HETATM   20  C7  UNL     1       1.913  20.908  14.273  1.00  0.00     0.025 C 
HETATM   21  C8  UNL     1       3.292  20.606  13.740  1.00  0.00     0.002 C 
HETATM   22  C9  UNL     1       4.124  20.152  14.910  1.00  0.00     0.002 C 
HETATM   23  C10 UNL     1       3.397  20.576  16.156  1.00  0.00     0.025 C 
ENDBRANCH  17  19
ENDBRANCH  14  17
ENDBRANCH   4  13
BRANCH   6  24
HETATM   24  C13 UNL     1      -1.358  15.456  17.229  1.00  0.00     0.190 C 
BRANCH  24  25
HETATM   25  O2  UNL     1      -1.436  16.182  16.060  1.00  0.00    -0.399 OA
ATOM     26  H2  UNL     1      -2.272  16.004  15.647  1.00  0.00     0.209 HD
ENDBRANCH  24  25
ENDBRANCH   6  24
ENDBRANCH   3   4
TORSDOF 7
ENDMDL
MODEL 2
REMARK VINA RESULT: -5.546534398      2.390      5.471
REMARK  7 active torsions:
REMARK  status: ('A' for Active; 'I' for Inactive)
REMARK    1  A    between atoms: C3_3  and  N1_4 
REMARK    2  A    between atoms: N1_4  and  C4_5 
REMARK    3  A    between atoms: C5_6  and  O1_7 
REMARK    4  A    between atoms: C5_6  and  N2_9 
REMARK    5  A    between atoms: N2_9  and  C6_11 
REMARK    6  A    between atoms: C12_17  and  C13_18 
REMARK    7  A    between atoms: C13_18  and  O2_19 
ROOT
HETATM    1  C1  UNL     1       3.707  19.661  20.258  1.00  0.00     0.013 C 
HETATM    2  C2  UNL     1       2.912  19.157  19.493  1.00  0.00    -0.088 C 
HETATM    3  C3  UNL     1       1.983  18.521  18.564  1.00  0.00     0.346 C 
ENDROOT
BRANCH   3   4
HETATM    4  N1  UNL     1       0.671  19.095  18.569  1.00  0.00     0.029 N 
HETATM    5  C11 UNL     1       0.725  20.530  18.912  1.00  0.00     0.281 C 
HETATM    6  C12 UNL     1       0.723  21.221  17.593  1.00  0.00     0.135 C 
HETATM    7  N3  UNL     1      -0.290  20.442  16.916  1.00  0.00    -0.347 N 
HETATM    8  C14 UNL     1       0.076  19.086  17.270  1.00  0.00     0.280 C 
ATOM      9  H3  UNL     1      -1.064  20.765  16.336  1.00  0.00     0.163 HD
HETATM   10  N4  UNL     1      -0.148  18.144  16.440  1.00  0.00    -0.365 N 
ATOM     11  H42 UNL     1       0.109  17.189  16.689  1.00  0.00     0.159 HD
ATOM     12  H41 UNL     1      -0.572  18.137  15.512  1.00  0.00     0.159 HD
BRANCH   4  13
HETATM   13  C4  UNL     1      -0.210  18.541  19.544  1.00  0.00     0.268 C 
HETATM   14  C5  UNL     1      -0.607  17.178  19.576  1.00  0.00     0.160 C 
BRANCH  14  15
HETATM   15  O1  UNL     1      -1.409  16.850  20.549  1.00  0.00    -0.345 OA
ATOM     16  H1  UNL     1      -1.186  16.049  21.010  1.00  0.00     0.219 HD
ENDBRANCH  14  15
BRANCH  14  17
HETATM   17  N2  UNL     1      -0.281  16.119  18.736  1.00  0.00    -0.365 N 
ATOM     18  H2  UNL     1       0.647  16.094  18.313  1.00  0.00     0.162 HD
BRANCH  17  19
HETATM   19  C6  UNL     1      -1.232  15.030  18.432  1.00  0.00     0.083 C 
HETATM   20  C7  UNL     1      -0.492  13.792  18.040  1.00  0.00     0.025 C 
HETATM   21  C8  UNL     1      -1.024  13.346  16.701  1.00  0.00     0.002 C 
HETATM   22  C9  UNL     1      -1.851  14.481  16.156  1.00  0.00     0.002 C 
HETATM   23  C10 UNL     1      -2.151  15.396  17.310  1.00  0.00     0.025 C 
ENDBRANCH  17  19
ENDBRANCH  14  17
ENDBRANCH   4  13
BRANCH   6  24
HETATM   24  C13 UNL     1       0.318  22.681  17.704  1.00  0.00     0.190 C 
BRANCH  24  25
HETATM   25  O2  UNL     1      -1.037  22.781  17.474  1.00  0.00    -0.399 OA
ATOM     26  H2  UNL     1      -1.500  22.509  18.258  1.00  0.00     0.209 HD
ENDBRANCH  24  25
ENDBRANCH   6  24
ENDBRANCH   3   4
TORSDOF 7
ENDMDL
MODEL 3
REMARK VINA RESULT: -5.388859758      8.353     11.659
REMARK  7 active torsions:
REMARK  status: ('A' for Active; 'I' for Inactive)
REMARK    1  A    between atoms: C3_3  and  N1_4 
REMARK    2  A    between atoms: N1_4  and  C4_5 
REMARK    3  A    between atoms: C5_6  and  O1_7 
REMARK    4  A    between atoms: C5_6  and  N2_9 
REMARK    5  A    between atoms: N2_9  and  C6_11 
REMARK    6  A    between atoms: C12_17  and  C13_18 
REMARK    7  A    between atoms: C13_18  and  O2_19 
ROOT
HETATM    1  C1  UNL     1      -6.040  19.677  23.455  1.00  0.00     0.013 C 
HETATM    2  C2  UNL     1      -5.330  19.433  24.407  1.00  0.00    -0.088 C 
HETATM    3  C3  UNL     1      -4.491  19.171  25.573  1.00  0.00     0.346 C 
ENDROOT
BRANCH   3   4
HETATM    4  N1  UNL     1      -3.749  17.948  25.493  1.00  0.00     0.029 N 
HETATM    5  C11 UNL     1      -3.336  17.672  24.103  1.00  0.00     0.281 C 
HETATM    6  C12 UNL     1      -1.947  18.200  24.023  1.00  0.00     0.135 C 
HETATM    7  N3  UNL     1      -1.432  17.711  25.283  1.00  0.00    -0.347 N 
HETATM    8  C14 UNL     1      -2.510  18.026  26.199  1.00  0.00     0.280 C 
ATOM      9  H3  UNL     1      -0.539  17.260  25.478  1.00  0.00     0.163 HD
HETATM   10  N4  UNL     1      -2.233  18.320  27.409  1.00  0.00    -0.365 N 
ATOM     11  H42 UNL     1      -2.991  18.541  28.054  1.00  0.00     0.159 HD
ATOM     12  H41 UNL     1      -1.348  18.376  27.913  1.00  0.00     0.159 HD
BRANCH   4  13
HETATM   13  C4  UNL     1      -4.487  16.787  25.871  1.00  0.00     0.268 C 
HETATM   14  C5  UNL     1      -5.294  16.700  27.035  1.00  0.00     0.160 C 
BRANCH  14  15
HETATM   15  O1  UNL     1      -5.904  15.562  27.211  1.00  0.00    -0.345 OA
ATOM     16  H1  UNL     1      -5.345  14.793  27.199  1.00  0.00     0.219 HD
ENDBRANCH  14  15
BRANCH  14  17
HETATM   17  N2  UNL     1      -5.547  17.633  28.035  1.00  0.00    -0.365 N 
ATOM     18  H2  UNL     1      -4.802  17.866  28.692  1.00  0.00     0.162 HD
BRANCH  17  19
HETATM   19  C6  UNL     1      -6.858  18.300  28.180  1.00  0.00     0.083 C 
HETATM   20  C7  UNL     1      -7.587  17.756  29.365  1.00  0.00     0.025 C 
HETATM   21  C8  UNL     1      -8.942  17.291  28.894  1.00  0.00     0.002 C 
HETATM   22  C9  UNL     1      -8.902  17.271  27.389  1.00  0.00     0.002 C 
HETATM   23  C10 UNL     1      -7.717  18.097  26.972  1.00  0.00     0.025 C 
ENDBRANCH  17  19
ENDBRANCH  14  17
ENDBRANCH   4  13
BRANCH   6  24
HETATM   24  C13 UNL     1      -1.175  17.624  22.848  1.00  0.00     0.190 C 
BRANCH  24  25
HETATM   25  O2  UNL     1      -1.820  16.487  22.412  1.00  0.00    -0.399 OA
ATOM     26  H2  UNL     1      -1.363  15.727  22.755  1.00  0.00     0.209 HD
ENDBRANCH  24  25
ENDBRANCH   6  24
ENDBRANCH   3   4
TORSDOF 7
ENDMDL
MODEL 4
REMARK VINA RESULT: -5.338148589      2.180      5.825
REMARK  7 active torsions:
REMARK  status: ('A' for Active; 'I' for Inactive)
REMARK    1  A    between atoms: C3_3  and  N1_4 
REMARK    2  A    between atoms: N1_4  and  C4_5 
REMARK    3  A    between atoms: C5_6  and  O1_7 
REMARK    4  A    between atoms: C5_6  and  N2_9 
REMARK    5  A    between atoms: N2_9  and  C6_11 
REMARK    6  A    between atoms: C12_17  and  C13_18 
REMARK    7  A    between atoms: C13_18  and  O2_19 
ROOT
HETATM    1  C1  UNL     1       1.832  19.779  15.061  1.00  0.00     0.013 C 
HETATM    2  C2  UNL     1       1.229  19.225  15.955  1.00  0.00    -0.088 C 
HETATM    3  C3  UNL     1       0.493  18.528  17.005  1.00  0.00     0.346 C 
ENDROOT
BRANCH   3   4
HETATM    4  N1  UNL     1       0.621  19.126  18.301  1.00  0.00     0.029 N 
HETATM    5  C11 UNL     1       2.022  19.086  18.763  1.00  0.00     0.281 C 
HETATM    6  C12 UNL     1       2.567  20.421  18.396  1.00  0.00     0.135 C 
HETATM    7  N3  UNL     1       1.455  21.253  18.800  1.00  0.00    -0.347 N 
HETATM    8  C14 UNL     1       0.317  20.521  18.279  1.00  0.00     0.280 C 
ATOM      9  H3  UNL     1       1.467  22.130  19.319  1.00  0.00     0.163 HD
HETATM   10  N4  UNL     1      -0.712  21.166  17.890  1.00  0.00    -0.365 N 
ATOM     11  H42 UNL     1      -1.512  20.651  17.524  1.00  0.00     0.159 HD
ATOM     12  H41 UNL     1      -0.928  22.162  17.875  1.00  0.00     0.159 HD
BRANCH   4  13
HETATM   13  C4  UNL     1      -0.102  18.455  19.332  1.00  0.00     0.268 C 
HETATM   14  C5  UNL     1      -0.584  17.124  19.230  1.00  0.00     0.160 C 
BRANCH  14  15
HETATM   15  O1  UNL     1      -1.213  16.674  20.278  1.00  0.00    -0.345 OA
ATOM     16  H1  UNL     1      -1.038  15.767  20.501  1.00  0.00     0.219 HD
ENDBRANCH  14  15
BRANCH  14  17
HETATM   17  N2  UNL     1      -0.499  16.206  18.188  1.00  0.00    -0.365 N 
ATOM     18  H2  UNL     1       0.277  16.280  17.530  1.00  0.00     0.162 HD
BRANCH  17  19
HETATM   19  C6  UNL     1      -1.493  15.129  18.001  1.00  0.00     0.083 C 
HETATM   20  C7  UNL     1      -0.803  13.823  17.776  1.00  0.00     0.025 C 
HETATM   21  C8  UNL     1      -1.335  13.239  16.491  1.00  0.00     0.002 C 
HETATM   22  C9  UNL     1      -2.104  14.333  15.798  1.00  0.00     0.002 C 
HETATM   23  C10 UNL     1      -2.380  15.394  16.826  1.00  0.00     0.025 C 
ENDBRANCH  17  19
ENDBRANCH  14  17
ENDBRANCH   4  13
BRANCH   6  24
HETATM   24  C13 UNL     1       3.828  20.766  19.170  1.00  0.00     0.190 C 
BRANCH  24  25
HETATM   25  O2  UNL     1       3.955  19.884  20.221  1.00  0.00    -0.399 OA
ATOM     26  H2  UNL     1       4.411  19.109  19.913  1.00  0.00     0.209 HD
ENDBRANCH  24  25
ENDBRANCH   6  24
ENDBRANCH   3   4
TORSDOF 7
ENDMDL
MODEL 5
REMARK VINA RESULT: -5.318502184      2.473      5.051
REMARK  7 active torsions:
REMARK  status: ('A' for Active; 'I' for Inactive)
REMARK    1  A    between atoms: C3_3  and  N1_4 
REMARK    2  A    between atoms: N1_4  and  C4_5 
REMARK    3  A    between atoms: C5_6  and  O1_7 
REMARK    4  A    between atoms: C5_6  and  N2_9 
REMARK    5  A    between atoms: N2_9  and  C6_11 
REMARK    6  A    between atoms: C12_17  and  C13_18 
REMARK    7  A    between atoms: C13_18  and  O2_19 
ROOT
HETATM    1  C1  UNL     1       3.325  20.440  18.487  1.00  0.00     0.013 C 
HETATM    2  C2  UNL     1       2.640  19.680  19.139  1.00  0.00    -0.088 C 
HETATM    3  C3  UNL     1       1.850  18.754  19.943  1.00  0.00     0.346 C 
ENDROOT
BRANCH   3   4
HETATM    4  N1  UNL     1       0.436  18.873  19.747  1.00  0.00     0.029 N 
HETATM    5  C11 UNL     1      -0.287  17.801  20.460  1.00  0.00     0.281 C 
HETATM    6  C12 UNL     1      -0.690  18.427  21.749  1.00  0.00     0.135 C 
HETATM    7  N3  UNL     1      -1.136  19.714  21.261  1.00  0.00    -0.347 N 
HETATM    8  C14 UNL     1      -0.087  20.070  20.326  1.00  0.00     0.280 C 
ATOM      9  H3  UNL     1      -1.974  20.238  21.511  1.00  0.00     0.163 HD
HETATM   10  N4  UNL     1       0.215  21.298  20.168  1.00  0.00    -0.365 N 
ATOM     11  H42 UNL     1       0.953  21.549  19.510  1.00  0.00     0.159 HD
ATOM     12  H41 UNL     1      -0.158  22.152  20.582  1.00  0.00     0.159 HD
BRANCH   4  13
HETATM   13  C4  UNL     1       0.015  18.729  18.391  1.00  0.00     0.268 C 
HETATM   14  C5  UNL     1      -0.164  17.480  17.742  1.00  0.00     0.160 C 
BRANCH  14  15
HETATM   15  O1  UNL     1      -0.564  17.544  16.503  1.00  0.00    -0.345 OA
ATOM     16  H1  UNL     1      -1.061  16.794  16.195  1.00  0.00     0.219 HD
ENDBRANCH  14  15
BRANCH  14  17
HETATM   17  N2  UNL     1       0.016  16.181  18.207  1.00  0.00    -0.365 N 
ATOM     18  H2  UNL     1       0.930  15.913  18.573  1.00  0.00     0.162 HD
BRANCH  17  19
HETATM   19  C6  UNL     1      -1.068  15.177  18.190  1.00  0.00     0.083 C 
HETATM   20  C7  UNL     1      -0.517  13.827  17.866  1.00  0.00     0.025 C 
HETATM   21  C8  UNL     1      -1.289  13.289  16.687  1.00  0.00     0.002 C 
HETATM   22  C9  UNL     1      -2.081  14.437  16.119  1.00  0.00     0.002 C 
HETATM   23  C10 UNL     1      -2.112  15.510  17.172  1.00  0.00     0.025 C 
ENDBRANCH  17  19
ENDBRANCH  14  17
ENDBRANCH   4  13
BRANCH   6  24
HETATM   24  C13 UNL     1      -1.818  17.673  22.432  1.00  0.00     0.190 C 
BRANCH  24  25
HETATM   25  O2  UNL     1      -1.827  16.376  21.965  1.00  0.00    -0.399 OA
ATOM     26  H2  UNL     1      -2.719  16.141  21.738  1.00  0.00     0.209 HD
ENDBRANCH  24  25
ENDBRANCH   6  24
ENDBRANCH   3   4
TORSDOF 7
ENDMDL
