MODEL 1
REMARK VINA RESULT: -3.988987707      0.000      0.000
REMARK  3 active torsions:
REMARK  status: ('A' for Active; 'I' for Inactive)
REMARK    1  A    between atoms: N1_2  and  C2_4 
REMARK    2  A    between atoms: C2_4  and  C3_5 
REMARK    3  A    between atoms: C4_6  and  C5_7 
ROOT
HETATM    1  C3  UNL     1      -1.133  14.572  17.711  1.00  0.00    -0.087 C 
HETATM    2  C4  UNL     1      -0.738  15.667  18.086  1.00  0.00    -0.101 C 
ENDROOT
BRANCH   1   3
HETATM    3  C2  UNL     1      -1.592  13.243  17.284  1.00  0.00     0.208 C 
BRANCH   3   4
HETATM    4  N1  UNL     1      -1.023  12.960  16.009  1.00  0.00    -0.416 N 
HETATM    5  C1  UNL     1      -1.817  13.361  14.874  1.00  0.00     0.140 C 
ATOM      6  H1  UNL     1      -0.116  12.505  15.906  1.00  0.00     0.153 HD
ENDBRANCH   3   4
ENDBRANCH   1   3
BRANCH   2   7
HETATM    7  C5  UNL     1      -0.239  16.965  18.544  1.00  0.00     0.057 C 
HETATM    8  C6  UNL     1      -0.191  17.937  17.384  1.00  0.00     0.023 C 
HETATM    9  C7  UNL     1      -1.094  17.434  19.676  1.00  0.00     0.023 C 
ENDBRANCH   2   7
TORSDOF 3
ENDMDL
MODEL 2
REMARK VINA RESULT: -3.907509328      0.543      1.295
REMARK  3 active torsions:
REMARK  status: ('A' for Active; 'I' for Inactive)
REMARK    1  A    between atoms: N1_2  and  C2_4 
REMARK    2  A    between atoms: C2_4  and  C3_5 
REMARK    3  A    between atoms: C4_6  and  C5_7 
ROOT
HETATM    1  C3  UNL     1      -1.210  14.785  17.790  1.00  0.00    -0.087 C 
HETATM    2  C4  UNL     1      -0.928  15.939  18.080  1.00  0.00    -0.101 C 
ENDROOT
BRANCH   1   3
HETATM    3  C2  UNL     1      -1.575  13.402  17.460  1.00  0.00     0.208 C 
BRANCH   3   4
HETATM    4  N1  UNL     1      -0.978  13.064  16.212  1.00  0.00    -0.416 N 
HETATM    5  C1  UNL     1      -1.784  13.333  15.047  1.00  0.00     0.140 C 
ATOM      6  H1  UNL     1      -0.043  12.661  16.147  1.00  0.00     0.153 HD
ENDBRANCH   3   4
ENDBRANCH   1   3
BRANCH   2   7
HETATM    7  C5  UNL     1      -0.602  17.317  18.454  1.00  0.00     0.057 C 
HETATM    8  C6  UNL     1       0.402  17.320  19.587  1.00  0.00     0.023 C 
HETATM    9  C7  UNL     1      -0.127  18.043  17.238  1.00  0.00     0.023 C 
ENDBRANCH   2   7
TORSDOF 3
ENDMDL
MODEL 3
REMARK VINA RESULT: -3.896604910      0.880      1.430
REMARK  3 active torsions:
REMARK  status: ('A' for Active; 'I' for Inactive)
REMARK    1  A    between atoms: N1_2  and  C2_4 
REMARK    2  A    between atoms: C2_4  and  C3_5 
REMARK    3  A    between atoms: C4_6  and  C5_7 
ROOT
HETATM    1  C3  UNL     1      -0.813  14.644  17.776  1.00  0.00    -0.087 C 
HETATM    2  C4  UNL     1      -0.809  15.757  18.282  1.00  0.00    -0.101 C 
ENDROOT
BRANCH   1   3
HETATM    3  C2  UNL     1      -0.834  13.320  17.141  1.00  0.00     0.208 C 
BRANCH   3   4
HETATM    4  N1  UNL     1      -2.010  13.222  16.343  1.00  0.00    -0.416 N 
HETATM    5  C1  UNL     1      -1.792  13.231  14.918  1.00  0.00     0.140 C 
ATOM      6  H1  UNL     1      -2.941  13.151  16.752  1.00  0.00     0.153 HD
ENDBRANCH   3   4
ENDBRANCH   1   3
BRANCH   2   7
HETATM    7  C5  UNL     1      -0.830  17.096  18.876  1.00  0.00     0.057 C 
HETATM    8  C6  UNL     1      -1.528  17.052  20.219  1.00  0.00     0.023 C 
HETATM    9  C7  UNL     1       0.572  17.607  18.953  1.00  0.00     0.023 C 
ENDBRANCH   2   7
TORSDOF 3
ENDMDL
MODEL 4
REMARK VINA RESULT: -3.706903193      1.036      1.145
REMARK  3 active torsions:
REMARK  status: ('A' for Active; 'I' for Inactive)
REMARK    1  A    between atoms: N1_2  and  C2_4 
REMARK    2  A    between atoms: C2_4  and  C3_5 
REMARK    3  A    between atoms: C4_6  and  C5_7 
ROOT
HETATM    1  C3  UNL     1      -0.833  13.736  17.096  1.00  0.00    -0.087 C 
HETATM    2  C4  UNL     1      -0.767  14.751  17.774  1.00  0.00    -0.101 C 
ENDROOT
BRANCH   1   3
HETATM    3  C2  UNL     1      -0.884  12.525  16.266  1.00  0.00     0.208 C 
BRANCH   3   4
HETATM    4  N1  UNL     1      -2.023  12.612  15.415  1.00  0.00    -0.416 N 
HETATM    5  C1  UNL     1      -1.975  13.658  14.424  1.00  0.00     0.140 C 
ATOM      6  H1  UNL     1      -2.817  11.978  15.501  1.00  0.00     0.153 HD
ENDBRANCH   3   4
ENDBRANCH   1   3
BRANCH   2   7
HETATM    7  C5  UNL     1      -0.678  15.983  18.562  1.00  0.00     0.057 C 
HETATM    8  C6  UNL     1      -0.640  17.183  17.639  1.00  0.00     0.023 C 
HETATM    9  C7  UNL     1      -1.815  16.014  19.530  1.00  0.00     0.023 C 
ENDBRANCH   2   7
TORSDOF 3
ENDMDL
MODEL 5
REMARK VINA RESULT: -3.603684404      2.797      5.035
REMARK  3 active torsions:
REMARK  status: ('A' for Active; 'I' for Inactive)
REMARK    1  A    between atoms: N1_2  and  C2_4 
REMARK    2  A    between atoms: C2_4  and  C3_5 
REMARK    3  A    between atoms: C4_6  and  C5_7 
ROOT
HETATM    1  C3  UNL     1      -1.606  16.068  19.202  1.00  0.00    -0.087 C 
HETATM    2  C4  UNL     1      -1.728  15.137  18.418  1.00  0.00    -0.101 C 
ENDROOT
BRANCH   1   3
HETATM    3  C2  UNL     1      -1.427  17.185  20.138  1.00  0.00     0.208 C 
BRANCH   3   4
HETATM    4  N1  UNL     1      -1.621  16.698  21.462  1.00  0.00    -0.416 N 
HETATM    5  C1  UNL     1      -2.001  17.690  22.437  1.00  0.00     0.140 C 
ATOM      6  H1  UNL     1      -1.500  15.714  21.704  1.00  0.00     0.153 HD
ENDBRANCH   3   4
ENDBRANCH   1   3
BRANCH   2   7
HETATM    7  C5  UNL     1      -1.848  14.011  17.490  1.00  0.00     0.057 C 
HETATM    8  C6  UNL     1      -2.401  14.493  16.165  1.00  0.00     0.023 C 
HETATM    9  C7  UNL     1      -0.515  13.346  17.370  1.00  0.00     0.023 C 
ENDBRANCH   2   7
TORSDOF 3
ENDMDL
