MODEL 1
REMARK VINA RESULT: -4.413916385      0.000      0.000
REMARK  3 active torsions:
REMARK  status: ('A' for Active; 'I' for Inactive)
REMARK    1  A    between atoms: O1_1  and  C1_3 
REMARK    2  A    between atoms: C2_5  and  N1_6 
REMARK    3  A    between atoms: C6_12  and  O3_13 
ROOT
HETATM    1  C1  UNL     1     -80.481  86.166  90.985  1.00  0.00     0.292 C 
HETATM    2  O2  UNL     1     -79.267  86.773  91.385  1.00  0.00    -0.331 OA
HETATM    3  C2  UNL     1     -79.027  85.613  92.117  1.00  0.00     0.265 C 
HETATM    4  C6  UNL     1     -80.524  85.567  92.397  1.00  0.00     0.222 C 
ENDROOT
BRANCH   3   5
HETATM    5  N1  UNL     1     -78.199  85.782  93.277  1.00  0.00    -0.322 N 
HETATM    6  C3  UNL     1     -78.083  86.825  94.128  1.00  0.00     0.111 A 
HETATM    7  C4  UNL     1     -77.159  86.530  95.094  1.00  0.00     0.106 A 
HETATM    8  N2  UNL     1     -76.710  85.296  94.825  1.00  0.00    -0.361 N 
HETATM    9  C5  UNL     1     -77.344  84.861  93.731  1.00  0.00     0.184 A 
ATOM     10  H2  UNL     1     -76.010  84.782  95.359  1.00  0.00     0.166 HD
ENDBRANCH   3   5
BRANCH   4  11
HETATM   11  O3  UNL     1     -80.860  86.490  93.373  1.00  0.00    -0.386 OA
ATOM     12  H3  UNL     1     -81.223  87.293  93.019  1.00  0.00     0.210 HD
ENDBRANCH   4  11
BRANCH   1  13
HETATM   13  O1  UNL     1     -81.505  87.030  90.711  1.00  0.00    -0.368 OA
ATOM     14  H1  UNL     1     -82.229  86.659  90.220  1.00  0.00     0.212 HD
ENDBRANCH   1  13
TORSDOF 3
ENDMDL
MODEL 2
REMARK VINA RESULT: -4.406969049      2.217      2.874
REMARK  3 active torsions:
REMARK  status: ('A' for Active; 'I' for Inactive)
REMARK    1  A    between atoms: O1_1  and  C1_3 
REMARK    2  A    between atoms: C2_5  and  N1_6 
REMARK    3  A    between atoms: C6_12  and  O3_13 
ROOT
HETATM    1  C1  UNL     1     -78.523  84.487  91.676  1.00  0.00     0.292 C 
HETATM    2  O2  UNL     1     -79.358  85.262  92.515  1.00  0.00    -0.331 OA
HETATM    3  C2  UNL     1     -78.233  86.041  92.773  1.00  0.00     0.265 C 
HETATM    4  C6  UNL     1     -77.417  84.756  92.705  1.00  0.00     0.222 C 
ENDROOT
BRANCH   3   5
HETATM    5  N1  UNL     1     -78.222  86.699  94.048  1.00  0.00    -0.322 N 
HETATM    6  C3  UNL     1     -77.308  86.671  95.042  1.00  0.00     0.111 A 
HETATM    7  C4  UNL     1     -77.729  87.461  96.077  1.00  0.00     0.106 A 
HETATM    8  N2  UNL     1     -78.911  87.973  95.707  1.00  0.00    -0.361 N 
HETATM    9  C5  UNL     1     -79.193  87.505  94.486  1.00  0.00     0.184 A 
ATOM     10  H2  UNL     1     -79.492  88.605  96.258  1.00  0.00     0.166 HD
ENDBRANCH   3   5
BRANCH   4  11
HETATM   11  O3  UNL     1     -77.568  84.028  93.873  1.00  0.00    -0.386 OA
ATOM     12  H3  UNL     1     -78.475  83.852  94.090  1.00  0.00     0.210 HD
ENDBRANCH   4  11
BRANCH   1  13
HETATM   13  O1  UNL     1     -78.872  83.170  91.558  1.00  0.00    -0.368 OA
ATOM     14  H1  UNL     1     -79.617  82.995  90.996  1.00  0.00     0.212 HD
ENDBRANCH   1  13
TORSDOF 3
ENDMDL
MODEL 3
REMARK VINA RESULT: -4.293423000      1.636      1.966
REMARK  3 active torsions:
REMARK  status: ('A' for Active; 'I' for Inactive)
REMARK    1  A    between atoms: O1_1  and  C1_3 
REMARK    2  A    between atoms: C2_5  and  N1_6 
REMARK    3  A    between atoms: C6_12  and  O3_13 
ROOT
HETATM    1  C1  UNL     1     -79.933  85.558  91.888  1.00  0.00     0.292 C 
HETATM    2  O2  UNL     1     -80.060  85.988  93.230  1.00  0.00    -0.331 OA
HETATM    3  C2  UNL     1     -78.784  86.528  93.088  1.00  0.00     0.265 C 
HETATM    4  C6  UNL     1     -78.451  85.326  92.213  1.00  0.00     0.222 C 
ENDROOT
BRANCH   3   5
HETATM    5  N1  UNL     1     -78.023  86.624  94.300  1.00  0.00    -0.322 N 
HETATM    6  C3  UNL     1     -78.248  87.340  95.424  1.00  0.00     0.111 A 
HETATM    7  C4  UNL     1     -77.242  87.115  96.323  1.00  0.00     0.106 A 
HETATM    8  N2  UNL     1     -76.396  86.255  95.739  1.00  0.00    -0.361 N 
HETATM    9  C5  UNL     1     -76.879  85.970  94.524  1.00  0.00     0.184 A 
ATOM     10  H2  UNL     1     -75.538  85.884  96.147  1.00  0.00     0.166 HD
ENDBRANCH   3   5
BRANCH   4  11
HETATM   11  O3  UNL     1     -78.233  84.206  92.997  1.00  0.00    -0.386 OA
ATOM     12  H3  UNL     1     -79.004  83.927  93.475  1.00  0.00     0.210 HD
ENDBRANCH   4  11
BRANCH   1  13
HETATM   13  O1  UNL     1     -80.622  84.420  91.569  1.00  0.00    -0.368 OA
ATOM     14  H1  UNL     1     -81.245  84.125  92.223  1.00  0.00     0.212 HD
ENDBRANCH   1  13
TORSDOF 3
ENDMDL
MODEL 4
REMARK VINA RESULT: -4.270002307      2.378      4.195
REMARK  3 active torsions:
REMARK  status: ('A' for Active; 'I' for Inactive)
REMARK    1  A    between atoms: O1_1  and  C1_3 
REMARK    2  A    between atoms: C2_5  and  N1_6 
REMARK    3  A    between atoms: C6_12  and  O3_13 
ROOT
HETATM    1  C1  UNL     1     -76.798  86.427  95.500  1.00  0.00     0.292 C 
HETATM    2  O2  UNL     1     -77.376  85.344  94.797  1.00  0.00    -0.331 OA
HETATM    3  C2  UNL     1     -77.529  86.228  93.732  1.00  0.00     0.265 C 
HETATM    4  C6  UNL     1     -77.816  87.310  94.766  1.00  0.00     0.222 C 
ENDROOT
BRANCH   3   5
HETATM    5  N1  UNL     1     -78.618  85.934  92.845  1.00  0.00    -0.322 N 
HETATM    6  C3  UNL     1     -79.669  86.692  92.464  1.00  0.00     0.111 A 
HETATM    7  C4  UNL     1     -80.457  85.986  91.597  1.00  0.00     0.106 A 
HETATM    8  N2  UNL     1     -79.878  84.785  91.450  1.00  0.00    -0.361 N 
HETATM    9  C5  UNL     1     -78.775  84.771  92.206  1.00  0.00     0.184 A 
ATOM     10  H2  UNL     1     -80.218  84.021  90.867  1.00  0.00     0.166 HD
ENDBRANCH   3   5
BRANCH   4  11
HETATM   11  O3  UNL     1     -79.105  87.179  95.254  1.00  0.00    -0.386 OA
ATOM     12  H3  UNL     1     -79.395  87.934  95.753  1.00  0.00     0.210 HD
ENDBRANCH   4  11
BRANCH   1  13
HETATM   13  O1  UNL     1     -76.959  86.396  96.859  1.00  0.00    -0.368 OA
ATOM     14  H1  UNL     1     -77.644  86.959  97.200  1.00  0.00     0.212 HD
ENDBRANCH   1  13
TORSDOF 3
ENDMDL
MODEL 5
REMARK VINA RESULT: -3.949549826      2.017      2.906
REMARK  3 active torsions:
REMARK  status: ('A' for Active; 'I' for Inactive)
REMARK    1  A    between atoms: O1_1  and  C1_3 
REMARK    2  A    between atoms: C2_5  and  N1_6 
REMARK    3  A    between atoms: C6_12  and  O3_13 
ROOT
HETATM    1  C1  UNL     1     -79.346  86.649  93.207  1.00  0.00     0.292 C 
HETATM    2  O2  UNL     1     -79.245  87.025  94.567  1.00  0.00    -0.331 OA
HETATM    3  C2  UNL     1     -77.892  87.243  94.319  1.00  0.00     0.265 C 
HETATM    4  C6  UNL     1     -77.946  86.045  93.379  1.00  0.00     0.222 C 
ENDROOT
BRANCH   3   5
HETATM    5  N1  UNL     1     -77.028  87.085  95.453  1.00  0.00    -0.322 N 
HETATM    6  C3  UNL     1     -77.314  87.027  96.773  1.00  0.00     0.111 A 
HETATM    7  C4  UNL     1     -76.158  86.868  97.488  1.00  0.00     0.106 A 
HETATM    8  N2  UNL     1     -75.161  86.829  96.593  1.00  0.00    -0.361 N 
HETATM    9  C5  UNL     1     -75.700  86.961  95.376  1.00  0.00     0.184 A 
ATOM     10  H2  UNL     1     -74.169  86.719  96.802  1.00  0.00     0.166 HD
ENDBRANCH   3   5
BRANCH   4  11
HETATM   11  O3  UNL     1     -77.946  84.864  94.103  1.00  0.00    -0.386 OA
ATOM     12  H3  UNL     1     -78.766  84.390  94.045  1.00  0.00     0.210 HD
ENDBRANCH   4  11
BRANCH   1  13
HETATM   13  O1  UNL     1     -80.321  85.734  92.922  1.00  0.00    -0.368 OA
ATOM     14  H1  UNL     1     -80.371  85.462  92.013  1.00  0.00     0.212 HD
ENDBRANCH   1  13
TORSDOF 3
ENDMDL
