MODEL 1
REMARK VINA RESULT: -5.360082993      0.000      0.000
REMARK  4 active torsions:
REMARK  status: ('A' for Active; 'I' for Inactive)
REMARK    1  A    between atoms: O1_3  and  N2_4 
REMARK       I    between atoms: C2_6  and  N4_8 
REMARK    2  A    between atoms: N4_8  and  N5_10 
REMARK    3  A    between atoms: N5_10  and  O2_11 
REMARK    4  A    between atoms: N6_13  and  O3_15 
ROOT
HETATM    1  N1  UNL     1     -77.384  86.779  96.557  1.00  0.00    -0.162 NA
HETATM    2  C1  UNL     1     -77.514  86.727  95.403  1.00  0.00     0.253 C 
HETATM    3  O1  UNL     1     -77.653  86.673  94.060  1.00  0.00    -0.157 OA
ENDROOT
BRANCH   3   4
HETATM    4  N2  UNL     1     -77.694  85.494  93.339  1.00  0.00    -0.220 N 
HETATM    5  C2  UNL     1     -78.681  85.325  92.534  1.00  0.00     0.231 C 
HETATM    6  N3  UNL     1     -78.699  84.095  91.799  1.00  0.00    -0.060 NA
HETATM    7  N4  UNL     1     -79.709  86.289  92.365  1.00  0.00    -0.228 N 
ATOM      8  H4  UNL     1     -79.782  87.058  93.032  1.00  0.00     0.194 HD
ATOM      9  H2  UNL     1     -76.969  84.785  93.443  1.00  0.00     0.198 HD
BRANCH   7  10
HETATM   10  N5  UNL     1     -80.609  86.215  91.326  1.00  0.00    -0.072 N 
HETATM   11  N6  UNL     1     -80.902  87.206  90.600  1.00  0.00    -0.168 N 
ATOM     12  H6  UNL     1     -80.454  88.102  90.792  1.00  0.00     0.220 HD
BRANCH  10  13
HETATM   13  O2  UNL     1     -81.230  85.020  91.045  1.00  0.00    -0.252 OA
ATOM     14  H2  UNL     1     -81.866  84.973  90.341  1.00  0.00     0.248 HD
ENDBRANCH  10  13
BRANCH  11  15
HETATM   15  O3  UNL     1     -81.800  87.128  89.565  1.00  0.00    -0.271 OA
ATOM     16  H3  UNL     1     -82.559  87.695  89.500  1.00  0.00     0.246 HD
ENDBRANCH  11  15
ENDBRANCH   7  10
ENDBRANCH   3   4
TORSDOF 4
ENDMDL
MODEL 2
REMARK VINA RESULT: -5.188477179      1.749      2.777
REMARK  4 active torsions:
REMARK  status: ('A' for Active; 'I' for Inactive)
REMARK    1  A    between atoms: O1_3  and  N2_4 
REMARK       I    between atoms: C2_6  and  N4_8 
REMARK    2  A    between atoms: N4_8  and  N5_10 
REMARK    3  A    between atoms: N5_10  and  O2_11 
REMARK    4  A    between atoms: N6_13  and  O3_15 
ROOT
HETATM    1  N1  UNL     1     -77.569  88.304  96.740  1.00  0.00    -0.162 NA
HETATM    2  C1  UNL     1     -77.891  87.606  95.868  1.00  0.00     0.253 C 
HETATM    3  O1  UNL     1     -78.271  86.784  94.864  1.00  0.00    -0.157 OA
ENDROOT
BRANCH   3   4
HETATM    4  N2  UNL     1     -79.216  87.120  93.913  1.00  0.00    -0.220 N 
HETATM    5  C2  UNL     1     -79.242  86.428  92.831  1.00  0.00     0.231 C 
HETATM    6  N3  UNL     1     -80.231  86.797  91.863  1.00  0.00    -0.060 NA
HETATM    7  N4  UNL     1     -78.349  85.352  92.587  1.00  0.00    -0.228 N 
ATOM      8  H4  UNL     1     -77.537  85.233  93.193  1.00  0.00     0.194 HD
ATOM      9  H2  UNL     1     -79.868  87.889  94.065  1.00  0.00     0.198 HD
BRANCH   7  10
HETATM   10  N5  UNL     1     -78.550  84.464  91.554  1.00  0.00    -0.072 N 
HETATM   11  N6  UNL     1     -77.656  84.183  90.707  1.00  0.00    -0.168 N 
ATOM     12  H6  UNL     1     -76.745  84.633  90.791  1.00  0.00     0.220 HD
BRANCH  10  13
HETATM   13  O2  UNL     1     -79.770  83.842  91.415  1.00  0.00    -0.252 OA
ATOM     14  H2  UNL     1     -80.395  83.867  92.130  1.00  0.00     0.248 HD
ENDBRANCH  10  13
BRANCH  11  15
HETATM   15  O3  UNL     1     -77.861  83.297  89.678  1.00  0.00    -0.271 OA
ATOM     16  H3  UNL     1     -77.914  83.569  88.770  1.00  0.00     0.246 HD
ENDBRANCH  11  15
ENDBRANCH   7  10
ENDBRANCH   3   4
TORSDOF 4
ENDMDL
MODEL 3
REMARK VINA RESULT: -5.150702336      1.877      5.104
REMARK  4 active torsions:
REMARK  status: ('A' for Active; 'I' for Inactive)
REMARK    1  A    between atoms: O1_3  and  N2_4 
REMARK       I    between atoms: C2_6  and  N4_8 
REMARK    2  A    between atoms: N4_8  and  N5_10 
REMARK    3  A    between atoms: N5_10  and  O2_11 
REMARK    4  A    between atoms: N6_13  and  O3_15 
ROOT
HETATM    1  N1  UNL     1     -81.910  87.520  89.572  1.00  0.00    -0.162 NA
HETATM    2  C1  UNL     1     -81.118  87.127  90.326  1.00  0.00     0.253 C 
HETATM    3  O1  UNL     1     -80.205  86.674  91.214  1.00  0.00    -0.157 OA
ENDROOT
BRANCH   3   4
HETATM    4  N2  UNL     1     -79.881  85.340  91.370  1.00  0.00    -0.220 N 
HETATM    5  C2  UNL     1     -78.964  85.046  92.220  1.00  0.00     0.231 C 
HETATM    6  N3  UNL     1     -78.648  83.656  92.361  1.00  0.00    -0.060 NA
HETATM    7  N4  UNL     1     -78.287  86.029  92.989  1.00  0.00    -0.228 N 
ATOM      8  H4  UNL     1     -78.385  87.012  92.735  1.00  0.00     0.194 HD
ATOM      9  H2  UNL     1     -80.352  84.615  90.829  1.00  0.00     0.198 HD
BRANCH   7  10
HETATM   10  N5  UNL     1     -77.501  85.690  94.068  1.00  0.00    -0.072 N 
HETATM   11  N6  UNL     1     -77.414  86.406  95.105  1.00  0.00    -0.168 N 
ATOM     12  H6  UNL     1     -77.949  87.273  95.146  1.00  0.00     0.220 HD
BRANCH  10  13
HETATM   13  O2  UNL     1     -76.768  84.526  94.040  1.00  0.00    -0.252 OA
ATOM     14  H2  UNL     1     -77.119  83.738  94.438  1.00  0.00     0.248 HD
ENDBRANCH  10  13
BRANCH  11  15
HETATM   15  O3  UNL     1     -76.630  86.065  96.179  1.00  0.00    -0.271 OA
ATOM     16  H3  UNL     1     -75.875  85.493  96.101  1.00  0.00     0.246 HD
ENDBRANCH  11  15
ENDBRANCH   7  10
ENDBRANCH   3   4
TORSDOF 4
ENDMDL
MODEL 4
REMARK VINA RESULT: -5.080302333      1.975      5.325
REMARK  4 active torsions:
REMARK  status: ('A' for Active; 'I' for Inactive)
REMARK    1  A    between atoms: O1_3  and  N2_4 
REMARK       I    between atoms: C2_6  and  N4_8 
REMARK    2  A    between atoms: N4_8  and  N5_10 
REMARK    3  A    between atoms: N5_10  and  O2_11 
REMARK    4  A    between atoms: N6_13  and  O3_15 
ROOT
HETATM    1  N1  UNL     1     -80.965  87.258  90.263  1.00  0.00    -0.162 NA
HETATM    2  C1  UNL     1     -80.516  86.861  91.259  1.00  0.00     0.253 C 
HETATM    3  O1  UNL     1     -80.007  86.395  92.422  1.00  0.00    -0.157 OA
ENDROOT
BRANCH   3   4
HETATM    4  N2  UNL     1     -79.165  85.302  92.509  1.00  0.00    -0.220 N 
HETATM    5  C2  UNL     1     -78.193  85.366  93.345  1.00  0.00     0.231 C 
HETATM    6  N3  UNL     1     -77.336  84.220  93.415  1.00  0.00    -0.060 NA
HETATM    7  N4  UNL     1     -77.960  86.501  94.166  1.00  0.00    -0.228 N 
ATOM      8  H4  UNL     1     -78.454  87.370  93.963  1.00  0.00     0.194 HD
ATOM      9  H2  UNL     1     -79.311  84.476  91.929  1.00  0.00     0.198 HD
BRANCH   7  10
HETATM   10  N5  UNL     1     -77.084  86.459  95.228  1.00  0.00    -0.072 N 
HETATM   11  N6  UNL     1     -75.830  86.430  95.082  1.00  0.00    -0.168 N 
ATOM     12  H6  UNL     1     -75.447  86.437  94.137  1.00  0.00     0.220 HD
BRANCH  10  13
HETATM   13  O2  UNL     1     -77.571  86.448  96.515  1.00  0.00    -0.252 OA
ATOM     14  H2  UNL     1     -78.509  86.444  96.664  1.00  0.00     0.248 HD
ENDBRANCH  10  13
BRANCH  11  15
HETATM   15  O3  UNL     1     -74.960  86.388  96.144  1.00  0.00    -0.271 OA
ATOM     16  H3  UNL     1     -74.027  86.539  96.048  1.00  0.00     0.246 HD
ENDBRANCH  11  15
ENDBRANCH   7  10
ENDBRANCH   3   4
TORSDOF 4
ENDMDL
MODEL 5
REMARK VINA RESULT: -5.004424884      2.059      2.695
REMARK  4 active torsions:
REMARK  status: ('A' for Active; 'I' for Inactive)
REMARK    1  A    between atoms: O1_3  and  N2_4 
REMARK       I    between atoms: C2_6  and  N4_8 
REMARK    2  A    between atoms: N4_8  and  N5_10 
REMARK    3  A    between atoms: N5_10  and  O2_11 
REMARK    4  A    between atoms: N6_13  and  O3_15 
ROOT
HETATM    1  N1  UNL     1     -79.761  88.393  96.271  1.00  0.00    -0.162 NA
HETATM    2  C1  UNL     1     -79.009  87.990  95.481  1.00  0.00     0.253 C 
HETATM    3  O1  UNL     1     -78.126  87.531  94.566  1.00  0.00    -0.157 OA
ENDROOT
BRANCH   3   4
HETATM    4  N2  UNL     1     -77.481  86.313  94.664  1.00  0.00    -0.220 N 
HETATM    5  C2  UNL     1     -77.808  85.398  93.824  1.00  0.00     0.231 C 
HETATM    6  N3  UNL     1     -77.122  84.145  93.949  1.00  0.00    -0.060 NA
HETATM    7  N4  UNL     1     -78.791  85.594  92.820  1.00  0.00    -0.228 N 
ATOM      8  H4  UNL     1     -79.398  86.412  92.872  1.00  0.00     0.194 HD
ATOM      9  H2  UNL     1     -76.771  86.147  95.378  1.00  0.00     0.198 HD
BRANCH   7  10
HETATM   10  N5  UNL     1     -78.947  84.708  91.776  1.00  0.00    -0.072 N 
HETATM   11  N6  UNL     1     -77.970  84.207  91.151  1.00  0.00    -0.168 N 
ATOM     12  H6  UNL     1     -77.025  84.468  91.430  1.00  0.00     0.220 HD
BRANCH  10  13
HETATM   13  O2  UNL     1     -80.210  84.338  91.378  1.00  0.00    -0.252 OA
ATOM     14  H2  UNL     1     -80.763  84.962  90.922  1.00  0.00     0.248 HD
ENDBRANCH  10  13
BRANCH  11  15
HETATM   15  O3  UNL     1     -78.130  83.325  90.111  1.00  0.00    -0.271 OA
ATOM     16  H3  UNL     1     -77.397  82.900  89.681  1.00  0.00     0.246 HD
ENDBRANCH  11  15
ENDBRANCH   7  10
ENDBRANCH   3   4
TORSDOF 4
ENDMDL
