MODEL 1
REMARK VINA RESULT: -8.748944419      0.000      0.000
REMARK  7 active torsions:
REMARK  status: ('A' for Active; 'I' for Inactive)
REMARK    1  A    between atoms: C2_2  and  N1_5 
REMARK    2  A    between atoms: N1_5  and  C6_8 
REMARK    3  A    between atoms: C6_8  and  C7_9 
REMARK    4  A    between atoms: N3_11  and  C9_12 
REMARK    5  A    between atoms: C9_12  and  C10_13 
REMARK    6  A    between atoms: C10_13  and  O1_14 
REMARK    7  A    between atoms: C14_25  and  C15_26 
ROOT
HETATM    1  N1  UNL     1      -2.131 -20.483  22.747  1.00  0.00    -0.306 N 
HETATM    2  C5  UNL     1      -1.228 -21.169  23.601  1.00  0.00     0.180 C 
HETATM    3  N2  UNL     1      -0.503 -21.743  24.296  1.00  0.00    -0.172 NA
ENDROOT
BRANCH   1   4
HETATM    4  C2  UNL     1      -3.298 -21.149  22.217  1.00  0.00     0.032 C 
HETATM    5  C1  UNL     1      -4.136 -20.270  21.329  1.00  0.00     0.038 C 
HETATM    6  C3  UNL     1      -2.912 -22.375  21.401  1.00  0.00     0.038 C 
HETATM    7  C4  UNL     1      -4.178 -21.631  23.360  1.00  0.00     0.038 C 
ENDBRANCH   1   4
BRANCH   1   8
HETATM    8  C6  UNL     1      -1.809 -19.105  22.441  1.00  0.00     0.195 C 
BRANCH   8   9
HETATM    9  C7  UNL     1      -2.148 -18.180  23.536  1.00  0.00     0.062 A 
HETATM   10  C8  UNL     1      -1.298 -17.652  24.495  1.00  0.00     0.140 A 
HETATM   11  N3  UNL     1      -2.020 -16.846  25.318  1.00  0.00    -0.282 N 
HETATM   12  N8  UNL     1      -3.251 -16.898  24.860  1.00  0.00    -0.241 N 
HETATM   13  N9  UNL     1      -3.360 -17.671  23.814  1.00  0.00    -0.287 N 
ATOM     14  H8  UNL     1      -4.033 -16.391  25.275  1.00  0.00     0.208 HD
ATOM     15  H9  UNL     1      -4.219 -17.858  23.296  1.00  0.00     0.188 HD
BRANCH  11  16
HETATM   16  C9  UNL     1      -1.542 -16.091  26.443  1.00  0.00     0.212 C 
BRANCH  16  17
HETATM   17  C10 UNL     1      -1.440 -14.618  26.200  1.00  0.00     0.167 C 
HETATM   18  N4  UNL     1      -0.084 -14.119  26.330  1.00  0.00    -0.345 N 
HETATM   19  C11 UNL     1       0.104 -12.725  26.441  1.00  0.00     0.091 C 
ATOM     20  H4  UNL     1       0.711 -14.758  26.341  1.00  0.00     0.164 HD
HETATM   21  N5  UNL     1       1.173 -12.180  26.024  1.00  0.00    -0.388 N 
HETATM   22  C12 UNL     1      -0.963 -11.918  27.051  1.00  0.00     0.170 C 
ATOM     23  H52 UNL     1       1.913 -12.740  25.600  1.00  0.00     0.157 HD
ATOM     24  H51 UNL     1       1.309 -11.172  26.103  1.00  0.00     0.157 HD
HETATM   25  C13 UNL     1      -0.485 -10.770  27.790  1.00  0.00     0.072 C 
HETATM   26  C14 UNL     1      -1.719 -12.890  27.967  1.00  0.00     0.073 C 
HETATM   27  N6  UNL     1      -0.118  -9.849  28.368  1.00  0.00    -0.196 NA
HETATM   28  C19 UNL     1      -2.407 -13.895  27.112  1.00  0.00     0.160 C 
HETATM   29  C20 UNL     1      -3.169 -14.858  27.899  1.00  0.00     0.069 C 
HETATM   30  N7  UNL     1      -3.765 -15.613  28.537  1.00  0.00    -0.197 NA
BRANCH  17  31
HETATM   31  O1  UNL     1      -1.806 -14.419  24.848  1.00  0.00    -0.368 OA
ATOM     32  H1  UNL     1      -2.430 -15.105  24.641  1.00  0.00     0.212 HD
ENDBRANCH  17  31
BRANCH  26  33
HETATM   33  C15 UNL     1      -2.701 -12.151  28.806  1.00  0.00    -0.010 A 
HETATM   34  C16 UNL     1      -2.744 -12.146  30.173  1.00  0.00     0.015 A 
HETATM   35  C17 UNL     1      -3.709 -11.415  30.756  1.00  0.00     0.008 A 
HETATM   36  C18 UNL     1      -4.569 -10.738  29.937  1.00  0.00     0.050 A 
HETATM   37  S1  UNL     1      -4.006 -11.139  28.378  1.00  0.00    -0.106 SA
ENDBRANCH  26  33
ENDBRANCH  16  17
ENDBRANCH  11  16
ENDBRANCH   8   9
ENDBRANCH   1   8
TORSDOF 7
ENDMDL
MODEL 2
REMARK VINA RESULT: -8.632779721      4.651     10.553
REMARK  7 active torsions:
REMARK  status: ('A' for Active; 'I' for Inactive)
REMARK    1  A    between atoms: C2_2  and  N1_5 
REMARK    2  A    between atoms: N1_5  and  C6_8 
REMARK    3  A    between atoms: C6_8  and  C7_9 
REMARK    4  A    between atoms: N3_11  and  C9_12 
REMARK    5  A    between atoms: C9_12  and  C10_13 
REMARK    6  A    between atoms: C10_13  and  O1_14 
REMARK    7  A    between atoms: C14_25  and  C15_26 
ROOT
HETATM    1  N1  UNL     1      -7.039  -9.552  34.590  1.00  0.00    -0.306 N 
HETATM    2  C5  UNL     1      -6.746  -8.208  34.940  1.00  0.00     0.180 C 
HETATM    3  N2  UNL     1      -6.526  -7.109  35.226  1.00  0.00    -0.172 NA
ENDROOT
BRANCH   1   4
HETATM    4  C2  UNL     1      -8.404  -9.990  34.415  1.00  0.00     0.032 C 
HETATM    5  C1  UNL     1      -8.529 -11.241  33.589  1.00  0.00     0.038 C 
HETATM    6  C3  UNL     1      -9.072 -10.267  35.755  1.00  0.00     0.038 C 
HETATM    7  C4  UNL     1      -9.210  -8.898  33.730  1.00  0.00     0.038 C 
ENDBRANCH   1   4
BRANCH   1   8
HETATM    8  C6  UNL     1      -5.905 -10.439  34.430  1.00  0.00     0.195 C 
BRANCH   8   9
HETATM    9  C7  UNL     1      -5.136 -10.171  33.204  1.00  0.00     0.062 A 
HETATM   10  C8  UNL     1      -5.367 -10.670  31.931  1.00  0.00     0.140 A 
HETATM   11  N3  UNL     1      -4.420 -10.173  31.092  1.00  0.00    -0.282 N 
HETATM   12  N8  UNL     1      -3.659  -9.409  31.843  1.00  0.00    -0.241 N 
HETATM   13  N9  UNL     1      -4.052  -9.385  33.088  1.00  0.00    -0.287 N 
ATOM     14  H8  UNL     1      -2.851  -8.892  31.493  1.00  0.00     0.208 HD
ATOM     15  H9  UNL     1      -3.613  -8.860  33.843  1.00  0.00     0.188 HD
BRANCH  11  16
HETATM   16  C9  UNL     1      -4.282 -10.420  29.684  1.00  0.00     0.212 C 
BRANCH  16  17
HETATM   17  C10 UNL     1      -2.963 -11.005  29.285  1.00  0.00     0.167 C 
HETATM   18  N4  UNL     1      -2.046 -10.013  28.756  1.00  0.00    -0.345 N 
HETATM   19  C11 UNL     1      -0.906 -10.468  28.058  1.00  0.00     0.091 C 
ATOM     20  H4  UNL     1      -2.220  -9.017  28.884  1.00  0.00     0.164 HD
HETATM   21  N5  UNL     1       0.163  -9.781  28.046  1.00  0.00    -0.388 N 
HETATM   22  C12 UNL     1      -0.984 -11.751  27.345  1.00  0.00     0.170 C 
ATOM     23  H52 UNL     1       0.216  -8.890  28.541  1.00  0.00     0.157 HD
ATOM     24  H51 UNL     1       0.987 -10.109  27.542  1.00  0.00     0.157 HD
HETATM   25  C13 UNL     1      -0.189 -11.803  26.138  1.00  0.00     0.072 C 
HETATM   26  C14 UNL     1      -2.475 -11.941  27.033  1.00  0.00     0.073 C 
HETATM   27  N6  UNL     1       0.449 -11.861  25.184  1.00  0.00    -0.196 NA
HETATM   28  C19 UNL     1      -3.196 -12.145  28.319  1.00  0.00     0.160 C 
HETATM   29  C20 UNL     1      -4.626 -12.351  28.121  1.00  0.00     0.069 C 
HETATM   30  N7  UNL     1      -5.756 -12.510  27.947  1.00  0.00    -0.197 NA
BRANCH  17  31
HETATM   31  O1  UNL     1      -2.375 -11.490  30.477  1.00  0.00    -0.368 OA
ATOM     32  H1  UNL     1      -1.460 -11.237  30.440  1.00  0.00     0.212 HD
ENDBRANCH  17  31
BRANCH  26  33
HETATM   33  C15 UNL     1      -2.669 -13.106  26.129  1.00  0.00    -0.010 A 
HETATM   34  C16 UNL     1      -3.259 -13.073  24.894  1.00  0.00     0.015 A 
HETATM   35  C17 UNL     1      -3.345 -14.233  24.222  1.00  0.00     0.008 A 
HETATM   36  C18 UNL     1      -2.837 -15.350  24.825  1.00  0.00     0.050 A 
HETATM   37  S1  UNL     1      -2.255 -14.750  26.311  1.00  0.00    -0.106 SA
ENDBRANCH  26  33
ENDBRANCH  16  17
ENDBRANCH  11  16
ENDBRANCH   8   9
ENDBRANCH   1   8
TORSDOF 7
ENDMDL
MODEL 3
REMARK VINA RESULT: -8.612314891      4.885      7.918
REMARK  7 active torsions:
REMARK  status: ('A' for Active; 'I' for Inactive)
REMARK    1  A    between atoms: C2_2  and  N1_5 
REMARK    2  A    between atoms: N1_5  and  C6_8 
REMARK    3  A    between atoms: C6_8  and  C7_9 
REMARK    4  A    between atoms: N3_11  and  C9_12 
REMARK    5  A    between atoms: C9_12  and  C10_13 
REMARK    6  A    between atoms: C10_13  and  O1_14 
REMARK    7  A    between atoms: C14_25  and  C15_26 
ROOT
HETATM    1  N1  UNL     1      -0.440 -12.759  26.415  1.00  0.00    -0.306 N 
HETATM    2  C5  UNL     1       0.076 -13.613  27.425  1.00  0.00     0.180 C 
HETATM    3  N2  UNL     1       0.494 -14.324  28.237  1.00  0.00    -0.172 NA
ENDROOT
BRANCH   1   4
HETATM    4  C2  UNL     1      -0.821 -13.286  25.125  1.00  0.00     0.032 C 
HETATM    5  C1  UNL     1      -0.091 -12.641  23.978  1.00  0.00     0.038 C 
HETATM    6  C3  UNL     1      -0.559 -14.783  25.040  1.00  0.00     0.038 C 
HETATM    7  C4  UNL     1      -2.311 -13.078  24.906  1.00  0.00     0.038 C 
ENDBRANCH   1   4
BRANCH   1   8
HETATM    8  C6  UNL     1      -0.549 -11.355  26.752  1.00  0.00     0.195 C 
BRANCH   8   9
HETATM    9  C7  UNL     1      -1.190 -11.126  28.058  1.00  0.00     0.062 A 
HETATM   10  C8  UNL     1      -2.517 -10.815  28.309  1.00  0.00     0.140 A 
HETATM   11  N3  UNL     1      -2.685 -10.686  29.652  1.00  0.00    -0.282 N 
HETATM   12  N8  UNL     1      -1.500 -10.914  30.173  1.00  0.00    -0.241 N 
HETATM   13  N9  UNL     1      -0.600 -11.176  29.264  1.00  0.00    -0.287 N 
ATOM     14  H8  UNL     1      -1.305 -10.888  31.174  1.00  0.00     0.208 HD
ATOM     15  H9  UNL     1       0.383 -11.383  29.440  1.00  0.00     0.188 HD
BRANCH  11  16
HETATM   16  C9  UNL     1      -3.899 -10.377  30.356  1.00  0.00     0.212 C 
BRANCH  16  17
HETATM   17  C10 UNL     1      -4.846 -11.527  30.490  1.00  0.00     0.167 C 
HETATM   18  N4  UNL     1      -5.853 -11.552  29.446  1.00  0.00    -0.345 N 
HETATM   19  C11 UNL     1      -6.981 -12.381  29.629  1.00  0.00     0.091 C 
ATOM     20  H4  UNL     1      -5.749 -10.987  28.604  1.00  0.00     0.164 HD
HETATM   21  N5  UNL     1      -7.589 -12.878  28.630  1.00  0.00    -0.388 N 
HETATM   22  C12 UNL     1      -7.436 -12.655  31.000  1.00  0.00     0.170 C 
ATOM     23  H52 UNL     1      -7.272 -12.688  27.679  1.00  0.00     0.157 HD
ATOM     24  H51 UNL     1      -8.403 -13.477  28.763  1.00  0.00     0.157 HD
HETATM   25  C13 UNL     1      -8.868 -12.818  31.123  1.00  0.00     0.072 C 
HETATM   26  C14 UNL     1      -6.942 -11.460  31.827  1.00  0.00     0.073 C 
HETATM   27  N6  UNL     1     -10.003 -12.962  31.231  1.00  0.00    -0.196 NA
HETATM   28  C19 UNL     1      -5.455 -11.511  31.875  1.00  0.00     0.160 C 
HETATM   29  C20 UNL     1      -4.893 -10.416  32.657  1.00  0.00     0.069 C 
HETATM   30  N7  UNL     1      -4.464  -9.543  33.278  1.00  0.00    -0.197 NA
BRANCH  17  31
HETATM   31  O1  UNL     1      -4.068 -12.696  30.316  1.00  0.00    -0.368 OA
ATOM     32  H1  UNL     1      -4.675 -13.380  30.059  1.00  0.00     0.212 HD
ENDBRANCH  17  31
BRANCH  26  33
HETATM   33  C15 UNL     1      -7.515 -11.510  33.199  1.00  0.00    -0.010 A 
HETATM   34  C16 UNL     1      -7.311 -12.503  34.118  1.00  0.00     0.015 A 
HETATM   35  C17 UNL     1      -7.917 -12.373  35.310  1.00  0.00     0.008 A 
HETATM   36  C18 UNL     1      -8.686 -11.260  35.508  1.00  0.00     0.050 A 
HETATM   37  S1  UNL     1      -8.542 -10.428  34.026  1.00  0.00    -0.106 SA
ENDBRANCH  26  33
ENDBRANCH  16  17
ENDBRANCH  11  16
ENDBRANCH   8   9
ENDBRANCH   1   8
TORSDOF 7
ENDMDL
MODEL 4
REMARK VINA RESULT: -8.587456273      4.444      6.756
REMARK  7 active torsions:
REMARK  status: ('A' for Active; 'I' for Inactive)
REMARK    1  A    between atoms: C2_2  and  N1_5 
REMARK    2  A    between atoms: N1_5  and  C6_8 
REMARK    3  A    between atoms: C6_8  and  C7_9 
REMARK    4  A    between atoms: N3_11  and  C9_12 
REMARK    5  A    between atoms: C9_12  and  C10_13 
REMARK    6  A    between atoms: C10_13  and  O1_14 
REMARK    7  A    between atoms: C14_25  and  C15_26 
ROOT
HETATM    1  N1  UNL     1      -1.218 -13.931  25.657  1.00  0.00    -0.306 N 
HETATM    2  C5  UNL     1      -1.295 -15.155  26.372  1.00  0.00     0.180 C 
HETATM    3  N2  UNL     1      -1.339 -16.149  26.960  1.00  0.00    -0.172 NA
ENDROOT
BRANCH   1   4
HETATM    4  C2  UNL     1      -0.019 -13.125  25.697  1.00  0.00     0.032 C 
HETATM    5  C1  UNL     1       0.046 -12.096  24.600  1.00  0.00     0.038 C 
HETATM    6  C3  UNL     1       0.104 -12.381  27.019  1.00  0.00     0.038 C 
HETATM    7  C4  UNL     1       1.204 -14.019  25.570  1.00  0.00     0.038 C 
ENDBRANCH   1   4
BRANCH   1   8
HETATM    8  C6  UNL     1      -2.396 -13.546  24.908  1.00  0.00     0.195 C 
BRANCH   8   9
HETATM    9  C7  UNL     1      -3.360 -12.776  25.713  1.00  0.00     0.062 A 
HETATM   10  C8  UNL     1      -3.859 -13.088  26.968  1.00  0.00     0.140 A 
HETATM   11  N3  UNL     1      -4.725 -12.111  27.346  1.00  0.00    -0.282 N 
HETATM   12  N8  UNL     1      -4.736 -11.254  26.349  1.00  0.00    -0.241 N 
HETATM   13  N9  UNL     1      -3.945 -11.614  25.375  1.00  0.00    -0.287 N 
ATOM     14  H8  UNL     1      -5.299 -10.403  26.338  1.00  0.00     0.208 HD
ATOM     15  H9  UNL     1      -3.797 -11.102  24.506  1.00  0.00     0.188 HD
BRANCH  11  16
HETATM   16  C9  UNL     1      -5.465 -12.025  28.574  1.00  0.00     0.212 C 
BRANCH  16  17
HETATM   17  C10 UNL     1      -5.046 -10.902  29.470  1.00  0.00     0.167 C 
HETATM   18  N4  UNL     1      -3.642 -10.961  29.829  1.00  0.00    -0.345 N 
HETATM   19  C11 UNL     1      -3.196 -10.162  30.904  1.00  0.00     0.091 C 
ATOM     20  H4  UNL     1      -2.995 -11.562  29.318  1.00  0.00     0.164 HD
HETATM   21  N5  UNL     1      -2.000  -9.735  30.940  1.00  0.00    -0.388 N 
HETATM   22  C12 UNL     1      -4.144  -9.839  31.980  1.00  0.00     0.170 C 
ATOM     23  H52 UNL     1      -1.342  -9.959  30.193  1.00  0.00     0.157 HD
ATOM     24  H51 UNL     1      -1.677  -9.157  31.717  1.00  0.00     0.157 HD
HETATM   25  C13 UNL     1      -3.534  -9.718  33.286  1.00  0.00     0.072 C 
HETATM   26  C14 UNL     1      -5.175 -10.975  31.953  1.00  0.00     0.073 C 
HETATM   27  N6  UNL     1      -3.059  -9.607  34.326  1.00  0.00    -0.196 NA
HETATM   28  C19 UNL     1      -5.948 -10.872  30.685  1.00  0.00     0.160 C 
HETATM   29  C20 UNL     1      -6.968 -11.909  30.577  1.00  0.00     0.069 C 
HETATM   30  N7  UNL     1      -7.769 -12.736  30.507  1.00  0.00    -0.197 NA
BRANCH  17  31
HETATM   31  O1  UNL     1      -5.212  -9.717  28.715  1.00  0.00    -0.368 OA
ATOM     32  H1  UNL     1      -4.798  -9.025  29.217  1.00  0.00     0.212 HD
ENDBRANCH  17  31
BRANCH  26  33
HETATM   33  C15 UNL     1      -6.080 -10.879  33.131  1.00  0.00    -0.010 A 
HETATM   34  C16 UNL     1      -6.293 -11.861  34.059  1.00  0.00     0.015 A 
HETATM   35  C17 UNL     1      -7.151 -11.589  35.057  1.00  0.00     0.008 A 
HETATM   36  C18 UNL     1      -7.739 -10.354  35.063  1.00  0.00     0.050 A 
HETATM   37  S1  UNL     1      -7.079  -9.610  33.678  1.00  0.00    -0.106 SA
ENDBRANCH  26  33
ENDBRANCH  16  17
ENDBRANCH  11  16
ENDBRANCH   8   9
ENDBRANCH   1   8
TORSDOF 7
ENDMDL
MODEL 5
REMARK VINA RESULT: -8.571458318      4.641      9.914
REMARK  7 active torsions:
REMARK  status: ('A' for Active; 'I' for Inactive)
REMARK    1  A    between atoms: C2_2  and  N1_5 
REMARK    2  A    between atoms: N1_5  and  C6_8 
REMARK    3  A    between atoms: C6_8  and  C7_9 
REMARK    4  A    between atoms: N3_11  and  C9_12 
REMARK    5  A    between atoms: C9_12  and  C10_13 
REMARK    6  A    between atoms: C10_13  and  O1_14 
REMARK    7  A    between atoms: C14_25  and  C15_26 
ROOT
HETATM    1  N1  UNL     1      -7.707 -10.868  33.896  1.00  0.00    -0.306 N 
HETATM    2  C5  UNL     1      -8.272  -9.570  33.796  1.00  0.00     0.180 C 
HETATM    3  N2  UNL     1      -8.750  -8.520  33.710  1.00  0.00    -0.172 NA
ENDROOT
BRANCH   1   4
HETATM    4  C2  UNL     1      -8.529 -12.046  33.744  1.00  0.00     0.032 C 
HETATM    5  C1  UNL     1      -8.725 -12.457  32.310  1.00  0.00     0.038 C 
HETATM    6  C3  UNL     1      -7.926 -13.239  34.475  1.00  0.00     0.038 C 
HETATM    7  C4  UNL     1      -9.901 -11.797  34.349  1.00  0.00     0.038 C 
ENDBRANCH   1   4
BRANCH   1   8
HETATM    8  C6  UNL     1      -6.285 -10.933  34.163  1.00  0.00     0.195 C 
BRANCH   8   9
HETATM    9  C7  UNL     1      -5.466 -10.514  33.013  1.00  0.00     0.062 A 
HETATM   10  C8  UNL     1      -5.549 -10.961  31.704  1.00  0.00     0.140 A 
HETATM   11  N3  UNL     1      -4.607 -10.317  30.965  1.00  0.00    -0.282 N 
HETATM   12  N8  UNL     1      -3.991  -9.520  31.809  1.00  0.00    -0.241 N 
HETATM   13  N9  UNL     1      -4.472  -9.610  33.020  1.00  0.00    -0.287 N 
ATOM     14  H8  UNL     1      -3.224  -8.900  31.548  1.00  0.00     0.208 HD
ATOM     15  H9  UNL     1      -4.148  -9.085  33.831  1.00  0.00     0.188 HD
BRANCH  11  16
HETATM   16  C9  UNL     1      -4.344 -10.467  29.561  1.00  0.00     0.212 C 
BRANCH  16  17
HETATM   17  C10 UNL     1      -2.983 -11.004  29.242  1.00  0.00     0.167 C 
HETATM   18  N4  UNL     1      -2.080  -9.985  28.743  1.00  0.00    -0.345 N 
HETATM   19  C11 UNL     1      -0.888 -10.403  28.113  1.00  0.00     0.091 C 
ATOM     20  H4  UNL     1      -2.299  -8.994  28.845  1.00  0.00     0.164 HD
HETATM   21  N5  UNL     1       0.152  -9.674  28.145  1.00  0.00    -0.388 N 
HETATM   22  C12 UNL     1      -0.877 -11.699  27.420  1.00  0.00     0.170 C 
ATOM     23  H52 UNL     1       0.145  -8.774  28.626  1.00  0.00     0.157 HD
ATOM     24  H51 UNL     1       1.014  -9.976  27.690  1.00  0.00     0.157 HD
HETATM   25  C13 UNL     1      -0.018 -11.738  26.257  1.00  0.00     0.072 C 
HETATM   26  C14 UNL     1      -2.341 -11.954  27.036  1.00  0.00     0.073 C 
HETATM   27  N6  UNL     1       0.671 -11.785  25.339  1.00  0.00    -0.196 NA
HETATM   28  C19 UNL     1      -3.119 -12.168  28.286  1.00  0.00     0.160 C 
HETATM   29  C20 UNL     1      -4.528 -12.434  28.018  1.00  0.00     0.069 C 
HETATM   30  N7  UNL     1      -5.640 -12.642  27.788  1.00  0.00    -0.197 NA
BRANCH  17  31
HETATM   31  O1  UNL     1      -2.440 -11.446  30.471  1.00  0.00    -0.368 OA
ATOM     32  H1  UNL     1      -1.937 -10.716  30.814  1.00  0.00     0.212 HD
ENDBRANCH  17  31
BRANCH  26  33
HETATM   33  C15 UNL     1      -2.441 -13.141  26.143  1.00  0.00    -0.010 A 
HETATM   34  C16 UNL     1      -2.972 -13.152  24.882  1.00  0.00     0.015 A 
HETATM   35  C17 UNL     1      -2.976 -14.325  24.227  1.00  0.00     0.008 A 
HETATM   36  C18 UNL     1      -2.449 -15.409  24.872  1.00  0.00     0.050 A 
HETATM   37  S1  UNL     1      -1.965 -14.762  26.373  1.00  0.00    -0.106 SA
ENDBRANCH  26  33
ENDBRANCH  16  17
ENDBRANCH  11  16
ENDBRANCH   8   9
ENDBRANCH   1   8
TORSDOF 7
ENDMDL
