MODEL 1
REMARK VINA RESULT: -8.597830682      0.000      0.000
REMARK  8 active torsions:
REMARK  status: ('A' for Active; 'I' for Inactive)
REMARK    1  A    between atoms: O1_2  and  C2_3 
REMARK    2  A    between atoms: C6_8  and  O3_9 
REMARK    3  A    between atoms: C7_11  and  O4_12 
REMARK    4  A    between atoms: C13_20  and  C14_21 
REMARK    5  A    between atoms: C14_21  and  C15_22 
REMARK    6  A    between atoms: C16_24  and  C17_25 
REMARK    7  A    between atoms: C18_27  and  O8_28 
REMARK    8  A    between atoms: C19_30  and  O9_31 
ROOT
HETATM    1  C2  UNL     1      -5.239 -12.727  29.949  1.00  0.00     0.195 A 
HETATM    2  O2  UNL     1      -4.721 -13.556  29.089  1.00  0.00    -0.286 OA
HETATM    3  C3  UNL     1      -3.457 -13.417  28.675  1.00  0.00     0.104 A 
HETATM    4  C4  UNL     1      -2.962 -14.323  27.767  1.00  0.00     0.016 A 
HETATM    5  C5  UNL     1      -1.671 -14.209  27.325  1.00  0.00     0.114 A 
HETATM    6  C6  UNL     1      -0.899 -13.177  27.809  1.00  0.00     0.134 A 
HETATM    7  C7  UNL     1      -1.371 -12.243  28.730  1.00  0.00     0.121 A 
HETATM    8  C9  UNL     1      -2.673 -12.381  29.158  1.00  0.00     0.085 A 
HETATM    9  C10 UNL     1      -3.212 -11.497  30.071  1.00  0.00     0.198 A 
HETATM   10  O5  UNL     1      -2.552 -10.533  30.553  1.00  0.00    -0.287 OA
HETATM   11  C11 UNL     1      -4.528 -11.673  30.478  1.00  0.00     0.048 A 
HETATM   12  C12 UNL     1      -5.131 -10.744  31.452  1.00  0.00     0.058 C 
HETATM   13  O6  UNL     1      -1.400 -15.250  26.405  1.00  0.00    -0.342 OA
HETATM   14  C13 UNL     1      -2.303 -16.265  26.717  1.00  0.00     0.136 C 
HETATM   15  C20 UNL     1      -3.545 -15.518  27.076  1.00  0.00     0.077 C 
ENDROOT
BRANCH  14  16
HETATM   16  C14 UNL     1      -2.474 -17.337  25.713  1.00  0.00     0.067 C 
BRANCH  16  17
HETATM   17  C15 UNL     1      -3.166 -16.974  24.451  1.00  0.00     0.155 C 
HETATM   18  O7  UNL     1      -3.510 -18.190  23.811  1.00  0.00    -0.374 OA
HETATM   19  C16 UNL     1      -3.913 -17.811  22.528  1.00  0.00     0.166 C 
HETATM   20  C18 UNL     1      -2.829 -16.880  22.088  1.00  0.00     0.179 C 
HETATM   21  C19 UNL     1      -2.245 -16.373  23.400  1.00  0.00     0.178 C 
BRANCH  19  22
HETATM   22  C17 UNL     1      -3.961 -19.056  21.708  1.00  0.00     0.145 C 
HETATM   23  S1  UNL     1      -3.170 -20.161  22.104  1.00  0.00    -0.124 SA
ENDBRANCH  19  22
BRANCH  20  24
HETATM   24  O8  UNL     1      -3.326 -15.838  21.333  1.00  0.00    -0.390 OA
ATOM     25  H8  UNL     1      -2.971 -15.001  21.610  1.00  0.00     0.210 HD
ENDBRANCH  20  24
BRANCH  21  26
HETATM   26  O9  UNL     1      -0.967 -16.909  23.600  1.00  0.00    -0.390 OA
ATOM     27  H9  UNL     1      -0.529 -16.371  24.250  1.00  0.00     0.210 HD
ENDBRANCH  21  26
ENDBRANCH  16  17
ENDBRANCH  14  16
BRANCH   6  28
HETATM   28  O3  UNL     1       0.422 -13.012  27.394  1.00  0.00    -0.356 OA
ATOM     29  H3  UNL     1       0.699 -12.222  26.945  1.00  0.00     0.218 HD
ENDBRANCH   6  28
BRANCH   7  30
HETATM   30  O4  UNL     1      -0.541 -11.220  29.182  1.00  0.00    -0.352 OA
HETATM   31  C8  UNL     1      -0.244 -10.184  28.235  1.00  0.00     0.210 C 
ENDBRANCH   7  30
BRANCH   1  32
HETATM   32  O1  UNL     1      -6.563 -12.865  30.389  1.00  0.00    -0.335 OA
HETATM   33  C1  UNL     1      -7.563 -12.803  29.390  1.00  0.00     0.212 C 
ENDBRANCH   1  32
TORSDOF 8
ENDMDL
MODEL 2
REMARK VINA RESULT: -8.466958589      2.601      5.048
REMARK  8 active torsions:
REMARK  status: ('A' for Active; 'I' for Inactive)
REMARK    1  A    between atoms: O1_2  and  C2_3 
REMARK    2  A    between atoms: C6_8  and  O3_9 
REMARK    3  A    between atoms: C7_11  and  O4_12 
REMARK    4  A    between atoms: C13_20  and  C14_21 
REMARK    5  A    between atoms: C14_21  and  C15_22 
REMARK    6  A    between atoms: C16_24  and  C17_25 
REMARK    7  A    between atoms: C18_27  and  O8_28 
REMARK    8  A    between atoms: C19_30  and  O9_31 
ROOT
HETATM    1  C2  UNL     1      -4.140 -10.228  33.036  1.00  0.00     0.195 A 
HETATM    2  O2  UNL     1      -3.596 -10.867  32.040  1.00  0.00    -0.286 OA
HETATM    3  C3  UNL     1      -4.339 -11.596  31.201  1.00  0.00     0.104 A 
HETATM    4  C4  UNL     1      -3.711 -12.247  30.166  1.00  0.00     0.016 A 
HETATM    5  C5  UNL     1      -4.444 -13.000  29.289  1.00  0.00     0.114 A 
HETATM    6  C6  UNL     1      -5.807 -13.082  29.472  1.00  0.00     0.134 A 
HETATM    7  C7  UNL     1      -6.473 -12.434  30.511  1.00  0.00     0.121 A 
HETATM    8  C9  UNL     1      -5.711 -11.683  31.379  1.00  0.00     0.085 A 
HETATM    9  C10 UNL     1      -6.299 -11.009  32.430  1.00  0.00     0.198 A 
HETATM   10  O5  UNL     1      -7.543 -11.045  32.648  1.00  0.00    -0.287 OA
HETATM   11  C11 UNL     1      -5.495 -10.262  33.282  1.00  0.00     0.048 A 
HETATM   12  C12 UNL     1      -6.095  -9.532  34.414  1.00  0.00     0.058 C 
HETATM   13  O6  UNL     1      -3.579 -13.564  28.322  1.00  0.00    -0.342 OA
HETATM   14  C13 UNL     1      -2.464 -12.728  28.290  1.00  0.00     0.136 C 
HETATM   15  C20 UNL     1      -2.284 -12.346  29.722  1.00  0.00     0.077 C 
ENDROOT
BRANCH  14  16
HETATM   16  C14 UNL     1      -1.257 -13.252  27.615  1.00  0.00     0.067 C 
BRANCH  16  17
HETATM   17  C15 UNL     1      -1.207 -13.129  26.137  1.00  0.00     0.155 C 
HETATM   18  O7  UNL     1      -1.599 -14.385  25.610  1.00  0.00    -0.374 OA
HETATM   19  C16 UNL     1      -1.287 -14.310  24.250  1.00  0.00     0.166 C 
HETATM   20  C18 UNL     1       0.106 -13.768  24.246  1.00  0.00     0.179 C 
HETATM   21  C19 UNL     1       0.205 -13.038  25.578  1.00  0.00     0.178 C 
BRANCH  19  22
HETATM   22  C17 UNL     1      -1.359 -15.700  23.716  1.00  0.00     0.145 C 
HETATM   23  S1  UNL     1      -1.435 -16.777  24.632  1.00  0.00    -0.124 SA
ENDBRANCH  19  22
BRANCH  20  24
HETATM   24  O8  UNL     1       0.314 -12.903  23.192  1.00  0.00    -0.390 OA
ATOM     25  H8  UNL     1       1.111 -13.111  22.717  1.00  0.00     0.210 HD
ENDBRANCH  20  24
BRANCH  21  26
HETATM   26  O9  UNL     1       1.051 -13.733  26.450  1.00  0.00    -0.390 OA
ATOM     27  H9  UNL     1       1.417 -13.103  27.059  1.00  0.00     0.210 HD
ENDBRANCH  21  26
ENDBRANCH  16  17
ENDBRANCH  14  16
BRANCH   6  28
HETATM   28  O3  UNL     1      -6.604 -13.834  28.610  1.00  0.00    -0.356 OA
ATOM     29  H3  UNL     1      -6.416 -13.873  27.679  1.00  0.00     0.218 HD
ENDBRANCH   6  28
BRANCH   7  30
HETATM   30  O4  UNL     1      -7.855 -12.556  30.645  1.00  0.00    -0.352 OA
HETATM   31  C8  UNL     1      -8.330 -13.815  31.142  1.00  0.00     0.210 C 
ENDBRANCH   7  30
BRANCH   1  32
HETATM   32  O1  UNL     1      -3.369  -9.462  33.921  1.00  0.00    -0.335 OA
HETATM   33  C1  UNL     1      -1.997  -9.797  34.004  1.00  0.00     0.212 C 
ENDBRANCH   1  32
TORSDOF 8
ENDMDL
MODEL 3
REMARK VINA RESULT: -8.451412544      2.777      4.661
REMARK  8 active torsions:
REMARK  status: ('A' for Active; 'I' for Inactive)
REMARK    1  A    between atoms: O1_2  and  C2_3 
REMARK    2  A    between atoms: C6_8  and  O3_9 
REMARK    3  A    between atoms: C7_11  and  O4_12 
REMARK    4  A    between atoms: C13_20  and  C14_21 
REMARK    5  A    between atoms: C14_21  and  C15_22 
REMARK    6  A    between atoms: C16_24  and  C17_25 
REMARK    7  A    between atoms: C18_27  and  O8_28 
REMARK    8  A    between atoms: C19_30  and  O9_31 
ROOT
HETATM    1  C2  UNL     1      -7.300 -11.668  32.911  1.00  0.00     0.195 A 
HETATM    2  O2  UNL     1      -6.665 -11.935  31.807  1.00  0.00    -0.286 OA
HETATM    3  C3  UNL     1      -5.494 -11.356  31.528  1.00  0.00     0.104 A 
HETATM    4  C4  UNL     1      -4.867 -11.678  30.348  1.00  0.00     0.016 A 
HETATM    5  C5  UNL     1      -3.665 -11.103  30.034  1.00  0.00     0.114 A 
HETATM    6  C6  UNL     1      -3.113 -10.207  30.923  1.00  0.00     0.134 A 
HETATM    7  C7  UNL     1      -3.723  -9.859  32.128  1.00  0.00     0.121 A 
HETATM    8  C9  UNL     1      -4.932 -10.453  32.418  1.00  0.00     0.085 A 
HETATM    9  C10 UNL     1      -5.596 -10.162  33.593  1.00  0.00     0.198 A 
HETATM   10  O5  UNL     1      -5.139  -9.351  34.447  1.00  0.00    -0.287 OA
HETATM   11  C11 UNL     1      -6.811 -10.784  33.847  1.00  0.00     0.048 A 
HETATM   12  C12 UNL     1      -7.543 -10.492  35.094  1.00  0.00     0.058 C 
HETATM   13  O6  UNL     1      -3.227 -11.591  28.781  1.00  0.00    -0.342 OA
HETATM   14  C13 UNL     1      -3.859 -12.823  28.622  1.00  0.00     0.136 C 
HETATM   15  C20 UNL     1      -5.211 -12.591  29.211  1.00  0.00     0.077 C 
ENDROOT
BRANCH  14  16
HETATM   16  C14 UNL     1      -3.848 -13.407  27.264  1.00  0.00     0.067 C 
BRANCH  16  17
HETATM   17  C15 UNL     1      -2.794 -14.409  26.970  1.00  0.00     0.155 C 
HETATM   18  O7  UNL     1      -1.873 -13.786  26.092  1.00  0.00    -0.374 OA
HETATM   19  C16 UNL     1      -1.058 -14.827  25.639  1.00  0.00     0.166 C 
HETATM   20  C18 UNL     1      -2.038 -15.888  25.253  1.00  0.00     0.179 C 
HETATM   21  C19 UNL     1      -3.267 -15.554  26.088  1.00  0.00     0.178 C 
BRANCH  19  22
HETATM   22  C17 UNL     1      -0.299 -14.300  24.468  1.00  0.00     0.145 C 
HETATM   23  S1  UNL     1      -0.158 -12.899  24.325  1.00  0.00    -0.124 SA
ENDBRANCH  19  22
BRANCH  20  24
HETATM   24  O8  UNL     1      -1.568 -17.151  25.548  1.00  0.00    -0.390 OA
ATOM     25  H8  UNL     1      -2.268 -17.792  25.570  1.00  0.00     0.210 HD
ENDBRANCH  20  24
BRANCH  21  26
HETATM   26  O9  UNL     1      -4.290 -15.063  25.269  1.00  0.00    -0.390 OA
ATOM     27  H9  UNL     1      -4.352 -15.634  24.512  1.00  0.00     0.210 HD
ENDBRANCH  21  26
ENDBRANCH  16  17
ENDBRANCH  14  16
BRANCH   6  28
HETATM   28  O3  UNL     1      -1.891  -9.590  30.657  1.00  0.00    -0.356 OA
ATOM     29  H3  UNL     1      -1.710  -8.710  30.964  1.00  0.00     0.218 HD
ENDBRANCH   6  28
BRANCH   7  30
HETATM   30  O4  UNL     1      -3.115  -8.945  32.986  1.00  0.00    -0.352 OA
HETATM   31  C8  UNL     1      -1.968  -9.422  33.704  1.00  0.00     0.210 C 
ENDBRANCH   7  30
BRANCH   1  32
HETATM   32  O1  UNL     1      -8.530 -12.270  33.212  1.00  0.00    -0.335 OA
HETATM   33  C1  UNL     1      -9.251 -12.799  32.115  1.00  0.00     0.212 C 
ENDBRANCH   1  32
TORSDOF 8
ENDMDL
MODEL 4
REMARK VINA RESULT: -8.447205190      1.997      2.377
REMARK  8 active torsions:
REMARK  status: ('A' for Active; 'I' for Inactive)
REMARK    1  A    between atoms: O1_2  and  C2_3 
REMARK    2  A    between atoms: C6_8  and  O3_9 
REMARK    3  A    between atoms: C7_11  and  O4_12 
REMARK    4  A    between atoms: C13_20  and  C14_21 
REMARK    5  A    between atoms: C14_21  and  C15_22 
REMARK    6  A    between atoms: C16_24  and  C17_25 
REMARK    7  A    between atoms: C18_27  and  O8_28 
REMARK    8  A    between atoms: C19_30  and  O9_31 
ROOT
HETATM    1  C2  UNL     1      -5.103 -13.750  28.465  1.00  0.00     0.195 A 
HETATM    2  O2  UNL     1      -4.361 -14.372  27.595  1.00  0.00    -0.286 OA
HETATM    3  C3  UNL     1      -3.060 -14.091  27.473  1.00  0.00     0.104 A 
HETATM    4  C4  UNL     1      -2.324 -14.782  26.540  1.00  0.00     0.016 A 
HETATM    5  C5  UNL     1      -0.989 -14.519  26.392  1.00  0.00     0.114 A 
HETATM    6  C6  UNL     1      -0.416 -13.557  27.195  1.00  0.00     0.134 A 
HETATM    7  C7  UNL     1      -1.133 -12.840  28.150  1.00  0.00     0.121 A 
HETATM    8  C9  UNL     1      -2.475 -13.125  28.278  1.00  0.00     0.085 A 
HETATM    9  C10 UNL     1      -3.252 -12.459  29.204  1.00  0.00     0.198 A 
HETATM   10  O5  UNL     1      -2.783 -11.569  29.969  1.00  0.00    -0.287 OA
HETATM   11  C11 UNL     1      -4.601 -12.778  29.301  1.00  0.00     0.048 A 
HETATM   12  C12 UNL     1      -5.456 -12.083  30.282  1.00  0.00     0.058 C 
HETATM   13  O6  UNL     1      -0.458 -15.351  25.378  1.00  0.00    -0.342 OA
HETATM   14  C13 UNL     1      -1.310 -16.453  25.321  1.00  0.00     0.136 C 
HETATM   15  C20 UNL     1      -2.658 -15.854  25.548  1.00  0.00     0.077 C 
ENDROOT
BRANCH  14  16
HETATM   16  C14 UNL     1      -1.193 -17.324  24.132  1.00  0.00     0.067 C 
BRANCH  16  17
HETATM   17  C15 UNL     1      -1.977 -18.584  24.141  1.00  0.00     0.155 C 
HETATM   18  O7  UNL     1      -1.043 -19.646  24.059  1.00  0.00    -0.374 OA
HETATM   19  C16 UNL     1      -1.819 -20.780  23.806  1.00  0.00     0.166 C 
HETATM   20  C18 UNL     1      -2.724 -20.338  22.702  1.00  0.00     0.179 C 
HETATM   21  C19 UNL     1      -2.764 -18.824  22.861  1.00  0.00     0.178 C 
BRANCH  19  22
HETATM   22  C17 UNL     1      -0.880 -21.856  23.377  1.00  0.00     0.145 C 
HETATM   23  S1  UNL     1      -0.335 -22.715  24.361  1.00  0.00    -0.124 SA
ENDBRANCH  19  22
BRANCH  20  24
HETATM   24  O8  UNL     1      -3.986 -20.881  22.827  1.00  0.00    -0.390 OA
ATOM     25  H8  UNL     1      -4.478 -20.472  23.529  1.00  0.00     0.210 HD
ENDBRANCH  20  24
BRANCH  21  26
HETATM   26  O9  UNL     1      -2.067 -18.209  21.814  1.00  0.00    -0.390 OA
ATOM     27  H9  UNL     1      -1.139 -18.318  21.984  1.00  0.00     0.210 HD
ENDBRANCH  21  26
ENDBRANCH  16  17
ENDBRANCH  14  16
BRANCH   6  28
HETATM   28  O3  UNL     1       0.940 -13.247  27.088  1.00  0.00    -0.356 OA
ATOM     29  H3  UNL     1       1.541 -13.433  27.800  1.00  0.00     0.218 HD
ENDBRANCH   6  28
BRANCH   7  30
HETATM   30  O4  UNL     1      -0.497 -11.878  28.932  1.00  0.00    -0.352 OA
HETATM   31  C8  UNL     1      -0.227 -10.623  28.291  1.00  0.00     0.210 C 
ENDBRANCH   7  30
BRANCH   1  32
HETATM   32  O1  UNL     1      -6.468 -14.038  28.599  1.00  0.00    -0.335 OA
HETATM   33  C1  UNL     1      -6.801 -15.393  28.833  1.00  0.00     0.212 C 
ENDBRANCH   1  32
TORSDOF 8
ENDMDL
MODEL 5
REMARK VINA RESULT: -8.433178901      1.332      1.457
REMARK  8 active torsions:
REMARK  status: ('A' for Active; 'I' for Inactive)
REMARK    1  A    between atoms: O1_2  and  C2_3 
REMARK    2  A    between atoms: C6_8  and  O3_9 
REMARK    3  A    between atoms: C7_11  and  O4_12 
REMARK    4  A    between atoms: C13_20  and  C14_21 
REMARK    5  A    between atoms: C14_21  and  C15_22 
REMARK    6  A    between atoms: C16_24  and  C17_25 
REMARK    7  A    between atoms: C18_27  and  O8_28 
REMARK    8  A    between atoms: C19_30  and  O9_31 
ROOT
HETATM    1  C2  UNL     1      -4.708 -13.508  29.180  1.00  0.00     0.195 A 
HETATM    2  O2  UNL     1      -4.067 -14.181  28.268  1.00  0.00    -0.286 OA
HETATM    3  C3  UNL     1      -2.810 -13.868  27.938  1.00  0.00     0.104 A 
HETATM    4  C4  UNL     1      -2.181 -14.614  26.970  1.00  0.00     0.016 A 
HETATM    5  C5  UNL     1      -0.893 -14.320  26.611  1.00  0.00     0.114 A 
HETATM    6  C6  UNL     1      -0.259 -13.272  27.240  1.00  0.00     0.134 A 
HETATM    7  C7  UNL     1      -0.868 -12.497  28.225  1.00  0.00     0.121 A 
HETATM    8  C9  UNL     1      -2.164 -12.815  28.567  1.00  0.00     0.085 A 
HETATM    9  C10 UNL     1      -2.834 -12.095  29.536  1.00  0.00     0.198 A 
HETATM   10  O5  UNL     1      -2.304 -11.125  30.149  1.00  0.00    -0.287 OA
HETATM   11  C11 UNL     1      -4.139 -12.449  29.852  1.00  0.00     0.048 A 
HETATM   12  C12 UNL     1      -4.880 -11.698  30.883  1.00  0.00     0.058 C 
HETATM   13  O6  UNL     1      -0.472 -15.221  25.605  1.00  0.00    -0.342 OA
HETATM   14  C13 UNL     1      -1.271 -16.352  25.763  1.00  0.00     0.136 C 
HETATM   15  C20 UNL     1      -2.601 -15.781  26.130  1.00  0.00     0.077 C 
ENDROOT
BRANCH  14  16
HETATM   16  C14 UNL     1      -1.281 -17.322  24.646  1.00  0.00     0.067 C 
BRANCH  16  17
HETATM   17  C15 UNL     1      -2.582 -17.555  23.969  1.00  0.00     0.155 C 
HETATM   18  O7  UNL     1      -3.049 -18.818  24.408  1.00  0.00    -0.374 OA
HETATM   19  C16 UNL     1      -4.121 -19.111  23.561  1.00  0.00     0.166 C 
HETATM   20  C18 UNL     1      -3.576 -18.816  22.201  1.00  0.00     0.179 C 
HETATM   21  C19 UNL     1      -2.454 -17.824  22.477  1.00  0.00     0.178 C 
BRANCH  19  22
HETATM   22  C17 UNL     1      -4.433 -20.557  23.749  1.00  0.00     0.145 C 
HETATM   23  S1  UNL     1      -3.375 -21.495  23.680  1.00  0.00    -0.124 SA
ENDBRANCH  19  22
BRANCH  20  24
HETATM   24  O8  UNL     1      -4.532 -18.265  21.375  1.00  0.00    -0.390 OA
ATOM     25  H8  UNL     1      -4.491 -18.625  20.497  1.00  0.00     0.210 HD
ENDBRANCH  20  24
BRANCH  21  26
HETATM   26  O9  UNL     1      -1.210 -18.425  22.260  1.00  0.00    -0.390 OA
ATOM     27  H9  UNL     1      -0.834 -18.623  23.110  1.00  0.00     0.210 HD
ENDBRANCH  21  26
ENDBRANCH  16  17
ENDBRANCH  14  16
BRANCH   6  28
HETATM   28  O3  UNL     1       1.053 -12.927  26.915  1.00  0.00    -0.356 OA
ATOM     29  H3  UNL     1       1.553 -12.333  27.463  1.00  0.00     0.218 HD
ENDBRANCH   6  28
BRANCH   7  30
HETATM   30  O4  UNL     1      -0.174 -11.447  28.824  1.00  0.00    -0.352 OA
HETATM   31  C8  UNL     1      -0.141 -10.214  28.092  1.00  0.00     0.210 C 
ENDBRANCH   7  30
BRANCH   1  32
HETATM   32  O1  UNL     1      -6.026 -13.829  29.532  1.00  0.00    -0.335 OA
HETATM   33  C1  UNL     1      -6.575 -14.978  28.917  1.00  0.00     0.212 C 
ENDBRANCH   1  32
TORSDOF 8
ENDMDL
