MODEL 1
REMARK VINA RESULT: -7.936753761      0.000      0.000
REMARK  15 active torsions:
REMARK  status: ('A' for Active; 'I' for Inactive)
REMARK    1  A    between atoms: O1_2  and  N1_3 
REMARK    2  A    between atoms: C2_5  and  C3_6 
REMARK    3  A    between atoms: C2_5  and  C21_49 
REMARK    4  A    between atoms: C3_6  and  O3_8 
REMARK    5  A    between atoms: O3_8  and  C4_9 
REMARK    6  A    between atoms: C4_9  and  C5_10 
REMARK    7  A    between atoms: N4_15  and  C6_16 
REMARK    8  A    between atoms: C7_17  and  N5_18 
REMARK       I    between atoms: N5_18  and  C8_20 
REMARK       I    between atoms: C8_20  and  N6_22 
REMARK       I    between atoms: N6_22  and  C9_24 
REMARK    9  A    between atoms: C9_24  and  C10_26 
REMARK   10  A    between atoms: C10_26  and  O6_28 
REMARK   11  A    between atoms: O6_28  and  C12_29 
REMARK   12  A    between atoms: C14_32  and  O8_33 
REMARK   13  A    between atoms: C17_39  and  C18_40 
REMARK   14  A    between atoms: C19_43  and  C20_44 
REMARK   15  A    between atoms: C23_52  and  N8_53 
ROOT
HETATM    1  C6  UNL     1      43.642  40.508  34.636  1.00  0.00     0.178 C 
HETATM    2  C7  UNL     1      43.017  41.460  35.609  1.00  0.00     0.145 C 
HETATM    3  C14 UNL     1      42.115  42.376  34.734  1.00  0.00     0.173 C 
HETATM    4  C15 UNL     1      41.679  41.424  33.709  1.00  0.00     0.179 C 
HETATM    5  O9  UNL     1      41.173  41.948  32.557  1.00  0.00    -0.358 OA
HETATM    6  C16 UNL     1      40.877  40.877  31.714  1.00  0.00     0.339 C 
HETATM    7  O10 UNL     1      42.016  40.163  31.362  1.00  0.00    -0.349 OA
HETATM    8  C17 UNL     1      42.516  39.539  32.561  1.00  0.00     0.248 C 
HETATM    9  C19 UNL     1      43.024  40.761  33.326  1.00  0.00     0.139 C 
ENDROOT
BRANCH   1  10
HETATM   10  N4  UNL     1      45.091  40.602  34.696  1.00  0.00    -0.210 N 
HETATM   11  N3  UNL     1      45.892  41.641  34.552  1.00  0.00    -0.224 N 
HETATM   12  N2  UNL     1      47.164  41.310  34.662  1.00  0.00    -0.270 N 
ATOM     13  H3  UNL     1      45.565  42.591  34.377  1.00  0.00     0.210 HD
HETATM   14  C5  UNL     1      47.205  39.993  34.886  1.00  0.00     0.138 A 
ATOM     15  H2  UNL     1      47.964  41.939  34.589  1.00  0.00     0.190 HD
HETATM   16  N7  UNL     1      45.933  39.589  34.903  1.00  0.00    -0.268 N 
ATOM     17  H7  UNL     1      45.642  38.624  35.057  1.00  0.00     0.190 HD
BRANCH  14  18
HETATM   18  C4  UNL     1      48.353  39.087  35.069  1.00  0.00     0.258 C 
BRANCH  18  19
HETATM   19  O3  UNL     1      47.977  37.726  35.102  1.00  0.00    -0.309 OA
BRANCH  19  20
HETATM   20  C3  UNL     1      48.079  36.962  33.950  1.00  0.00     0.314 C 
HETATM   21  O2  UNL     1      49.280  36.691  33.574  1.00  0.00    -0.257 OA
BRANCH  20  22
HETATM   22  C2  UNL     1      47.022  36.449  33.148  1.00  0.00     0.156 C 
HETATM   23  N1  UNL     1      46.674  37.124  32.091  1.00  0.00    -0.259 N 
ATOM     24  H1  UNL     1      45.917  36.763  31.511  1.00  0.00     0.194 HD
BRANCH  23  25
HETATM   25  O1  UNL     1      47.268  38.277  31.727  1.00  0.00    -0.285 OA
HETATM   26  C1  UNL     1      47.339  38.692  30.369  1.00  0.00     0.237 C 
ENDBRANCH  23  25
BRANCH  22  27
HETATM   27  C21 UNL     1      46.293  35.168  33.446  1.00  0.00     0.075 A 
HETATM   28  C22 UNL     1      46.814  33.953  33.085  1.00  0.00     0.085 A 
HETATM   29  S1  UNL     1      45.607  32.866  33.638  1.00  0.00    -0.064 SA
HETATM   30  C23 UNL     1      44.535  33.992  34.281  1.00  0.00     0.142 A 
HETATM   31  N9  UNL     1      45.130  35.170  34.056  1.00  0.00    -0.335 N 
ATOM     32  H9  UNL     1      44.693  36.043  34.349  1.00  0.00     0.168 HD
BRANCH  30  33
HETATM   33  N8  UNL     1      43.369  33.825  34.886  1.00  0.00    -0.380 N 
ATOM     34  H82 UNL     1      42.489  33.599  34.422  1.00  0.00     0.158 HD
ATOM     35  H81 UNL     1      43.116  33.887  35.872  1.00  0.00     0.158 HD
ENDBRANCH  30  33
ENDBRANCH  22  27
ENDBRANCH  20  22
ENDBRANCH  19  20
ENDBRANCH  18  19
ENDBRANCH  14  18
ENDBRANCH   1  10
BRANCH   2  36
HETATM   36  N5  UNL     1      43.836  42.265  36.413  1.00  0.00    -0.333 N 
HETATM   37  C8  UNL     1      44.000  41.901  37.847  1.00  0.00     0.323 C 
HETATM   38  O4  UNL     1      43.410  40.876  38.125  1.00  0.00    -0.247 OA
HETATM   39  N6  UNL     1      44.744  42.752  38.594  1.00  0.00    -0.277 N 
HETATM   40  C9  UNL     1      43.988  42.529  40.098  1.00  0.00     0.254 C 
ATOM     41  H6  UNL     1      45.527  43.350  38.330  1.00  0.00     0.173 HD
HETATM   42  O5  UNL     1      44.604  43.183  40.929  1.00  0.00    -0.270 OA
ATOM     43  H5  UNL     1      44.308  43.080  36.024  1.00  0.00     0.164 HD
BRANCH  40  44
HETATM   44  C10 UNL     1      42.853  41.753  40.295  1.00  0.00     0.220 C 
HETATM   45  C11 UNL     1      42.657  41.129  41.695  1.00  0.00     0.050 C 
BRANCH  44  46
HETATM   46  O6  UNL     1      41.682  42.709  40.292  1.00  0.00    -0.307 OA
BRANCH  46  47
HETATM   47  C12 UNL     1      40.782  42.659  39.266  1.00  0.00     0.255 C 
HETATM   48  C13 UNL     1      39.767  41.584  39.171  1.00  0.00     0.126 C 
HETATM   49  O7  UNL     1      40.809  43.550  38.371  1.00  0.00    -0.266 OA
ENDBRANCH  46  47
ENDBRANCH  44  46
ENDBRANCH  40  44
ENDBRANCH   2  36
BRANCH   9  50
HETATM   50  C20 UNL     1      43.759  41.595  32.372  1.00  0.00     0.190 C 
HETATM   51  O13 UNL     1      44.656  41.138  31.625  1.00  0.00    -0.647 OA
HETATM   52  O14 UNL     1      43.471  42.946  32.277  1.00  0.00    -0.647 OA
ENDBRANCH   9  50
BRANCH   3  53
HETATM   53  O8  UNL     1      41.021  42.699  35.532  1.00  0.00    -0.391 OA
ATOM     54  H8  UNL     1      41.385  42.974  36.366  1.00  0.00     0.210 HD
ENDBRANCH   3  53
BRANCH   8  55
HETATM   55  C18 UNL     1      43.481  38.527  32.235  1.00  0.00     0.204 C 
HETATM   56  O11 UNL     1      43.978  37.811  33.157  1.00  0.00    -0.646 OA
HETATM   57  O12 UNL     1      43.908  38.286  30.957  1.00  0.00    -0.646 OA
ENDBRANCH   8  55
TORSDOF 15
ENDMDL
MODEL 2
REMARK VINA RESULT: -7.934920266      1.461      1.755
REMARK  15 active torsions:
REMARK  status: ('A' for Active; 'I' for Inactive)
REMARK    1  A    between atoms: O1_2  and  N1_3 
REMARK    2  A    between atoms: C2_5  and  C3_6 
REMARK    3  A    between atoms: C2_5  and  C21_49 
REMARK    4  A    between atoms: C3_6  and  O3_8 
REMARK    5  A    between atoms: O3_8  and  C4_9 
REMARK    6  A    between atoms: C4_9  and  C5_10 
REMARK    7  A    between atoms: N4_15  and  C6_16 
REMARK    8  A    between atoms: C7_17  and  N5_18 
REMARK       I    between atoms: N5_18  and  C8_20 
REMARK       I    between atoms: C8_20  and  N6_22 
REMARK       I    between atoms: N6_22  and  C9_24 
REMARK    9  A    between atoms: C9_24  and  C10_26 
REMARK   10  A    between atoms: C10_26  and  O6_28 
REMARK   11  A    between atoms: O6_28  and  C12_29 
REMARK   12  A    between atoms: C14_32  and  O8_33 
REMARK   13  A    between atoms: C17_39  and  C18_40 
REMARK   14  A    between atoms: C19_43  and  C20_44 
REMARK   15  A    between atoms: C23_52  and  N8_53 
ROOT
HETATM    1  C6  UNL     1      43.675  40.447  34.569  1.00  0.00     0.178 C 
HETATM    2  C7  UNL     1      43.066  41.398  35.552  1.00  0.00     0.145 C 
HETATM    3  C14 UNL     1      42.163  42.326  34.690  1.00  0.00     0.173 C 
HETATM    4  C15 UNL     1      41.712  41.383  33.664  1.00  0.00     0.179 C 
HETATM    5  O9  UNL     1      41.199  41.917  32.519  1.00  0.00    -0.358 OA
HETATM    6  C16 UNL     1      40.888  40.853  31.672  1.00  0.00     0.339 C 
HETATM    7  O10 UNL     1      42.019  40.132  31.307  1.00  0.00    -0.349 OA
HETATM    8  C17 UNL     1      42.525  39.498  32.498  1.00  0.00     0.248 C 
HETATM    9  C19 UNL     1      43.048  40.712  33.265  1.00  0.00     0.139 C 
ENDROOT
BRANCH   1  10
HETATM   10  N4  UNL     1      45.126  40.530  34.616  1.00  0.00    -0.210 N 
HETATM   11  N3  UNL     1      45.941  41.524  34.315  1.00  0.00    -0.224 N 
HETATM   12  N2  UNL     1      47.208  41.197  34.477  1.00  0.00    -0.270 N 
ATOM     13  H3  UNL     1      45.627  42.440  33.994  1.00  0.00     0.210 HD
HETATM   14  C5  UNL     1      47.231  39.930  34.902  1.00  0.00     0.138 A 
ATOM     15  H2  UNL     1      48.016  41.797  34.309  1.00  0.00     0.190 HD
HETATM   16  N7  UNL     1      45.955  39.551  34.979  1.00  0.00    -0.268 N 
ATOM     17  H7  UNL     1      45.650  38.625  35.280  1.00  0.00     0.190 HD
BRANCH  14  18
HETATM   18  C4  UNL     1      48.368  39.048  35.226  1.00  0.00     0.258 C 
BRANCH  18  19
HETATM   19  O3  UNL     1      48.309  37.811  34.549  1.00  0.00    -0.309 OA
BRANCH  19  20
HETATM   20  C3  UNL     1      48.910  37.682  33.307  1.00  0.00     0.314 C 
HETATM   21  O2  UNL     1      50.152  37.341  33.328  1.00  0.00    -0.257 OA
BRANCH  20  22
HETATM   22  C2  UNL     1      48.320  37.882  32.028  1.00  0.00     0.156 C 
HETATM   23  N1  UNL     1      48.440  39.055  31.476  1.00  0.00    -0.259 N 
ATOM     24  H1  UNL     1      48.018  39.205  30.559  1.00  0.00     0.194 HD
BRANCH  23  25
HETATM   25  O1  UNL     1      49.094  40.077  32.059  1.00  0.00    -0.285 OA
HETATM   26  C1  UNL     1      50.264  40.646  31.484  1.00  0.00     0.237 C 
ENDBRANCH  23  25
BRANCH  22  27
HETATM   27  C21 UNL     1      47.576  36.813  31.276  1.00  0.00     0.075 A 
HETATM   28  C22 UNL     1      48.171  36.116  30.257  1.00  0.00     0.085 A 
HETATM   29  S1  UNL     1      46.911  35.064  29.758  1.00  0.00    -0.064 SA
HETATM   30  C23 UNL     1      45.728  35.559  30.847  1.00  0.00     0.142 A 
HETATM   31  N9  UNL     1      46.330  36.516  31.564  1.00  0.00    -0.335 N 
ATOM     32  H9  UNL     1      45.835  37.000  32.313  1.00  0.00     0.168 HD
BRANCH  30  33
HETATM   33  N8  UNL     1      44.483  35.142  31.017  1.00  0.00    -0.380 N 
ATOM     34  H82 UNL     1      43.673  35.471  30.492  1.00  0.00     0.158 HD
ATOM     35  H81 UNL     1      44.094  34.457  31.664  1.00  0.00     0.158 HD
ENDBRANCH  30  33
ENDBRANCH  22  27
ENDBRANCH  20  22
ENDBRANCH  19  20
ENDBRANCH  18  19
ENDBRANCH  14  18
ENDBRANCH   1  10
BRANCH   2  36
HETATM   36  N5  UNL     1      43.898  42.192  36.354  1.00  0.00    -0.333 N 
HETATM   37  C8  UNL     1      44.023  41.857  37.798  1.00  0.00     0.323 C 
HETATM   38  O4  UNL     1      43.391  40.859  38.088  1.00  0.00    -0.247 OA
HETATM   39  N6  UNL     1      44.782  42.698  38.540  1.00  0.00    -0.277 N 
HETATM   40  C9  UNL     1      43.991  42.537  40.033  1.00  0.00     0.254 C 
ATOM     41  H6  UNL     1      45.590  43.262  38.278  1.00  0.00     0.173 HD
HETATM   42  O5  UNL     1      44.614  43.188  40.862  1.00  0.00    -0.270 OA
ATOM     43  H5  UNL     1      44.406  42.982  35.956  1.00  0.00     0.164 HD
BRANCH  40  44
HETATM   44  C10 UNL     1      42.825  41.806  40.226  1.00  0.00     0.220 C 
HETATM   45  C11 UNL     1      42.585  41.216  41.634  1.00  0.00     0.050 C 
BRANCH  44  46
HETATM   46  O6  UNL     1      41.690  42.803  40.187  1.00  0.00    -0.307 OA
BRANCH  46  47
HETATM   47  C12 UNL     1      40.755  42.711  39.196  1.00  0.00     0.255 C 
HETATM   48  C13 UNL     1      39.738  41.632  39.182  1.00  0.00     0.126 C 
HETATM   49  O7  UNL     1      40.748  43.564  38.265  1.00  0.00    -0.266 OA
ENDBRANCH  46  47
ENDBRANCH  44  46
ENDBRANCH  40  44
ENDBRANCH   2  36
BRANCH   9  50
HETATM   50  C20 UNL     1      43.781  41.546  32.310  1.00  0.00     0.190 C 
HETATM   51  O13 UNL     1      43.620  42.787  32.233  1.00  0.00    -0.647 OA
HETATM   52  O14 UNL     1      44.693  40.963  31.447  1.00  0.00    -0.647 OA
ENDBRANCH   9  50
BRANCH   3  53
HETATM   53  O8  UNL     1      41.079  42.652  35.500  1.00  0.00    -0.391 OA
ATOM     54  H8  UNL     1      41.377  43.366  36.051  1.00  0.00     0.210 HD
ENDBRANCH   3  53
BRANCH   8  55
HETATM   55  C18 UNL     1      43.479  38.481  32.158  1.00  0.00     0.204 C 
HETATM   56  O11 UNL     1      43.714  38.222  30.938  1.00  0.00    -0.646 OA
HETATM   57  O12 UNL     1      44.165  37.756  33.096  1.00  0.00    -0.646 OA
ENDBRANCH   8  55
TORSDOF 15
ENDMDL
MODEL 3
REMARK VINA RESULT: -7.911856362      1.403      2.381
REMARK  15 active torsions:
REMARK  status: ('A' for Active; 'I' for Inactive)
REMARK    1  A    between atoms: O1_2  and  N1_3 
REMARK    2  A    between atoms: C2_5  and  C3_6 
REMARK    3  A    between atoms: C2_5  and  C21_49 
REMARK    4  A    between atoms: C3_6  and  O3_8 
REMARK    5  A    between atoms: O3_8  and  C4_9 
REMARK    6  A    between atoms: C4_9  and  C5_10 
REMARK    7  A    between atoms: N4_15  and  C6_16 
REMARK    8  A    between atoms: C7_17  and  N5_18 
REMARK       I    between atoms: N5_18  and  C8_20 
REMARK       I    between atoms: C8_20  and  N6_22 
REMARK       I    between atoms: N6_22  and  C9_24 
REMARK    9  A    between atoms: C9_24  and  C10_26 
REMARK   10  A    between atoms: C10_26  and  O6_28 
REMARK   11  A    between atoms: O6_28  and  C12_29 
REMARK   12  A    between atoms: C14_32  and  O8_33 
REMARK   13  A    between atoms: C17_39  and  C18_40 
REMARK   14  A    between atoms: C19_43  and  C20_44 
REMARK   15  A    between atoms: C23_52  and  N8_53 
ROOT
HETATM    1  C6  UNL     1      43.465  40.522  34.553  1.00  0.00     0.178 C 
HETATM    2  C7  UNL     1      42.948  41.547  35.514  1.00  0.00     0.145 C 
HETATM    3  C14 UNL     1      42.161  42.553  34.626  1.00  0.00     0.173 C 
HETATM    4  C15 UNL     1      41.625  41.648  33.607  1.00  0.00     0.179 C 
HETATM    5  O9  UNL     1      41.188  42.217  32.447  1.00  0.00    -0.358 OA
HETATM    6  C16 UNL     1      40.776  41.180  31.610  1.00  0.00     0.339 C 
HETATM    7  O10 UNL     1      41.828  40.337  31.272  1.00  0.00    -0.349 OA
HETATM    8  C17 UNL     1      42.247  39.671  32.478  1.00  0.00     0.248 C 
HETATM    9  C19 UNL     1      42.887  40.833  33.237  1.00  0.00     0.139 C 
ENDROOT
BRANCH   1  10
HETATM   10  N4  UNL     1      44.916  40.450  34.620  1.00  0.00    -0.210 N 
HETATM   11  N3  UNL     1      45.832  41.383  34.440  1.00  0.00    -0.224 N 
HETATM   12  N2  UNL     1      47.057  40.912  34.574  1.00  0.00    -0.270 N 
ATOM     13  H3  UNL     1      45.618  42.356  34.223  1.00  0.00     0.210 HD
HETATM   14  C5  UNL     1      46.944  39.610  34.853  1.00  0.00     0.138 A 
ATOM     15  H2  UNL     1      47.924  41.441  34.482  1.00  0.00     0.190 HD
HETATM   16  N7  UNL     1      45.634  39.356  34.876  1.00  0.00    -0.268 N 
ATOM     17  H7  UNL     1      45.232  38.439  35.067  1.00  0.00     0.190 HD
BRANCH  14  18
HETATM   18  C4  UNL     1      47.979  38.585  35.083  1.00  0.00     0.258 C 
BRANCH  18  19
HETATM   19  O3  UNL     1      47.440  37.290  35.246  1.00  0.00    -0.309 OA
BRANCH  19  20
HETATM   20  C3  UNL     1      47.455  36.404  34.181  1.00  0.00     0.314 C 
HETATM   21  O2  UNL     1      48.459  35.598  34.150  1.00  0.00    -0.257 OA
BRANCH  20  22
HETATM   22  C2  UNL     1      46.502  36.286  33.132  1.00  0.00     0.156 C 
HETATM   23  N1  UNL     1      45.421  35.599  33.363  1.00  0.00    -0.259 N 
ATOM     24  H1  UNL     1      44.733  35.510  32.615  1.00  0.00     0.194 HD
BRANCH  23  25
HETATM   25  O1  UNL     1      45.169  35.002  34.544  1.00  0.00    -0.285 OA
HETATM   26  C1  UNL     1      43.863  34.971  35.107  1.00  0.00     0.237 C 
ENDBRANCH  23  25
BRANCH  22  27
HETATM   27  C21 UNL     1      46.668  36.918  31.778  1.00  0.00     0.075 A 
HETATM   28  C22 UNL     1      47.700  37.782  31.517  1.00  0.00     0.085 A 
HETATM   29  S1  UNL     1      47.414  38.199  29.878  1.00  0.00    -0.064 SA
HETATM   30  C23 UNL     1      46.032  37.273  29.623  1.00  0.00     0.142 A 
HETATM   31  N9  UNL     1      45.828  36.669  30.800  1.00  0.00    -0.335 N 
ATOM     32  H9  UNL     1      45.041  36.034  30.934  1.00  0.00     0.168 HD
BRANCH  30  33
HETATM   33  N8  UNL     1      45.281  37.125  28.543  1.00  0.00    -0.380 N 
ATOM     34  H82 UNL     1      45.574  36.671  27.678  1.00  0.00     0.158 HD
ATOM     35  H81 UNL     1      44.322  37.416  28.355  1.00  0.00     0.158 HD
ENDBRANCH  30  33
ENDBRANCH  22  27
ENDBRANCH  20  22
ENDBRANCH  19  20
ENDBRANCH  18  19
ENDBRANCH  14  18
ENDBRANCH   1  10
BRANCH   2  36
HETATM   36  N5  UNL     1      43.850  42.260  36.317  1.00  0.00    -0.333 N 
HETATM   37  C8  UNL     1      43.975  41.882  37.751  1.00  0.00     0.323 C 
HETATM   38  O4  UNL     1      43.278  40.927  38.030  1.00  0.00    -0.247 OA
HETATM   39  N6  UNL     1      44.806  42.649  38.497  1.00  0.00    -0.277 N 
HETATM   40  C9  UNL     1      44.032  42.510  40.001  1.00  0.00     0.254 C 
ATOM     41  H6  UNL     1      45.649  43.158  38.232  1.00  0.00     0.173 HD
HETATM   42  O5  UNL     1      44.715  43.095  40.832  1.00  0.00    -0.270 OA
ATOM     43  H5  UNL     1      44.407  43.019  35.927  1.00  0.00     0.164 HD
BRANCH  40  44
HETATM   44  C10 UNL     1      42.819  41.861  40.200  1.00  0.00     0.220 C 
HETATM   45  C11 UNL     1      42.510  41.361  41.629  1.00  0.00     0.050 C 
BRANCH  44  46
HETATM   46  O6  UNL     1      41.749  42.921  40.080  1.00  0.00    -0.307 OA
BRANCH  46  47
HETATM   47  C12 UNL     1      40.759  42.768  39.152  1.00  0.00     0.255 C 
HETATM   48  C13 UNL     1      39.739  41.699  39.269  1.00  0.00     0.126 C 
HETATM   49  O7  UNL     1      40.703  43.555  38.165  1.00  0.00    -0.266 OA
ENDBRANCH  46  47
ENDBRANCH  44  46
ENDBRANCH  40  44
ENDBRANCH   2  36
BRANCH   9  50
HETATM   50  C20 UNL     1      43.718  41.570  32.281  1.00  0.00     0.190 C 
HETATM   51  O13 UNL     1      43.665  42.816  32.160  1.00  0.00    -0.647 OA
HETATM   52  O14 UNL     1      44.604  40.883  31.469  1.00  0.00    -0.647 OA
ENDBRANCH   9  50
BRANCH   3  53
HETATM   53  O8  UNL     1      41.108  43.006  35.416  1.00  0.00    -0.391 OA
ATOM     54  H8  UNL     1      41.457  43.069  36.297  1.00  0.00     0.210 HD
ENDBRANCH   3  53
BRANCH   8  55
HETATM   55  C18 UNL     1      43.092  38.552  32.166  1.00  0.00     0.204 C 
HETATM   56  O11 UNL     1      43.659  37.912  33.103  1.00  0.00    -0.646 OA
HETATM   57  O12 UNL     1      43.327  38.129  30.885  1.00  0.00    -0.646 OA
ENDBRANCH   8  55
TORSDOF 15
ENDMDL
MODEL 4
REMARK VINA RESULT: -7.880050522      3.595      8.379
REMARK  15 active torsions:
REMARK  status: ('A' for Active; 'I' for Inactive)
REMARK    1  A    between atoms: O1_2  and  N1_3 
REMARK    2  A    between atoms: C2_5  and  C3_6 
REMARK    3  A    between atoms: C2_5  and  C21_49 
REMARK    4  A    between atoms: C3_6  and  O3_8 
REMARK    5  A    between atoms: O3_8  and  C4_9 
REMARK    6  A    between atoms: C4_9  and  C5_10 
REMARK    7  A    between atoms: N4_15  and  C6_16 
REMARK    8  A    between atoms: C7_17  and  N5_18 
REMARK       I    between atoms: N5_18  and  C8_20 
REMARK       I    between atoms: C8_20  and  N6_22 
REMARK       I    between atoms: N6_22  and  C9_24 
REMARK    9  A    between atoms: C9_24  and  C10_26 
REMARK   10  A    between atoms: C10_26  and  O6_28 
REMARK   11  A    between atoms: O6_28  and  C12_29 
REMARK   12  A    between atoms: C14_32  and  O8_33 
REMARK   13  A    between atoms: C17_39  and  C18_40 
REMARK   14  A    between atoms: C19_43  and  C20_44 
REMARK   15  A    between atoms: C23_52  and  N8_53 
ROOT
HETATM    1  C6  UNL     1      44.133  39.873  33.532  1.00  0.00     0.178 C 
HETATM    2  C7  UNL     1      43.164  39.239  32.583  1.00  0.00     0.145 C 
HETATM    3  C14 UNL     1      41.933  40.190  32.589  1.00  0.00     0.173 C 
HETATM    4  C15 UNL     1      42.595  41.484  32.767  1.00  0.00     0.179 C 
HETATM    5  O9  UNL     1      41.817  42.521  33.191  1.00  0.00    -0.358 OA
HETATM    6  C16 UNL     1      42.654  43.627  33.341  1.00  0.00     0.339 C 
HETATM    7  O10 UNL     1      43.616  43.421  34.323  1.00  0.00    -0.349 OA
HETATM    8  C17 UNL     1      44.492  42.379  33.849  1.00  0.00     0.248 C 
HETATM    9  C19 UNL     1      43.563  41.169  33.932  1.00  0.00     0.139 C 
ENDROOT
BRANCH   1  10
HETATM   10  N4  UNL     1      44.463  38.953  34.609  1.00  0.00    -0.210 N 
HETATM   11  N3  UNL     1      45.569  38.275  34.851  1.00  0.00    -0.224 N 
HETATM   12  N2  UNL     1      45.469  37.527  35.933  1.00  0.00    -0.270 N 
ATOM     13  H3  UNL     1      46.405  38.323  34.269  1.00  0.00     0.210 HD
HETATM   14  C5  UNL     1      44.242  37.719  36.426  1.00  0.00     0.138 A 
ATOM     15  H2  UNL     1      46.191  36.918  36.319  1.00  0.00     0.190 HD
HETATM   16  N7  UNL     1      43.654  38.590  35.604  1.00  0.00    -0.268 N 
ATOM     17  H7  UNL     1      42.702  38.936  35.723  1.00  0.00     0.190 HD
BRANCH  14  18
HETATM   18  C4  UNL     1      43.579  37.130  37.604  1.00  0.00     0.258 C 
BRANCH  18  19
HETATM   19  O3  UNL     1      43.318  38.080  38.616  1.00  0.00    -0.309 OA
BRANCH  19  20
HETATM   20  C3  UNL     1      42.069  38.677  38.686  1.00  0.00     0.314 C 
HETATM   21  O2  UNL     1      41.265  38.386  37.723  1.00  0.00    -0.257 OA
BRANCH  20  22
HETATM   22  C2  UNL     1      41.582  39.563  39.686  1.00  0.00     0.156 C 
HETATM   23  N1  UNL     1      41.465  39.110  40.900  1.00  0.00    -0.259 N 
ATOM     24  H1  UNL     1      41.116  39.740  41.623  1.00  0.00     0.194 HD
BRANCH  23  25
HETATM   25  O1  UNL     1      41.784  37.849  41.247  1.00  0.00    -0.285 OA
HETATM   26  C1  UNL     1      41.025  37.116  42.201  1.00  0.00     0.237 C 
ENDBRANCH  23  25
BRANCH  22  27
HETATM   27  C21 UNL     1      41.206  40.995  39.421  1.00  0.00     0.075 A 
HETATM   28  C22 UNL     1      41.220  41.932  40.421  1.00  0.00     0.085 A 
HETATM   29  S1  UNL     1      40.711  43.347  39.596  1.00  0.00    -0.064 SA
HETATM   30  C23 UNL     1      40.515  42.684  38.062  1.00  0.00     0.142 A 
HETATM   31  N9  UNL     1      40.844  41.396  38.223  1.00  0.00    -0.335 N 
ATOM     32  H9  UNL     1      40.816  40.745  37.439  1.00  0.00     0.168 HD
BRANCH  30  33
HETATM   33  N8  UNL     1      40.136  43.242  36.924  1.00  0.00    -0.380 N 
ATOM     34  H82 UNL     1      39.288  43.012  36.406  1.00  0.00     0.158 HD
ATOM     35  H81 UNL     1      40.580  43.965  36.358  1.00  0.00     0.158 HD
ENDBRANCH  30  33
ENDBRANCH  22  27
ENDBRANCH  20  22
ENDBRANCH  19  20
ENDBRANCH  18  19
ENDBRANCH  14  18
ENDBRANCH   1  10
BRANCH   2  36
HETATM   36  N5  UNL     1      42.726  37.928  32.815  1.00  0.00    -0.333 N 
HETATM   37  C8  UNL     1      43.262  36.837  31.955  1.00  0.00     0.323 C 
HETATM   38  O4  UNL     1      44.085  37.250  31.162  1.00  0.00    -0.247 OA
HETATM   39  N6  UNL     1      42.751  35.603  32.175  1.00  0.00    -0.277 N 
HETATM   40  C9  UNL     1      42.885  34.967  30.606  1.00  0.00     0.254 C 
ATOM     41  H6  UNL     1      42.392  35.179  33.031  1.00  0.00     0.173 HD
HETATM   42  O5  UNL     1      42.531  33.796  30.642  1.00  0.00    -0.270 OA
ATOM     43  H5  UNL     1      42.055  37.726  33.556  1.00  0.00     0.164 HD
BRANCH  40  44
HETATM   44  C10 UNL     1      43.300  35.698  29.499  1.00  0.00     0.220 C 
HETATM   45  C11 UNL     1      44.123  34.950  28.427  1.00  0.00     0.050 C 
BRANCH  44  46
HETATM   46  O6  UNL     1      42.056  35.983  28.691  1.00  0.00    -0.307 OA
BRANCH  46  47
HETATM   47  C12 UNL     1      41.849  37.243  28.207  1.00  0.00     0.255 C 
HETATM   48  C13 UNL     1      41.294  37.478  26.853  1.00  0.00     0.126 C 
HETATM   49  O7  UNL     1      42.135  38.241  28.927  1.00  0.00    -0.266 OA
ENDBRANCH  46  47
ENDBRANCH  44  46
ENDBRANCH  40  44
ENDBRANCH   2  36
BRANCH   9  50
HETATM   50  C20 UNL     1      42.867  41.242  35.218  1.00  0.00     0.190 C 
HETATM   51  O13 UNL     1      41.638  41.023  35.336  1.00  0.00    -0.647 OA
HETATM   52  O14 UNL     1      43.573  41.565  36.364  1.00  0.00    -0.647 OA
ENDBRANCH   9  50
BRANCH   3  53
HETATM   53  O8  UNL     1      41.408  40.133  31.301  1.00  0.00    -0.391 OA
ATOM     54  H8  UNL     1      41.171  41.026  31.081  1.00  0.00     0.210 HD
ENDBRANCH   3  53
BRANCH   8  55
HETATM   55  C18 UNL     1      45.691  42.336  34.638  1.00  0.00     0.204 C 
HETATM   56  O11 UNL     1      45.974  43.305  35.407  1.00  0.00    -0.646 OA
HETATM   57  O12 UNL     1      46.569  41.285  34.606  1.00  0.00    -0.646 OA
ENDBRANCH   8  55
TORSDOF 15
ENDMDL
MODEL 5
REMARK VINA RESULT: -7.876794441      1.675      2.552
REMARK  15 active torsions:
REMARK  status: ('A' for Active; 'I' for Inactive)
REMARK    1  A    between atoms: O1_2  and  N1_3 
REMARK    2  A    between atoms: C2_5  and  C3_6 
REMARK    3  A    between atoms: C2_5  and  C21_49 
REMARK    4  A    between atoms: C3_6  and  O3_8 
REMARK    5  A    between atoms: O3_8  and  C4_9 
REMARK    6  A    between atoms: C4_9  and  C5_10 
REMARK    7  A    between atoms: N4_15  and  C6_16 
REMARK    8  A    between atoms: C7_17  and  N5_18 
REMARK       I    between atoms: N5_18  and  C8_20 
REMARK       I    between atoms: C8_20  and  N6_22 
REMARK       I    between atoms: N6_22  and  C9_24 
REMARK    9  A    between atoms: C9_24  and  C10_26 
REMARK   10  A    between atoms: C10_26  and  O6_28 
REMARK   11  A    between atoms: O6_28  and  C12_29 
REMARK   12  A    between atoms: C14_32  and  O8_33 
REMARK   13  A    between atoms: C17_39  and  C18_40 
REMARK   14  A    between atoms: C19_43  and  C20_44 
REMARK   15  A    between atoms: C23_52  and  N8_53 
ROOT
HETATM    1  C6  UNL     1      43.609  40.391  34.565  1.00  0.00     0.178 C 
HETATM    2  C7  UNL     1      43.049  41.391  35.529  1.00  0.00     0.145 C 
HETATM    3  C14 UNL     1      42.207  42.356  34.645  1.00  0.00     0.173 C 
HETATM    4  C15 UNL     1      41.709  41.424  33.631  1.00  0.00     0.179 C 
HETATM    5  O9  UNL     1      41.235  41.969  32.474  1.00  0.00    -0.358 OA
HETATM    6  C16 UNL     1      40.869  40.911  31.642  1.00  0.00     0.339 C 
HETATM    7  O10 UNL     1      41.959  40.121  31.296  1.00  0.00    -0.349 OA
HETATM    8  C17 UNL     1      42.419  39.478  32.501  1.00  0.00     0.248 C 
HETATM    9  C19 UNL     1      43.006  40.671  33.253  1.00  0.00     0.139 C 
ENDROOT
BRANCH   1  10
HETATM   10  N4  UNL     1      45.061  40.391  34.622  1.00  0.00    -0.210 N 
HETATM   11  N3  UNL     1      45.929  41.368  34.436  1.00  0.00    -0.224 N 
HETATM   12  N2  UNL     1      47.177  40.958  34.560  1.00  0.00    -0.270 N 
ATOM     13  H3  UNL     1      45.666  42.330  34.221  1.00  0.00     0.210 HD
HETATM   14  C5  UNL     1      47.130  39.652  34.839  1.00  0.00     0.138 A 
ATOM     15  H2  UNL     1      48.016  41.529  34.462  1.00  0.00     0.190 HD
HETATM   16  N7  UNL     1      45.835  39.334  34.872  1.00  0.00    -0.268 N 
ATOM     17  H7  UNL     1      45.480  38.398  35.065  1.00  0.00     0.190 HD
BRANCH  14  18
HETATM   18  C4  UNL     1      48.216  38.680  35.061  1.00  0.00     0.258 C 
BRANCH  18  19
HETATM   19  O3  UNL     1      47.742  37.410  35.458  1.00  0.00    -0.309 OA
BRANCH  19  20
HETATM   20  C3  UNL     1      47.149  36.579  34.521  1.00  0.00     0.314 C 
HETATM   21  O2  UNL     1      45.971  36.158  34.826  1.00  0.00    -0.257 OA
BRANCH  20  22
HETATM   22  C2  UNL     1      47.686  36.144  33.278  1.00  0.00     0.156 C 
HETATM   23  N1  UNL     1      48.140  34.926  33.200  1.00  0.00    -0.259 N 
ATOM     24  H1  UNL     1      48.527  34.608  32.312  1.00  0.00     0.194 HD
BRANCH  23  25
HETATM   25  O1  UNL     1      48.121  34.069  34.238  1.00  0.00    -0.285 OA
HETATM   26  C1  UNL     1      48.146  32.659  34.050  1.00  0.00     0.237 C 
ENDBRANCH  23  25
BRANCH  22  27
HETATM   27  C21 UNL     1      47.749  37.007  32.048  1.00  0.00     0.075 A 
HETATM   28  C22 UNL     1      48.945  37.463  31.559  1.00  0.00     0.085 A 
HETATM   29  S1  UNL     1      48.451  38.379  30.195  1.00  0.00    -0.064 SA
HETATM   30  C23 UNL     1      46.790  38.135  30.322  1.00  0.00     0.142 A 
HETATM   31  N9  UNL     1      46.660  37.359  31.404  1.00  0.00    -0.335 N 
ATOM     32  H9  UNL     1      45.741  37.049  31.720  1.00  0.00     0.168 HD
BRANCH  30  33
HETATM   33  N8  UNL     1      45.795  38.570  29.564  1.00  0.00    -0.380 N 
ATOM     34  H82 UNL     1      45.377  39.499  29.614  1.00  0.00     0.158 HD
ATOM     35  H81 UNL     1      45.267  38.103  28.827  1.00  0.00     0.158 HD
ENDBRANCH  30  33
ENDBRANCH  22  27
ENDBRANCH  20  22
ENDBRANCH  19  20
ENDBRANCH  18  19
ENDBRANCH  14  18
ENDBRANCH   1  10
BRANCH   2  36
HETATM   36  N5  UNL     1      43.921  42.149  36.324  1.00  0.00    -0.333 N 
HETATM   37  C8  UNL     1      44.012  41.833  37.776  1.00  0.00     0.323 C 
HETATM   38  O4  UNL     1      43.318  40.882  38.077  1.00  0.00    -0.247 OA
HETATM   39  N6  UNL     1      44.813  42.641  38.510  1.00  0.00    -0.277 N 
HETATM   40  C9  UNL     1      44.001  42.556  39.998  1.00  0.00     0.254 C 
ATOM     41  H6  UNL     1      45.657  43.151  38.246  1.00  0.00     0.173 HD
HETATM   42  O5  UNL     1      44.654  43.184  40.820  1.00  0.00    -0.270 OA
ATOM     43  H5  UNL     1      44.479  42.898  35.917  1.00  0.00     0.164 HD
BRANCH  40  44
HETATM   44  C10 UNL     1      42.791  41.900  40.192  1.00  0.00     0.220 C 
HETATM   45  C11 UNL     1      42.466  41.427  41.626  1.00  0.00     0.050 C 
BRANCH  44  46
HETATM   46  O6  UNL     1      41.713  42.948  40.035  1.00  0.00    -0.307 OA
BRANCH  46  47
HETATM   47  C12 UNL     1      40.741  42.769  39.092  1.00  0.00     0.255 C 
HETATM   48  C13 UNL     1      39.738  41.684  39.202  1.00  0.00     0.126 C 
HETATM   49  O7  UNL     1      40.688  43.547  38.098  1.00  0.00    -0.266 OA
ENDBRANCH  46  47
ENDBRANCH  44  46
ENDBRANCH  40  44
ENDBRANCH   2  36
BRANCH   9  50
HETATM   50  C20 UNL     1      43.793  41.447  32.290  1.00  0.00     0.190 C 
HETATM   51  O13 UNL     1      43.702  42.693  32.190  1.00  0.00    -0.647 OA
HETATM   52  O14 UNL     1      44.678  40.798  31.446  1.00  0.00    -0.647 OA
ENDBRANCH   9  50
BRANCH   3  53
HETATM   53  O8  UNL     1      41.138  42.757  35.442  1.00  0.00    -0.391 OA
ATOM     54  H8  UNL     1      40.434  42.967  34.840  1.00  0.00     0.210 HD
ENDBRANCH   3  53
BRANCH   8  55
HETATM   55  C18 UNL     1      43.315  38.402  32.183  1.00  0.00     0.204 C 
HETATM   56  O11 UNL     1      43.404  37.989  30.987  1.00  0.00    -0.646 OA
HETATM   57  O12 UNL     1      44.096  37.779  33.120  1.00  0.00    -0.646 OA
ENDBRANCH   8  55
TORSDOF 15
ENDMDL
