MODEL 1
REMARK VINA RESULT: -8.760816024      0.000      0.000
REMARK  16 active torsions:
REMARK  status: ('A' for Active; 'I' for Inactive)
REMARK    1  A    between atoms: N1_1  and  C1_4 
REMARK    2  A    between atoms: C2_9  and  N4_10 
REMARK    3  A    between atoms: N5_12  and  C3_14 
REMARK    4  A    between atoms: C5_18  and  O1_19 
REMARK    5  A    between atoms: O1_19  and  C6_20 
REMARK    6  A    between atoms: C6_20  and  C7_21 
REMARK    7  A    between atoms: C7_21  and  O2_22 
REMARK    8  A    between atoms: C7_21  and  C8_24 
REMARK    9  A    between atoms: C8_24  and  O3_25 
REMARK   10  A    between atoms: C8_24  and  C9_27 
REMARK   11  A    between atoms: C9_27  and  O5_29 
REMARK   12  A    between atoms: O5_29  and  C10_30 
REMARK   13  A    between atoms: C11_32  and  C12_33 
REMARK       I    between atoms: C12_33  and  N7_35 
REMARK   14  A    between atoms: N8_38  and  S1_39 
REMARK   15  A    between atoms: N9_45  and  O11_47 
REMARK   16  A    between atoms: C18_50  and  N10_51 
ROOT
HETATM    1  C8  UNL     1      48.699  37.994  34.726  1.00  0.00     0.248 C 
ENDROOT
BRANCH   1   2
HETATM    2  C7  UNL     1      48.450  37.378  33.354  1.00  0.00     0.181 C 
BRANCH   2   3
HETATM    3  C6  UNL     1      48.132  35.909  33.483  1.00  0.00     0.212 C 
BRANCH   3   4
HETATM    4  O1  UNL     1      46.887  35.634  34.049  1.00  0.00    -0.329 OA
BRANCH   4   5
HETATM    5  C5  UNL     1      45.660  36.088  33.641  1.00  0.00     0.212 A 
HETATM    6  N6  UNL     1      45.160  35.996  32.400  1.00  0.00    -0.339 N 
HETATM    7  C4  UNL     1      43.942  36.468  32.089  1.00  0.00     0.140 A 
ATOM      8  H6  UNL     1      45.721  35.555  31.672  1.00  0.00     0.167 HD
HETATM    9  C3  UNL     1      43.121  37.084  33.044  1.00  0.00     0.138 A 
HETATM   10  N11 UNL     1      43.637  37.173  34.304  1.00  0.00    -0.304 N 
HETATM   11  C19 UNL     1      44.855  36.701  34.609  1.00  0.00     0.298 A 
ATOM     12  H11 UNL     1      43.079  37.613  35.036  1.00  0.00     0.171 HD
HETATM   13  O12 UNL     1      45.297  36.804  35.795  1.00  0.00    -0.263 OA
BRANCH   9  14
HETATM   14  N5  UNL     1      41.894  37.543  32.705  1.00  0.00    -0.282 N 
HETATM   15  N4  UNL     1      41.235  38.461  32.366  1.00  0.00    -0.277 N 
ATOM     16  H4  UNL     1      40.245  38.256  32.225  1.00  0.00     0.189 HD
ATOM     17  H5  UNL     1      41.261  36.746  32.773  1.00  0.00     0.188 HD
BRANCH  15  18
HETATM   18  C2  UNL     1      41.619  39.832  32.120  1.00  0.00     0.181 A 
HETATM   19  N3  UNL     1      40.847  40.890  31.940  1.00  0.00    -0.277 N 
HETATM   20  N2  UNL     1      41.356  42.033  31.739  1.00  0.00    -0.278 N 
ATOM     21  H3  UNL     1      39.832  40.786  31.963  1.00  0.00     0.189 HD
HETATM   22  C1  UNL     1      42.688  42.144  31.713  1.00  0.00     0.160 A 
ATOM     23  H2  UNL     1      40.762  42.851  31.601  1.00  0.00     0.189 HD
HETATM   24  S2  UNL     1      43.177  40.526  31.992  1.00  0.00    -0.014 SA
BRANCH  22  25
HETATM   25  N1  UNL     1      43.390  43.239  31.519  1.00  0.00    -0.378 N 
ATOM     26  H12 UNL     1      43.100  44.208  31.383  1.00  0.00     0.158 HD
ATOM     27  H11 UNL     1      44.406  43.319  31.468  1.00  0.00     0.158 HD
ENDBRANCH  22  25
ENDBRANCH  15  18
ENDBRANCH   9  14
ENDBRANCH   4   5
ENDBRANCH   3   4
ENDBRANCH   2   3
BRANCH   2  28
HETATM   28  O2  UNL     1      47.373  38.028  32.764  1.00  0.00    -0.390 OA
ATOM     29  H2  UNL     1      47.698  38.636  32.109  1.00  0.00     0.210 HD
ENDBRANCH   2  28
ENDBRANCH   1   2
BRANCH   1  30
HETATM   30  O3  UNL     1      48.067  37.229  35.704  1.00  0.00    -0.383 OA
ATOM     31  H3  UNL     1      48.171  37.646  36.552  1.00  0.00     0.210 HD
ENDBRANCH   1  30
BRANCH   1  32
HETATM   32  C9  UNL     1      48.228  39.406  34.760  1.00  0.00     0.292 C 
HETATM   33  O4  UNL     1      48.962  40.357  35.151  1.00  0.00    -0.262 OA
BRANCH  32  34
HETATM   34  O5  UNL     1      46.953  39.743  34.359  1.00  0.00    -0.285 OA
BRANCH  34  35
HETATM   35  C10 UNL     1      46.081  40.584  35.135  1.00  0.00     0.301 C 
HETATM   36  O6  UNL     1      44.824  40.047  35.221  1.00  0.00    -0.338 OA
HETATM   37  C11 UNL     1      44.140  40.849  36.187  1.00  0.00     0.264 C 
HETATM   38  C16 UNL     1      43.823  42.075  35.411  1.00  0.00     0.050 C 
HETATM   39  N9  UNL     1      42.625  42.417  35.205  1.00  0.00    -0.274 N 
HETATM   40  C17 UNL     1      44.953  42.841  34.890  1.00  0.00     0.095 C 
ATOM     41  H9  UNL     1      41.861  41.850  35.572  1.00  0.00     0.193 HD
HETATM   42  C18 UNL     1      46.194  41.998  34.706  1.00  0.00     0.244 C 
BRANCH  37  43
HETATM   43  C12 UNL     1      42.985  40.150  36.739  1.00  0.00     0.255 C 
HETATM   44  O7  UNL     1      42.320  39.428  35.922  1.00  0.00    -0.270 OA
HETATM   45  N7  UNL     1      42.629  40.264  38.090  1.00  0.00    -0.335 N 
HETATM   46  C13 UNL     1      43.283  41.034  39.114  1.00  0.00     0.142 C 
HETATM   47  C15 UNL     1      41.519  39.591  38.722  1.00  0.00     0.237 C 
HETATM   48  C14 UNL     1      43.021  40.231  40.397  1.00  0.00     0.131 C 
HETATM   49  N8  UNL     1      41.687  39.702  40.159  1.00  0.00    -0.173 NA
BRANCH  49  50
HETATM   50  S1  UNL     1      40.487  40.734  40.851  1.00  0.00     0.186 S 
HETATM   51  O8  UNL     1      41.157  41.832  41.619  1.00  0.00    -0.582 OA
HETATM   52  O9  UNL     1      39.598  39.927  41.732  1.00  0.00    -0.582 OA
HETATM   53  O10 UNL     1      39.601  41.424  39.609  1.00  0.00    -0.582 OA
ENDBRANCH  49  50
ENDBRANCH  37  43
BRANCH  39  54
HETATM   54  O11 UNL     1      42.353  43.553  34.485  1.00  0.00    -0.290 OA
ATOM     55  H11 UNL     1      41.453  43.829  34.359  1.00  0.00     0.244 HD
ENDBRANCH  39  54
BRANCH  42  56
HETATM   56  N10 UNL     1      47.351  42.634  35.366  1.00  0.00    -0.070 N 
ATOM     57 3H10 UNL     1      47.176  42.815  36.354  1.00  0.00     0.274 HD
ATOM     58 2H10 UNL     1      48.135  41.989  35.469  1.00  0.00     0.274 HD
ATOM     59 1H10 UNL     1      47.617  43.481  34.862  1.00  0.00     0.274 HD
ENDBRANCH  42  56
ENDBRANCH  34  35
ENDBRANCH  32  34
ENDBRANCH   1  32
TORSDOF 16
ENDMDL
MODEL 2
REMARK VINA RESULT: -8.400757276      3.114      3.909
REMARK  16 active torsions:
REMARK  status: ('A' for Active; 'I' for Inactive)
REMARK    1  A    between atoms: N1_1  and  C1_4 
REMARK    2  A    between atoms: C2_9  and  N4_10 
REMARK    3  A    between atoms: N5_12  and  C3_14 
REMARK    4  A    between atoms: C5_18  and  O1_19 
REMARK    5  A    between atoms: O1_19  and  C6_20 
REMARK    6  A    between atoms: C6_20  and  C7_21 
REMARK    7  A    between atoms: C7_21  and  O2_22 
REMARK    8  A    between atoms: C7_21  and  C8_24 
REMARK    9  A    between atoms: C8_24  and  O3_25 
REMARK   10  A    between atoms: C8_24  and  C9_27 
REMARK   11  A    between atoms: C9_27  and  O5_29 
REMARK   12  A    between atoms: O5_29  and  C10_30 
REMARK   13  A    between atoms: C11_32  and  C12_33 
REMARK       I    between atoms: C12_33  and  N7_35 
REMARK   14  A    between atoms: N8_38  and  S1_39 
REMARK   15  A    between atoms: N9_45  and  O11_47 
REMARK   16  A    between atoms: C18_50  and  N10_51 
ROOT
HETATM    1  C8  UNL     1      48.225  37.891  33.247  1.00  0.00     0.248 C 
ENDROOT
BRANCH   1   2
HETATM    2  C7  UNL     1      48.756  38.861  32.199  1.00  0.00     0.181 C 
BRANCH   2   3
HETATM    3  C6  UNL     1      47.950  38.762  30.927  1.00  0.00     0.212 C 
BRANCH   3   4
HETATM    4  O1  UNL     1      46.756  39.482  30.941  1.00  0.00    -0.329 OA
BRANCH   4   5
HETATM    5  C5  UNL     1      45.520  39.069  30.513  1.00  0.00     0.212 A 
HETATM    6  N6  UNL     1      45.262  37.959  29.808  1.00  0.00    -0.339 N 
HETATM    7  C4  UNL     1      44.016  37.630  29.432  1.00  0.00     0.140 A 
ATOM      8  H6  UNL     1      46.035  37.346  29.549  1.00  0.00     0.167 HD
HETATM    9  C3  UNL     1      42.910  38.428  29.757  1.00  0.00     0.138 A 
HETATM   10  N11 UNL     1      43.181  39.556  30.475  1.00  0.00    -0.304 N 
HETATM   11  C19 UNL     1      44.428  39.881  30.847  1.00  0.00     0.298 A 
ATOM     12  H11 UNL     1      42.411  40.172  30.737  1.00  0.00     0.171 HD
HETATM   13  O12 UNL     1      44.636  40.940  31.516  1.00  0.00    -0.263 OA
BRANCH   9  14
HETATM   14  N5  UNL     1      41.664  38.068  29.373  1.00  0.00    -0.282 N 
HETATM   15  N4  UNL     1      40.990  37.503  28.586  1.00  0.00    -0.277 N 
ATOM     16  H4  UNL     1      39.988  37.529  28.774  1.00  0.00     0.189 HD
ATOM     17  H5  UNL     1      41.027  38.456  30.069  1.00  0.00     0.188 HD
BRANCH  15  18
HETATM   18  C2  UNL     1      41.372  36.780  27.395  1.00  0.00     0.181 A 
HETATM   19  N3  UNL     1      41.370  37.191  26.138  1.00  0.00    -0.277 N 
HETATM   20  N2  UNL     1      41.746  36.418  25.207  1.00  0.00    -0.278 N 
ATOM     21  H3  UNL     1      41.064  38.138  25.916  1.00  0.00     0.189 HD
HETATM   22  C1  UNL     1      42.143  35.181  25.523  1.00  0.00     0.160 A 
ATOM     23  H2  UNL     1      41.746  36.734  24.237  1.00  0.00     0.189 HD
HETATM   24  S2  UNL     1      41.952  35.180  27.225  1.00  0.00    -0.014 SA
BRANCH  22  25
HETATM   25  N1  UNL     1      42.564  34.247  24.698  1.00  0.00    -0.378 N 
ATOM     26  H12 UNL     1      43.506  33.972  24.419  1.00  0.00     0.158 HD
ATOM     27  H11 UNL     1      41.991  33.595  24.162  1.00  0.00     0.158 HD
ENDBRANCH  22  25
ENDBRANCH  15  18
ENDBRANCH   9  14
ENDBRANCH   4   5
ENDBRANCH   3   4
ENDBRANCH   2   3
BRANCH   2  28
HETATM   28  O2  UNL     1      48.661  40.153  32.699  1.00  0.00    -0.390 OA
ATOM     29  H2  UNL     1      49.163  40.214  33.504  1.00  0.00     0.210 HD
ENDBRANCH   2  28
ENDBRANCH   1   2
BRANCH   1  30
HETATM   30  O3  UNL     1      47.432  36.925  32.631  1.00  0.00    -0.383 OA
ATOM     31  H3  UNL     1      47.048  36.359  33.291  1.00  0.00     0.210 HD
ENDBRANCH   1  30
BRANCH   1  32
HETATM   32  C9  UNL     1      47.465  38.620  34.299  1.00  0.00     0.292 C 
HETATM   33  O4  UNL     1      47.917  38.793  35.466  1.00  0.00    -0.262 OA
BRANCH  32  34
HETATM   34  O5  UNL     1      46.218  39.147  34.043  1.00  0.00    -0.285 OA
BRANCH  34  35
HETATM   35  C10 UNL     1      45.565  40.083  34.918  1.00  0.00     0.301 C 
HETATM   36  O6  UNL     1      44.253  39.742  35.118  1.00  0.00    -0.338 OA
HETATM   37  C11 UNL     1      43.798  40.606  36.163  1.00  0.00     0.264 C 
HETATM   38  C16 UNL     1      43.602  41.892  35.446  1.00  0.00     0.050 C 
HETATM   39  N9  UNL     1      42.458  42.419  35.367  1.00  0.00    -0.274 N 
HETATM   40  C17 UNL     1      44.783  42.493  34.830  1.00  0.00     0.095 C 
ATOM     41  H9  UNL     1      41.654  41.963  35.798  1.00  0.00     0.193 HD
HETATM   42  C18 UNL     1      45.854  41.478  34.507  1.00  0.00     0.244 C 
BRANCH  37  43
HETATM   43  C12 UNL     1      42.607  40.073  36.814  1.00  0.00     0.255 C 
HETATM   44  O7  UNL     1      41.851  39.339  36.092  1.00  0.00    -0.270 OA
HETATM   45  N7  UNL     1      42.312  40.350  38.156  1.00  0.00    -0.335 N 
HETATM   46  C13 UNL     1      43.069  41.152  39.080  1.00  0.00     0.142 C 
HETATM   47  C15 UNL     1      41.170  39.845  38.883  1.00  0.00     0.237 C 
HETATM   48  C14 UNL     1      42.784  40.504  40.444  1.00  0.00     0.131 C 
HETATM   49  N8  UNL     1      41.400  40.079  40.297  1.00  0.00    -0.173 NA
BRANCH  49  50
HETATM   50  S1  UNL     1      40.324  41.280  40.916  1.00  0.00     0.186 S 
HETATM   51  O8  UNL     1      39.313  40.630  41.810  1.00  0.00    -0.582 OA
HETATM   52  O9  UNL     1      39.665  41.979  39.778  1.00  0.00    -0.582 OA
HETATM   53  O10 UNL     1      41.212  42.368  41.828  1.00  0.00    -0.582 OA
ENDBRANCH  49  50
ENDBRANCH  37  43
BRANCH  39  54
HETATM   54  O11 UNL     1      42.298  43.608  34.700  1.00  0.00    -0.290 OA
ATOM     55  H11 UNL     1      41.876  44.340  35.133  1.00  0.00     0.244 HD
ENDBRANCH  39  54
BRANCH  42  56
HETATM   56  N10 UNL     1      47.154  41.907  35.060  1.00  0.00    -0.070 N 
ATOM     57 3H10 UNL     1      47.710  41.116  35.387  1.00  0.00     0.274 HD
ATOM     58 2H10 UNL     1      47.787  42.244  34.334  1.00  0.00     0.274 HD
ATOM     59 1H10 UNL     1      47.008  42.601  35.793  1.00  0.00     0.274 HD
ENDBRANCH  42  56
ENDBRANCH  34  35
ENDBRANCH  32  34
ENDBRANCH   1  32
TORSDOF 16
ENDMDL
MODEL 3
REMARK VINA RESULT: -8.365715668      3.791      8.186
REMARK  16 active torsions:
REMARK  status: ('A' for Active; 'I' for Inactive)
REMARK    1  A    between atoms: N1_1  and  C1_4 
REMARK    2  A    between atoms: C2_9  and  N4_10 
REMARK    3  A    between atoms: N5_12  and  C3_14 
REMARK    4  A    between atoms: C5_18  and  O1_19 
REMARK    5  A    between atoms: O1_19  and  C6_20 
REMARK    6  A    between atoms: C6_20  and  C7_21 
REMARK    7  A    between atoms: C7_21  and  O2_22 
REMARK    8  A    between atoms: C7_21  and  C8_24 
REMARK    9  A    between atoms: C8_24  and  O3_25 
REMARK   10  A    between atoms: C8_24  and  C9_27 
REMARK   11  A    between atoms: C9_27  and  O5_29 
REMARK   12  A    between atoms: O5_29  and  C10_30 
REMARK   13  A    between atoms: C11_32  and  C12_33 
REMARK       I    between atoms: C12_33  and  N7_35 
REMARK   14  A    between atoms: N8_38  and  S1_39 
REMARK   15  A    between atoms: N9_45  and  O11_47 
REMARK   16  A    between atoms: C18_50  and  N10_51 
ROOT
HETATM    1  C8  UNL     1      47.449  37.966  33.594  1.00  0.00     0.248 C 
ENDROOT
BRANCH   1   2
HETATM    2  C7  UNL     1      48.530  38.727  34.352  1.00  0.00     0.181 C 
BRANCH   2   3
HETATM    3  C6  UNL     1      47.935  39.899  35.093  1.00  0.00     0.212 C 
BRANCH   3   4
HETATM    4  O1  UNL     1      47.426  40.905  34.272  1.00  0.00    -0.329 OA
BRANCH   4   5
HETATM    5  C5  UNL     1      46.159  41.429  34.272  1.00  0.00     0.212 A 
HETATM    6  N6  UNL     1      45.120  40.976  33.555  1.00  0.00    -0.339 N 
HETATM    7  C4  UNL     1      43.909  41.552  33.619  1.00  0.00     0.140 A 
ATOM      8  H6  UNL     1      45.254  40.172  32.943  1.00  0.00     0.167 HD
HETATM    9  C3  UNL     1      43.659  42.659  34.442  1.00  0.00     0.138 A 
HETATM   10  N11 UNL     1      44.721  43.113  35.169  1.00  0.00    -0.304 N 
HETATM   11  C19 UNL     1      45.929  42.535  35.099  1.00  0.00     0.298 A 
ATOM     12  H11 UNL     1      44.591  43.917  35.783  1.00  0.00     0.171 HD
HETATM   13  O12 UNL     1      46.891  42.989  35.794  1.00  0.00    -0.263 OA
BRANCH   9  14
HETATM   14  N5  UNL     1      42.426  43.214  34.494  1.00  0.00    -0.282 N 
HETATM   15  N4  UNL     1      41.414  43.334  35.090  1.00  0.00    -0.277 N 
ATOM     16  H4  UNL     1      40.720  43.937  34.648  1.00  0.00     0.189 HD
ATOM     17  H5  UNL     1      42.329  43.775  33.648  1.00  0.00     0.188 HD
BRANCH  15  18
HETATM   18  C2  UNL     1      41.011  42.756  36.350  1.00  0.00     0.181 A 
HETATM   19  N3  UNL     1      40.082  43.172  37.195  1.00  0.00    -0.277 N 
HETATM   20  N2  UNL     1      39.852  42.534  38.266  1.00  0.00    -0.278 N 
ATOM     21  H3  UNL     1      39.545  44.013  36.983  1.00  0.00     0.189 HD
HETATM   22  C1  UNL     1      40.568  41.434  38.522  1.00  0.00     0.160 A 
ATOM     23  H2  UNL     1      39.135  42.853  38.918  1.00  0.00     0.189 HD
HETATM   24  S2  UNL     1      41.590  41.358  37.149  1.00  0.00    -0.014 SA
BRANCH  22  25
HETATM   25  N1  UNL     1      40.472  40.650  39.573  1.00  0.00    -0.378 N 
ATOM     26  H12 UNL     1      40.016  39.745  39.696  1.00  0.00     0.158 HD
ATOM     27  H11 UNL     1      40.856  40.816  40.503  1.00  0.00     0.158 HD
ENDBRANCH  22  25
ENDBRANCH  15  18
ENDBRANCH   9  14
ENDBRANCH   4   5
ENDBRANCH   3   4
ENDBRANCH   2   3
BRANCH   2  28
HETATM   28  O2  UNL     1      49.124  37.864  35.265  1.00  0.00    -0.390 OA
ATOM     29  H2  UNL     1      49.827  37.391  34.836  1.00  0.00     0.210 HD
ENDBRANCH   2  28
ENDBRANCH   1   2
BRANCH   1  30
HETATM   30  O3  UNL     1      47.031  38.717  32.497  1.00  0.00    -0.383 OA
ATOM     31  H3  UNL     1      46.629  38.144  31.853  1.00  0.00     0.210 HD
ENDBRANCH   1  30
BRANCH   1  32
HETATM   32  C9  UNL     1      46.306  37.645  34.492  1.00  0.00     0.292 C 
HETATM   33  O4  UNL     1      46.424  36.886  35.495  1.00  0.00    -0.262 OA
BRANCH  32  34
HETATM   34  O5  UNL     1      45.052  38.170  34.268  1.00  0.00    -0.285 OA
BRANCH  34  35
HETATM   35  C10 UNL     1      44.120  37.607  33.328  1.00  0.00     0.301 C 
HETATM   36  O6  UNL     1      44.168  38.267  32.128  1.00  0.00    -0.338 OA
HETATM   37  C11 UNL     1      43.377  37.478  31.236  1.00  0.00     0.264 C 
HETATM   38  C16 UNL     1      41.993  37.831  31.646  1.00  0.00     0.050 C 
HETATM   39  N9  UNL     1      41.206  38.400  30.839  1.00  0.00    -0.274 N 
HETATM   40  C17 UNL     1      41.606  37.508  33.017  1.00  0.00     0.095 C 
ATOM     41  H9  UNL     1      41.517  38.622  29.894  1.00  0.00     0.193 HD
HETATM   42  C18 UNL     1      42.789  37.420  33.953  1.00  0.00     0.244 C 
BRANCH  37  43
HETATM   43  C12 UNL     1      43.701  37.762  29.843  1.00  0.00     0.255 C 
HETATM   44  O7  UNL     1      44.203  38.912  29.604  1.00  0.00    -0.270 OA
HETATM   45  N7  UNL     1      43.476  36.825  28.825  1.00  0.00    -0.335 N 
HETATM   46  C13 UNL     1      42.923  35.502  28.949  1.00  0.00     0.142 C 
HETATM   47  C15 UNL     1      43.788  37.015  27.429  1.00  0.00     0.237 C 
HETATM   48  C14 UNL     1      43.603  34.715  27.818  1.00  0.00     0.131 C 
HETATM   49  N8  UNL     1      43.719  35.721  26.774  1.00  0.00    -0.173 NA
BRANCH  49  50
HETATM   50  S1  UNL     1      42.374  35.637  25.694  1.00  0.00     0.186 S 
HETATM   51  O8  UNL     1      41.730  34.289  25.803  1.00  0.00    -0.582 OA
HETATM   52  O9  UNL     1      42.846  35.897  24.305  1.00  0.00    -0.582 OA
HETATM   53  O10 UNL     1      41.254  36.795  26.151  1.00  0.00    -0.582 OA
ENDBRANCH  49  50
ENDBRANCH  37  43
BRANCH  39  54
HETATM   54  O11 UNL     1      39.932  38.717  31.238  1.00  0.00    -0.290 OA
ATOM     55  H11 UNL     1      39.370  39.225  30.664  1.00  0.00     0.244 HD
ENDBRANCH  39  54
BRANCH  42  56
HETATM   56  N10 UNL     1      42.759  36.149  34.704  1.00  0.00    -0.070 N 
ATOM     57 3H10 UNL     1      43.686  35.730  34.784  1.00  0.00     0.274 HD
ATOM     58 2H10 UNL     1      42.576  36.295  35.696  1.00  0.00     0.274 HD
ATOM     59 1H10 UNL     1      42.086  35.511  34.280  1.00  0.00     0.274 HD
ENDBRANCH  42  56
ENDBRANCH  34  35
ENDBRANCH  32  34
ENDBRANCH   1  32
TORSDOF 16
ENDMDL
MODEL 4
REMARK VINA RESULT: -8.297423380      3.015      3.769
REMARK  16 active torsions:
REMARK  status: ('A' for Active; 'I' for Inactive)
REMARK    1  A    between atoms: N1_1  and  C1_4 
REMARK    2  A    between atoms: C2_9  and  N4_10 
REMARK    3  A    between atoms: N5_12  and  C3_14 
REMARK    4  A    between atoms: C5_18  and  O1_19 
REMARK    5  A    between atoms: O1_19  and  C6_20 
REMARK    6  A    between atoms: C6_20  and  C7_21 
REMARK    7  A    between atoms: C7_21  and  O2_22 
REMARK    8  A    between atoms: C7_21  and  C8_24 
REMARK    9  A    between atoms: C8_24  and  O3_25 
REMARK   10  A    between atoms: C8_24  and  C9_27 
REMARK   11  A    between atoms: C9_27  and  O5_29 
REMARK   12  A    between atoms: O5_29  and  C10_30 
REMARK   13  A    between atoms: C11_32  and  C12_33 
REMARK       I    between atoms: C12_33  and  N7_35 
REMARK   14  A    between atoms: N8_38  and  S1_39 
REMARK   15  A    between atoms: N9_45  and  O11_47 
REMARK   16  A    between atoms: C18_50  and  N10_51 
ROOT
HETATM    1  C8  UNL     1      47.938  37.604  34.483  1.00  0.00     0.248 C 
ENDROOT
BRANCH   1   2
HETATM    2  C7  UNL     1      47.932  37.230  33.006  1.00  0.00     0.181 C 
BRANCH   2   3
HETATM    3  C6  UNL     1      46.614  36.602  32.623  1.00  0.00     0.212 C 
BRANCH   3   4
HETATM    4  O1  UNL     1      45.531  37.480  32.630  1.00  0.00    -0.329 OA
BRANCH   4   5
HETATM    5  C5  UNL     1      44.520  37.575  31.708  1.00  0.00     0.212 A 
HETATM    6  N6  UNL     1      43.448  36.773  31.631  1.00  0.00    -0.339 N 
HETATM    7  C4  UNL     1      42.503  36.941  30.693  1.00  0.00     0.140 A 
ATOM      8  H6  UNL     1      43.348  36.014  32.304  1.00  0.00     0.167 HD
HETATM    9  C3  UNL     1      42.579  37.966  29.740  1.00  0.00     0.138 A 
HETATM   10  N11 UNL     1      43.673  38.778  29.825  1.00  0.00    -0.304 N 
HETATM   11  C19 UNL     1      44.616  38.604  30.764  1.00  0.00     0.298 A 
ATOM     12  H11 UNL     1      43.777  39.539  29.155  1.00  0.00     0.171 HD
HETATM   13  O12 UNL     1      45.618  39.383  30.809  1.00  0.00    -0.263 OA
BRANCH   9  14
HETATM   14  N5  UNL     1      41.608  38.119  28.811  1.00  0.00    -0.282 N 
HETATM   15  N4  UNL     1      41.111  37.720  27.817  1.00  0.00    -0.277 N 
ATOM     16  H4  UNL     1      40.303  38.253  27.492  1.00  0.00     0.189 HD
ATOM     17  H5  UNL     1      41.067  38.936  29.094  1.00  0.00     0.188 HD
BRANCH  15  18
HETATM   18  C2  UNL     1      41.475  36.592  26.992  1.00  0.00     0.181 A 
HETATM   19  N3  UNL     1      41.683  36.552  25.686  1.00  0.00    -0.277 N 
HETATM   20  N2  UNL     1      42.004  35.466  25.118  1.00  0.00    -0.278 N 
ATOM     21  H3  UNL     1      41.584  37.403  25.132  1.00  0.00     0.189 HD
HETATM   22  C1  UNL     1      42.128  34.365  25.866  1.00  0.00     0.160 A 
ATOM     23  H2  UNL     1      42.166  35.434  24.111  1.00  0.00     0.189 HD
HETATM   24  S2  UNL     1      41.760  34.963  27.428  1.00  0.00    -0.014 SA
BRANCH  22  25
HETATM   25  N1  UNL     1      42.451  33.158  25.455  1.00  0.00    -0.378 N 
ATOM     26  H12 UNL     1      41.909  32.450  24.959  1.00  0.00     0.158 HD
ATOM     27  H11 UNL     1      43.350  32.689  25.566  1.00  0.00     0.158 HD
ENDBRANCH  22  25
ENDBRANCH  15  18
ENDBRANCH   9  14
ENDBRANCH   4   5
ENDBRANCH   3   4
ENDBRANCH   2   3
BRANCH   2  28
HETATM   28  O2  UNL     1      48.123  38.383  32.254  1.00  0.00    -0.390 OA
ATOM     29  H2  UNL     1      48.891  38.273  31.705  1.00  0.00     0.210 HD
ENDBRANCH   2  28
ENDBRANCH   1   2
BRANCH   1  30
HETATM   30  O3  UNL     1      46.913  36.927  35.141  1.00  0.00    -0.383 OA
ATOM     31  H3  UNL     1      46.658  37.413  35.917  1.00  0.00     0.210 HD
ENDBRANCH   1  30
BRANCH   1  32
HETATM   32  C9  UNL     1      47.805  39.077  34.652  1.00  0.00     0.292 C 
HETATM   33  O4  UNL     1      48.690  39.779  35.218  1.00  0.00    -0.262 OA
BRANCH  32  34
HETATM   34  O5  UNL     1      46.695  39.751  34.190  1.00  0.00    -0.285 OA
BRANCH  34  35
HETATM   35  C10 UNL     1      45.889  40.603  35.022  1.00  0.00     0.301 C 
HETATM   36  O6  UNL     1      44.619  40.106  35.156  1.00  0.00    -0.338 OA
HETATM   37  C11 UNL     1      44.008  40.910  36.170  1.00  0.00     0.264 C 
HETATM   38  C16 UNL     1      43.697  42.162  35.434  1.00  0.00     0.050 C 
HETATM   39  N9  UNL     1      42.504  42.547  35.291  1.00  0.00    -0.274 N 
HETATM   40  C17 UNL     1      44.827  42.900  34.875  1.00  0.00     0.095 C 
ATOM     41  H9  UNL     1      41.739  41.998  35.683  1.00  0.00     0.193 HD
HETATM   42  C18 UNL     1      46.029  42.021  34.616  1.00  0.00     0.244 C 
BRANCH  37  43
HETATM   43  C12 UNL     1      42.857  40.237  36.762  1.00  0.00     0.255 C 
HETATM   44  O7  UNL     1      42.202  39.458  35.990  1.00  0.00    -0.270 OA
HETATM   45  N7  UNL     1      42.495  40.434  38.101  1.00  0.00    -0.335 N 
HETATM   46  C13 UNL     1      43.139  41.274  39.076  1.00  0.00     0.142 C 
HETATM   47  C15 UNL     1      41.389  39.793  38.771  1.00  0.00     0.237 C 
HETATM   48  C14 UNL     1      42.879  40.552  40.407  1.00  0.00     0.131 C 
HETATM   49  N8  UNL     1      41.551  39.997  40.199  1.00  0.00    -0.173 NA
BRANCH  49  50
HETATM   50  S1  UNL     1      40.340  41.061  40.820  1.00  0.00     0.186 S 
HETATM   51  O8  UNL     1      40.996  42.173  41.582  1.00  0.00    -0.582 OA
HETATM   52  O9  UNL     1      39.410  40.289  41.690  1.00  0.00    -0.582 OA
HETATM   53  O10 UNL     1      39.507  41.728  39.529  1.00  0.00    -0.582 OA
ENDBRANCH  49  50
ENDBRANCH  37  43
BRANCH  39  54
HETATM   54  O11 UNL     1      42.237  43.706  34.608  1.00  0.00    -0.290 OA
ATOM     55  H11 UNL     1      41.341  44.011  34.523  1.00  0.00     0.244 HD
ENDBRANCH  39  54
BRANCH  42  56
HETATM   56  N10 UNL     1      47.237  42.605  35.233  1.00  0.00    -0.070 N 
ATOM     57 3H10 UNL     1      47.008  43.349  35.892  1.00  0.00     0.274 HD
ATOM     58 2H10 UNL     1      47.683  41.960  35.886  1.00  0.00     0.274 HD
ATOM     59 1H10 UNL     1      47.881  42.920  34.507  1.00  0.00     0.274 HD
ENDBRANCH  42  56
ENDBRANCH  34  35
ENDBRANCH  32  34
ENDBRANCH   1  32
TORSDOF 16
ENDMDL
MODEL 5
REMARK VINA RESULT: -8.263086709      1.614      2.415
REMARK  16 active torsions:
REMARK  status: ('A' for Active; 'I' for Inactive)
REMARK    1  A    between atoms: N1_1  and  C1_4 
REMARK    2  A    between atoms: C2_9  and  N4_10 
REMARK    3  A    between atoms: N5_12  and  C3_14 
REMARK    4  A    between atoms: C5_18  and  O1_19 
REMARK    5  A    between atoms: O1_19  and  C6_20 
REMARK    6  A    between atoms: C6_20  and  C7_21 
REMARK    7  A    between atoms: C7_21  and  O2_22 
REMARK    8  A    between atoms: C7_21  and  C8_24 
REMARK    9  A    between atoms: C8_24  and  O3_25 
REMARK   10  A    between atoms: C8_24  and  C9_27 
REMARK   11  A    between atoms: C9_27  and  O5_29 
REMARK   12  A    between atoms: O5_29  and  C10_30 
REMARK   13  A    between atoms: C11_32  and  C12_33 
REMARK       I    between atoms: C12_33  and  N7_35 
REMARK   14  A    between atoms: N8_38  and  S1_39 
REMARK   15  A    between atoms: N9_45  and  O11_47 
REMARK   16  A    between atoms: C18_50  and  N10_51 
ROOT
HETATM    1  C8  UNL     1      47.967  37.288  32.858  1.00  0.00     0.248 C 
ENDROOT
BRANCH   1   2
HETATM    2  C7  UNL     1      47.410  36.654  34.127  1.00  0.00     0.181 C 
BRANCH   2   3
HETATM    3  C6  UNL     1      47.259  35.163  33.953  1.00  0.00     0.212 C 
BRANCH   3   4
HETATM    4  O1  UNL     1      45.942  34.705  34.002  1.00  0.00    -0.329 OA
BRANCH   4   5
HETATM    5  C5  UNL     1      44.825  35.305  33.480  1.00  0.00     0.212 A 
HETATM    6  N6  UNL     1      44.499  35.368  32.181  1.00  0.00    -0.339 N 
HETATM    7  C4  UNL     1      43.379  35.976  31.759  1.00  0.00     0.140 A 
ATOM      8  H6  UNL     1      45.121  34.942  31.494  1.00  0.00     0.167 HD
HETATM    9  C3  UNL     1      42.483  36.579  32.652  1.00  0.00     0.138 A 
HETATM   10  N11 UNL     1      42.821  36.511  33.972  1.00  0.00    -0.304 N 
HETATM   11  C19 UNL     1      43.942  35.903  34.389  1.00  0.00     0.298 A 
ATOM     12  H11 UNL     1      42.202  36.935  34.663  1.00  0.00     0.171 HD
HETATM   13  O12 UNL     1      44.219  35.861  35.627  1.00  0.00    -0.263 OA
BRANCH   9  14
HETATM   14  N5  UNL     1      41.357  37.178  32.200  1.00  0.00    -0.282 N 
HETATM   15  N4  UNL     1      40.835  38.174  31.842  1.00  0.00    -0.277 N 
ATOM     16  H4  UNL     1      39.856  38.079  31.573  1.00  0.00     0.189 HD
ATOM     17  H5  UNL     1      40.648  36.447  32.143  1.00  0.00     0.188 HD
BRANCH  15  18
HETATM   18  C2  UNL     1      41.376  39.509  31.728  1.00  0.00     0.181 A 
HETATM   19  N3  UNL     1      40.748  40.669  31.823  1.00  0.00    -0.277 N 
HETATM   20  N2  UNL     1      41.384  41.758  31.701  1.00  0.00    -0.278 N 
ATOM     21  H3  UNL     1      39.742  40.687  31.996  1.00  0.00     0.189 HD
HETATM   22  C1  UNL     1      42.701  41.707  31.475  1.00  0.00     0.160 A 
ATOM     23  H2  UNL     1      40.902  42.654  31.775  1.00  0.00     0.189 HD
HETATM   24  S2  UNL     1      42.984  40.018  31.445  1.00  0.00    -0.014 SA
BRANCH  22  25
HETATM   25  N1  UNL     1      43.520  42.725  31.322  1.00  0.00    -0.378 N 
ATOM     26  H12 UNL     1      44.383  42.817  30.784  1.00  0.00     0.158 HD
ATOM     27  H11 UNL     1      43.435  43.653  31.736  1.00  0.00     0.158 HD
ENDBRANCH  22  25
ENDBRANCH  15  18
ENDBRANCH   9  14
ENDBRANCH   4   5
ENDBRANCH   3   4
ENDBRANCH   2   3
BRANCH   2  28
HETATM   28  O2  UNL     1      48.291  36.904  35.172  1.00  0.00    -0.390 OA
ATOM     29  H2  UNL     1      49.124  36.487  34.983  1.00  0.00     0.210 HD
ENDBRANCH   2  28
ENDBRANCH   1   2
BRANCH   1  30
HETATM   30  O3  UNL     1      49.225  37.829  33.118  1.00  0.00    -0.383 OA
ATOM     31  H3  UNL     1      49.410  37.770  34.049  1.00  0.00     0.210 HD
ENDBRANCH   1  30
BRANCH   1  32
HETATM   32  C9  UNL     1      47.034  38.325  32.337  1.00  0.00     0.292 C 
HETATM   33  O4  UNL     1      46.017  38.036  31.644  1.00  0.00    -0.262 OA
BRANCH  32  34
HETATM   34  O5  UNL     1      47.240  39.663  32.591  1.00  0.00    -0.285 OA
BRANCH  34  35
HETATM   35  C10 UNL     1      46.890  40.290  33.838  1.00  0.00     0.301 C 
HETATM   36  O6  UNL     1      45.772  41.070  33.704  1.00  0.00    -0.338 OA
HETATM   37  C11 UNL     1      45.413  41.441  35.037  1.00  0.00     0.264 C 
HETATM   38  C16 UNL     1      46.406  42.501  35.348  1.00  0.00     0.050 C 
HETATM   39  N9  UNL     1      46.034  43.682  35.590  1.00  0.00    -0.274 N 
HETATM   40  C17 UNL     1      47.815  42.112  35.338  1.00  0.00     0.095 C 
ATOM     41  H9  UNL     1      45.043  43.920  35.574  1.00  0.00     0.193 HD
HETATM   42  C18 UNL     1      48.082  40.905  34.469  1.00  0.00     0.244 C 
BRANCH  37  43
HETATM   43  C12 UNL     1      44.018  41.857  35.118  1.00  0.00     0.255 C 
HETATM   44  O7  UNL     1      43.593  42.590  34.161  1.00  0.00    -0.270 OA
HETATM   45  N7  UNL     1      43.192  41.472  36.182  1.00  0.00    -0.335 N 
HETATM   46  C13 UNL     1      43.535  40.655  37.316  1.00  0.00     0.142 C 
HETATM   47  C15 UNL     1      41.798  41.819  36.327  1.00  0.00     0.237 C 
HETATM   48  C14 UNL     1      42.217  39.948  37.667  1.00  0.00     0.131 C 
HETATM   49  N8  UNL     1      41.230  40.971  37.359  1.00  0.00    -0.173 NA
BRANCH  49  50
HETATM   50  S1  UNL     1      40.834  41.882  38.771  1.00  0.00     0.186 S 
HETATM   51  O8  UNL     1      39.474  41.484  39.257  1.00  0.00    -0.582 OA
HETATM   52  O9  UNL     1      40.885  43.335  38.446  1.00  0.00    -0.582 OA
HETATM   53  O10 UNL     1      41.948  41.517  39.968  1.00  0.00    -0.582 OA
ENDBRANCH  49  50
ENDBRANCH  37  43
BRANCH  39  54
HETATM   54  O11 UNL     1      46.968  44.647  35.874  1.00  0.00    -0.290 OA
ATOM     55  H11 UNL     1      47.128  44.899  36.777  1.00  0.00     0.244 HD
ENDBRANCH  39  54
BRANCH  42  56
HETATM   56  N10 UNL     1      48.836  39.884  35.223  1.00  0.00    -0.070 N 
ATOM     57 3H10 UNL     1      49.705  39.626  34.755  1.00  0.00     0.274 HD
ATOM     58 2H10 UNL     1      49.236  40.261  36.083  1.00  0.00     0.274 HD
ATOM     59 1H10 UNL     1      48.242  39.074  35.401  1.00  0.00     0.274 HD
ENDBRANCH  42  56
ENDBRANCH  34  35
ENDBRANCH  32  34
ENDBRANCH   1  32
TORSDOF 16
ENDMDL
