MODEL 1
REMARK VINA RESULT: -8.511094961      0.000      0.000
REMARK  18 active torsions:
REMARK  status: ('A' for Active; 'I' for Inactive)
REMARK    1  A    between atoms: C2_2  and  C4_4 
REMARK    2  A    between atoms: C4_4  and  O2_6 
REMARK    3  A    between atoms: O2_6  and  C5_7 
REMARK    4  A    between atoms: C5_7  and  C6_8 
REMARK    5  A    between atoms: N1_10  and  C8_11 
REMARK    6  A    between atoms: N2_13  and  O4_14 
REMARK    7  A    between atoms: C9_16  and  N3_17 
REMARK    8  A    between atoms: C10_18  and  N4_19 
REMARK    9  A    between atoms: N4_19  and  C11_21 
REMARK   10  A    between atoms: C11_21  and  C13_23 
REMARK   11  A    between atoms: C13_23  and  N5_24 
REMARK   12  A    between atoms: C14_26  and  N6_27 
REMARK   13  A    between atoms: N6_27  and  C15_29 
REMARK   14  A    between atoms: C17_35  and  O7_36 
REMARK   15  A    between atoms: C19_39  and  N8_40 
REMARK       I    between atoms: N8_40  and  C20_42 
REMARK   16  A    between atoms: C20_42  and  C21_44 
REMARK   17  A    between atoms: C21_44  and  N9_46 
REMARK   18  A    between atoms: C24_54  and  O10_55 
ROOT
HETATM    1  N3  UNL     1      44.185  38.233  34.099  1.00  0.00    -0.260 N 
HETATM    2  C10 UNL     1      43.733  37.724  32.968  1.00  0.00     0.116 A 
HETATM    3  C18 UNL     1      44.577  37.028  32.071  1.00  0.00     0.097 A 
HETATM    4  C19 UNL     1      45.911  36.870  32.373  1.00  0.00     0.115 A 
HETATM    5  N10 UNL     1      46.354  37.392  33.522  1.00  0.00    -0.294 N 
ATOM      6  H10 UNL     1      47.339  37.288  33.767  1.00  0.00     0.172 HD
HETATM    7  C23 UNL     1      45.548  38.042  34.354  1.00  0.00     0.331 A 
HETATM    8  O9  UNL     1      46.070  38.494  35.412  1.00  0.00    -0.246 OA
ENDROOT
BRANCH   1   9
HETATM    9  C9  UNL     1      43.576  38.934  35.113  1.00  0.00     0.260 C 
HETATM   10  N2  UNL     1      42.660  37.907  35.767  1.00  0.00    -0.042 NA
HETATM   11  O3  UNL     1      41.847  38.734  36.451  1.00  0.00    -0.246 OA
HETATM   12  C8  UNL     1      42.610  39.753  37.004  1.00  0.00     0.302 C 
HETATM   13  C24 UNL     1      43.994  39.633  36.270  1.00  0.00     0.212 C 
BRANCH  10  14
HETATM   14  O4  UNL     1      43.499  37.347  36.701  1.00  0.00    -0.287 OA
ATOM     15  H4  UNL     1      43.967  36.655  36.249  1.00  0.00     0.239 HD
ENDBRANCH  10  14
BRANCH  12  16
HETATM   16  N1  UNL     1      42.757  39.711  38.417  1.00  0.00    -0.253 N 
HETATM   17  C7  UNL     1      42.235  40.580  39.267  1.00  0.00     0.143 A 
HETATM   18  C6  UNL     1      42.618  40.185  40.533  1.00  0.00     0.068 A 
HETATM   19  N12 UNL     1      43.362  39.076  40.349  1.00  0.00    -0.287 N 
HETATM   20  N11 UNL     1      43.442  38.799  39.080  1.00  0.00    -0.238 N 
ATOM     21  H12 UNL     1      43.799  38.534  41.094  1.00  0.00     0.188 HD
ATOM     22  H11 UNL     1      43.945  38.013  38.670  1.00  0.00     0.208 HD
BRANCH  18  23
HETATM   23  C5  UNL     1      42.264  40.861  41.783  1.00  0.00     0.239 C 
BRANCH  23  24
HETATM   24  O2  UNL     1      42.729  42.197  41.846  1.00  0.00    -0.312 OA
BRANCH  24  25
HETATM   25  C4  UNL     1      44.062  42.466  41.593  1.00  0.00     0.288 C 
HETATM   26  O1  UNL     1      44.341  43.099  40.535  1.00  0.00    -0.260 OA
BRANCH  25  27
HETATM   27  C2  UNL     1      45.129  42.041  42.508  1.00  0.00     0.004 C 
HETATM   28  C1  UNL     1      44.998  42.209  43.799  1.00  0.00     0.024 C 
HETATM   29  C3  UNL     1      46.351  41.421  41.942  1.00  0.00     0.054 C 
ENDBRANCH  25  27
ENDBRANCH  24  25
ENDBRANCH  23  24
ENDBRANCH  18  23
ENDBRANCH  12  16
BRANCH  13  30
HETATM   30  O10 UNL     1      44.325  41.012  36.123  1.00  0.00    -0.387 OA
ATOM     31  H10 UNL     1      45.081  41.068  36.696  1.00  0.00     0.210 HD
ENDBRANCH  13  30
ENDBRANCH   1   9
BRANCH   2  32
HETATM   32  N4  UNL     1      42.371  37.881  32.650  1.00  0.00    -0.348 N 
ATOM     33  H4  UNL     1      41.693  37.603  33.361  1.00  0.00     0.167 HD
BRANCH  32  34
HETATM   34  C11 UNL     1      41.845  38.401  31.408  1.00  0.00     0.003 C 
HETATM   35  C12 UNL     1      40.437  38.072  31.089  1.00  0.00     0.065 C 
BRANCH  34  36
HETATM   36  C13 UNL     1      42.410  39.678  30.934  1.00  0.00     0.193 C 
BRANCH  36  37
HETATM   37  N5  UNL     1      42.816  40.683  31.849  1.00  0.00    -0.276 N 
HETATM   38  S1  UNL     1      41.652  41.461  32.823  1.00  0.00     0.015 SA
HETATM   39  C14 UNL     1      42.304  42.635  33.866  1.00  0.00     0.161 A 
HETATM   40  C16 UNL     1      43.671  42.760  33.748  1.00  0.00     0.283 A 
HETATM   41  O6  UNL     1      44.202  43.638  34.519  1.00  0.00    -0.265 OA
HETATM   42  N7  UNL     1      44.428  42.049  32.912  1.00  0.00    -0.286 N 
HETATM   43  C17 UNL     1      44.062  41.106  32.046  1.00  0.00     0.233 A 
ATOM     44  H7  UNL     1      45.426  42.256  32.939  1.00  0.00     0.172 HD
BRANCH  39  45
HETATM   45  N6  UNL     1      41.649  43.365  34.700  1.00  0.00    -0.323 N 
ATOM     46  H6  UNL     1      41.606  44.379  34.601  1.00  0.00     0.169 HD
BRANCH  45  47
HETATM   47  C15 UNL     1      40.989  42.696  35.765  1.00  0.00     0.353 C 
HETATM   48  O5  UNL     1      40.468  43.276  36.735  1.00  0.00    -0.283 OA
ENDBRANCH  45  47
ENDBRANCH  39  45
BRANCH  43  49
HETATM   49  O7  UNL     1      45.019  40.566  31.349  1.00  0.00    -0.332 OA
ATOM     50  H7  UNL     1      45.570  39.913  31.763  1.00  0.00     0.221 HD
ENDBRANCH  43  49
ENDBRANCH  36  37
ENDBRANCH  34  36
ENDBRANCH  32  34
ENDBRANCH   2  32
BRANCH   4  51
HETATM   51  N8  UNL     1      46.658  36.240  31.552  1.00  0.00    -0.311 N 
HETATM   52  C20 UNL     1      47.996  36.639  31.333  1.00  0.00     0.253 C 
HETATM   53  O8  UNL     1      48.844  36.417  32.263  1.00  0.00    -0.271 OA
ATOM     54  H8  UNL     1      46.283  35.438  31.046  1.00  0.00     0.170 HD
BRANCH  52  55
HETATM   55  C21 UNL     1      48.484  37.291  30.115  1.00  0.00     0.271 C 
HETATM   56  C22 UNL     1      47.653  36.928  28.883  1.00  0.00     0.050 C 
BRANCH  55  57
HETATM   57  N9  UNL     1      48.485  38.740  30.229  1.00  0.00    -0.067 N 
ATOM     58  H93 UNL     1      47.551  39.123  30.082  1.00  0.00     0.275 HD
ATOM     59  H92 UNL     1      48.630  39.034  31.195  1.00  0.00     0.275 HD
ATOM     60  H91 UNL     1      49.164  39.176  29.605  1.00  0.00     0.275 HD
ENDBRANCH  55  57
ENDBRANCH  52  55
ENDBRANCH   4  51
TORSDOF 18
ENDMDL
MODEL 2
REMARK VINA RESULT: -8.473504175      3.750     10.001
REMARK  18 active torsions:
REMARK  status: ('A' for Active; 'I' for Inactive)
REMARK    1  A    between atoms: C2_2  and  C4_4 
REMARK    2  A    between atoms: C4_4  and  O2_6 
REMARK    3  A    between atoms: O2_6  and  C5_7 
REMARK    4  A    between atoms: C5_7  and  C6_8 
REMARK    5  A    between atoms: N1_10  and  C8_11 
REMARK    6  A    between atoms: N2_13  and  O4_14 
REMARK    7  A    between atoms: C9_16  and  N3_17 
REMARK    8  A    between atoms: C10_18  and  N4_19 
REMARK    9  A    between atoms: N4_19  and  C11_21 
REMARK   10  A    between atoms: C11_21  and  C13_23 
REMARK   11  A    between atoms: C13_23  and  N5_24 
REMARK   12  A    between atoms: C14_26  and  N6_27 
REMARK   13  A    between atoms: N6_27  and  C15_29 
REMARK   14  A    between atoms: C17_35  and  O7_36 
REMARK   15  A    between atoms: C19_39  and  N8_40 
REMARK       I    between atoms: N8_40  and  C20_42 
REMARK   16  A    between atoms: C20_42  and  C21_44 
REMARK   17  A    between atoms: C21_44  and  N9_46 
REMARK   18  A    between atoms: C24_54  and  O10_55 
ROOT
HETATM    1  N3  UNL     1      42.535  38.889  34.381  1.00  0.00    -0.260 N 
HETATM    2  C10 UNL     1      42.467  40.200  34.518  1.00  0.00     0.116 A 
HETATM    3  C18 UNL     1      42.371  40.816  35.787  1.00  0.00     0.097 A 
HETATM    4  C19 UNL     1      42.345  40.037  36.923  1.00  0.00     0.115 A 
HETATM    5  N10 UNL     1      42.413  38.710  36.768  1.00  0.00    -0.294 N 
ATOM      6  H10 UNL     1      42.395  38.114  37.595  1.00  0.00     0.172 HD
HETATM    7  C23 UNL     1      42.504  38.148  35.568  1.00  0.00     0.331 A 
HETATM    8  O9  UNL     1      42.563  36.886  35.537  1.00  0.00    -0.246 OA
ENDROOT
BRANCH   1   9
HETATM    9  C9  UNL     1      42.632  38.071  33.280  1.00  0.00     0.260 C 
HETATM   10  N2  UNL     1      41.195  37.953  32.786  1.00  0.00    -0.042 NA
HETATM   11  O3  UNL     1      41.318  36.872  31.994  1.00  0.00    -0.246 OA
HETATM   12  C8  UNL     1      42.513  36.963  31.295  1.00  0.00     0.302 C 
HETATM   13  C24 UNL     1      43.297  38.109  32.031  1.00  0.00     0.212 C 
BRANCH  10  14
HETATM   14  O4  UNL     1      41.108  39.032  31.938  1.00  0.00    -0.287 OA
ATOM     15  H4  UNL     1      41.979  39.152  31.581  1.00  0.00     0.239 HD
ENDBRANCH  10  14
BRANCH  12  16
HETATM   16  N1  UNL     1      42.392  37.219  29.902  1.00  0.00    -0.253 N 
HETATM   17  C7  UNL     1      43.273  36.866  28.980  1.00  0.00     0.143 A 
HETATM   18  C6  UNL     1      42.782  37.303  27.766  1.00  0.00     0.068 A 
HETATM   19  N12 UNL     1      41.609  37.903  28.053  1.00  0.00    -0.287 N 
HETATM   20  N11 UNL     1      41.383  37.849  29.333  1.00  0.00    -0.238 N 
ATOM     21  H12 UNL     1      40.990  38.336  27.367  1.00  0.00     0.188 HD
ATOM     22  H11 UNL     1      40.566  38.228  29.812  1.00  0.00     0.208 HD
BRANCH  18  23
HETATM   23  C5  UNL     1      43.435  37.129  26.467  1.00  0.00     0.239 C 
BRANCH  23  24
HETATM   24  O2  UNL     1      43.244  38.227  25.594  1.00  0.00    -0.312 OA
BRANCH  24  25
HETATM   25  C4  UNL     1      42.953  37.993  24.262  1.00  0.00     0.288 C 
HETATM   26  O1  UNL     1      42.383  36.902  23.970  1.00  0.00    -0.260 OA
BRANCH  25  27
HETATM   27  C2  UNL     1      43.283  38.964  23.211  1.00  0.00     0.004 C 
HETATM   28  C1  UNL     1      44.452  39.553  23.200  1.00  0.00     0.024 C 
HETATM   29  C3  UNL     1      42.272  39.263  22.169  1.00  0.00     0.054 C 
ENDBRANCH  25  27
ENDBRANCH  24  25
ENDBRANCH  23  24
ENDBRANCH  18  23
ENDBRANCH  12  16
BRANCH  13  30
HETATM   30  O10 UNL     1      44.623  37.586  31.976  1.00  0.00    -0.387 OA
ATOM     31  H10 UNL     1      45.032  38.089  32.671  1.00  0.00     0.210 HD
ENDBRANCH  13  30
ENDBRANCH   1   9
BRANCH   2  32
HETATM   32  N4  UNL     1      42.493  41.004  33.362  1.00  0.00    -0.348 N 
ATOM     33  H4  UNL     1      41.662  40.993  32.771  1.00  0.00     0.167 HD
BRANCH  32  34
HETATM   34  C11 UNL     1      43.591  41.844  32.939  1.00  0.00     0.003 C 
HETATM   35  C12 UNL     1      43.387  42.640  31.708  1.00  0.00     0.065 C 
BRANCH  34  36
HETATM   36  C13 UNL     1      44.465  42.376  34.002  1.00  0.00     0.193 C 
BRANCH  36  37
HETATM   37  N5  UNL     1      45.701  41.753  34.312  1.00  0.00    -0.276 N 
HETATM   38  S1  UNL     1      46.089  40.245  33.616  1.00  0.00     0.015 SA
HETATM   39  C14 UNL     1      47.606  39.641  34.089  1.00  0.00     0.161 A 
HETATM   40  C16 UNL     1      48.271  40.476  34.959  1.00  0.00     0.283 A 
HETATM   41  O6  UNL     1      49.422  40.054  35.341  1.00  0.00    -0.265 OA
HETATM   42  N7  UNL     1      47.798  41.642  35.401  1.00  0.00    -0.286 N 
HETATM   43  C17 UNL     1      46.641  42.237  35.122  1.00  0.00     0.233 A 
ATOM     44  H7  UNL     1      48.408  42.148  36.043  1.00  0.00     0.172 HD
BRANCH  39  45
HETATM   45  N6  UNL     1      48.137  38.529  33.713  1.00  0.00    -0.323 N 
ATOM     46  H6  UNL     1      48.923  38.507  33.063  1.00  0.00     0.169 HD
BRANCH  45  47
HETATM   47  C15 UNL     1      47.580  37.335  34.245  1.00  0.00     0.353 C 
HETATM   48  O5  UNL     1      47.511  37.081  35.461  1.00  0.00    -0.283 OA
ENDBRANCH  45  47
ENDBRANCH  39  45
BRANCH  43  49
HETATM   49  O7  UNL     1      46.434  43.386  35.696  1.00  0.00    -0.332 OA
ATOM     50  H7  UNL     1      47.159  43.996  35.767  1.00  0.00     0.221 HD
ENDBRANCH  43  49
ENDBRANCH  36  37
ENDBRANCH  34  36
ENDBRANCH  32  34
ENDBRANCH   2  32
BRANCH   4  51
HETATM   51  N8  UNL     1      42.257  40.610  38.060  1.00  0.00    -0.311 N 
HETATM   52  C20 UNL     1      41.192  40.315  38.942  1.00  0.00     0.253 C 
HETATM   53  O8  UNL     1      41.197  39.177  39.523  1.00  0.00    -0.271 OA
ATOM     54  H8  UNL     1      42.965  41.290  38.336  1.00  0.00     0.170 HD
BRANCH  52  55
HETATM   55  C21 UNL     1      40.079  41.221  39.238  1.00  0.00     0.271 C 
HETATM   56  C22 UNL     1      40.089  41.707  40.689  1.00  0.00     0.050 C 
BRANCH  55  57
HETATM   57  N9  UNL     1      40.086  42.397  38.384  1.00  0.00    -0.067 N 
ATOM     58  H93 UNL     1      41.038  42.700  38.180  1.00  0.00     0.275 HD
ATOM     59  H92 UNL     1      39.782  42.168  37.438  1.00  0.00     0.275 HD
ATOM     60  H91 UNL     1      39.532  43.160  38.774  1.00  0.00     0.275 HD
ENDBRANCH  55  57
ENDBRANCH  52  55
ENDBRANCH   4  51
TORSDOF 18
ENDMDL
MODEL 3
REMARK VINA RESULT: -8.355117337      2.989      5.479
REMARK  18 active torsions:
REMARK  status: ('A' for Active; 'I' for Inactive)
REMARK    1  A    between atoms: C2_2  and  C4_4 
REMARK    2  A    between atoms: C4_4  and  O2_6 
REMARK    3  A    between atoms: O2_6  and  C5_7 
REMARK    4  A    between atoms: C5_7  and  C6_8 
REMARK    5  A    between atoms: N1_10  and  C8_11 
REMARK    6  A    between atoms: N2_13  and  O4_14 
REMARK    7  A    between atoms: C9_16  and  N3_17 
REMARK    8  A    between atoms: C10_18  and  N4_19 
REMARK    9  A    between atoms: N4_19  and  C11_21 
REMARK   10  A    between atoms: C11_21  and  C13_23 
REMARK   11  A    between atoms: C13_23  and  N5_24 
REMARK   12  A    between atoms: C14_26  and  N6_27 
REMARK   13  A    between atoms: N6_27  and  C15_29 
REMARK   14  A    between atoms: C17_35  and  O7_36 
REMARK   15  A    between atoms: C19_39  and  N8_40 
REMARK       I    between atoms: N8_40  and  C20_42 
REMARK   16  A    between atoms: C20_42  and  C21_44 
REMARK   17  A    between atoms: C21_44  and  N9_46 
REMARK   18  A    between atoms: C24_54  and  O10_55 
ROOT
HETATM    1  N3  UNL     1      43.427  38.997  31.557  1.00  0.00    -0.260 N 
HETATM    2  C10 UNL     1      44.386  38.917  30.653  1.00  0.00     0.116 A 
HETATM    3  C18 UNL     1      44.149  38.410  29.354  1.00  0.00     0.097 A 
HETATM    4  C19 UNL     1      42.886  37.984  29.008  1.00  0.00     0.115 A 
HETATM    5  N10 UNL     1      41.925  38.071  29.935  1.00  0.00    -0.294 N 
ATOM      6  H10 UNL     1      40.982  37.760  29.701  1.00  0.00     0.172 HD
HETATM    7  C23 UNL     1      42.165  38.550  31.150  1.00  0.00     0.331 A 
HETATM    8  O9  UNL     1      41.185  38.587  31.948  1.00  0.00    -0.246 OA
ENDROOT
BRANCH   1   9
HETATM    9  C9  UNL     1      43.409  39.443  32.858  1.00  0.00     0.260 C 
HETATM   10  N2  UNL     1      43.787  40.915  32.743  1.00  0.00    -0.042 NA
HETATM   11  O3  UNL     1      44.123  41.160  34.023  1.00  0.00    -0.246 OA
HETATM   12  C8  UNL     1      43.217  40.518  34.854  1.00  0.00     0.302 C 
HETATM   13  C24 UNL     1      42.451  39.536  33.896  1.00  0.00     0.212 C 
BRANCH  10  14
HETATM   14  O4  UNL     1      42.556  41.499  32.559  1.00  0.00    -0.287 OA
ATOM     15  H4  UNL     1      42.086  41.377  33.375  1.00  0.00     0.239 HD
ENDBRANCH  10  14
BRANCH  12  16
HETATM   16  N1  UNL     1      42.322  41.368  35.560  1.00  0.00    -0.253 N 
HETATM   17  C7  UNL     1      41.915  41.185  36.806  1.00  0.00     0.143 A 
HETATM   18  C6  UNL     1      41.057  42.224  37.106  1.00  0.00     0.068 A 
HETATM   19  N12 UNL     1      41.009  42.978  35.990  1.00  0.00    -0.287 N 
HETATM   20  N11 UNL     1      41.768  42.460  35.069  1.00  0.00    -0.238 N 
ATOM     21  H12 UNL     1      40.459  43.830  35.883  1.00  0.00     0.188 HD
ATOM     22  H11 UNL     1      41.910  42.833  34.131  1.00  0.00     0.208 HD
BRANCH  18  23
HETATM   23  C5  UNL     1      40.368  42.421  38.383  1.00  0.00     0.239 C 
BRANCH  23  24
HETATM   24  O2  UNL     1      40.984  43.394  39.206  1.00  0.00    -0.312 OA
BRANCH  24  25
HETATM   25  C4  UNL     1      42.088  43.044  39.962  1.00  0.00     0.288 C 
HETATM   26  O1  UNL     1      43.203  43.545  39.637  1.00  0.00    -0.260 OA
BRANCH  25  27
HETATM   27  C2  UNL     1      41.990  42.126  41.104  1.00  0.00     0.004 C 
HETATM   28  C1  UNL     1      41.271  42.447  42.150  1.00  0.00     0.024 C 
HETATM   29  C3  UNL     1      42.720  40.837  41.051  1.00  0.00     0.054 C 
ENDBRANCH  25  27
ENDBRANCH  24  25
ENDBRANCH  23  24
ENDBRANCH  18  23
ENDBRANCH  12  16
BRANCH  13  30
HETATM   30  O10 UNL     1      42.300  38.407  34.755  1.00  0.00    -0.387 OA
ATOM     31  H10 UNL     1      41.401  38.528  35.037  1.00  0.00     0.210 HD
ENDBRANCH  13  30
ENDBRANCH   1   9
BRANCH   2  32
HETATM   32  N4  UNL     1      45.680  39.350  30.998  1.00  0.00    -0.348 N 
ATOM     33  H4  UNL     1      45.809  40.350  31.154  1.00  0.00     0.167 HD
BRANCH  32  34
HETATM   34  C11 UNL     1      46.844  38.505  31.150  1.00  0.00     0.003 C 
HETATM   35  C12 UNL     1      47.792  38.464  30.014  1.00  0.00     0.065 C 
BRANCH  34  36
HETATM   36  C13 UNL     1      47.357  38.326  32.521  1.00  0.00     0.193 C 
BRANCH  36  37
HETATM   37  N5  UNL     1      46.514  37.858  33.562  1.00  0.00    -0.276 N 
HETATM   38  S1  UNL     1      45.705  36.367  33.390  1.00  0.00     0.015 SA
HETATM   39  C14 UNL     1      44.740  35.952  34.728  1.00  0.00     0.161 A 
HETATM   40  C16 UNL     1      44.776  36.895  35.731  1.00  0.00     0.283 A 
HETATM   41  O6  UNL     1      44.059  36.618  36.759  1.00  0.00    -0.265 OA
HETATM   42  N7  UNL     1      45.483  38.024  35.684  1.00  0.00    -0.286 N 
HETATM   43  C17 UNL     1      46.275  38.478  34.715  1.00  0.00     0.233 A 
ATOM     44  H7  UNL     1      45.407  38.624  36.506  1.00  0.00     0.172 HD
BRANCH  39  45
HETATM   45  N6  UNL     1      44.027  34.887  34.855  1.00  0.00    -0.323 N 
ATOM     46  H6  UNL     1      44.211  34.207  35.592  1.00  0.00     0.169 HD
BRANCH  45  47
HETATM   47  C15 UNL     1      42.971  34.702  33.923  1.00  0.00     0.353 C 
HETATM   48  O5  UNL     1      42.393  35.632  33.333  1.00  0.00    -0.283 OA
ENDBRANCH  45  47
ENDBRANCH  39  45
BRANCH  43  49
HETATM   49  O7  UNL     1      46.853  39.623  34.937  1.00  0.00    -0.332 OA
ATOM     50  H7  UNL     1      47.517  39.673  35.614  1.00  0.00     0.221 HD
ENDBRANCH  43  49
ENDBRANCH  36  37
ENDBRANCH  34  36
ENDBRANCH  32  34
ENDBRANCH   2  32
BRANCH   4  51
HETATM   51  N8  UNL     1      42.690  37.529  27.832  1.00  0.00    -0.311 N 
HETATM   52  C20 UNL     1      41.661  36.595  27.575  1.00  0.00     0.253 C 
HETATM   53  O8  UNL     1      40.454  37.014  27.606  1.00  0.00    -0.271 OA
ATOM     54  H8  UNL     1      43.285  37.845  27.066  1.00  0.00     0.170 HD
BRANCH  52  55
HETATM   55  C21 UNL     1      41.878  35.176  27.276  1.00  0.00     0.271 C 
HETATM   56  C22 UNL     1      42.245  34.364  28.520  1.00  0.00     0.050 C 
BRANCH  55  57
HETATM   57  N9  UNL     1      40.706  34.556  26.680  1.00  0.00    -0.067 N 
ATOM     58  H93 UNL     1      40.395  35.071  25.856  1.00  0.00     0.275 HD
ATOM     59  H92 UNL     1      40.944  33.669  26.236  1.00  0.00     0.275 HD
ATOM     60  H91 UNL     1      39.947  34.440  27.351  1.00  0.00     0.275 HD
ENDBRANCH  55  57
ENDBRANCH  52  55
ENDBRANCH   4  51
TORSDOF 18
ENDMDL
MODEL 4
REMARK VINA RESULT: -8.333753944      2.522      8.575
REMARK  18 active torsions:
REMARK  status: ('A' for Active; 'I' for Inactive)
REMARK    1  A    between atoms: C2_2  and  C4_4 
REMARK    2  A    between atoms: C4_4  and  O2_6 
REMARK    3  A    between atoms: O2_6  and  C5_7 
REMARK    4  A    between atoms: C5_7  and  C6_8 
REMARK    5  A    between atoms: N1_10  and  C8_11 
REMARK    6  A    between atoms: N2_13  and  O4_14 
REMARK    7  A    between atoms: C9_16  and  N3_17 
REMARK    8  A    between atoms: C10_18  and  N4_19 
REMARK    9  A    between atoms: N4_19  and  C11_21 
REMARK   10  A    between atoms: C11_21  and  C13_23 
REMARK   11  A    between atoms: C13_23  and  N5_24 
REMARK   12  A    between atoms: C14_26  and  N6_27 
REMARK   13  A    between atoms: N6_27  and  C15_29 
REMARK   14  A    between atoms: C17_35  and  O7_36 
REMARK   15  A    between atoms: C19_39  and  N8_40 
REMARK       I    between atoms: N8_40  and  C20_42 
REMARK   16  A    between atoms: C20_42  and  C21_44 
REMARK   17  A    between atoms: C21_44  and  N9_46 
REMARK   18  A    between atoms: C24_54  and  O10_55 
ROOT
HETATM    1  N3  UNL     1      41.916  41.423  35.658  1.00  0.00    -0.260 N 
HETATM    2  C10 UNL     1      41.954  40.530  36.629  1.00  0.00     0.116 A 
HETATM    3  C18 UNL     1      41.372  40.775  37.895  1.00  0.00     0.097 A 
HETATM    4  C19 UNL     1      40.744  41.977  38.135  1.00  0.00     0.115 A 
HETATM    5  N10 UNL     1      40.715  42.873  37.142  1.00  0.00    -0.294 N 
ATOM      6  H10 UNL     1      40.257  43.770  37.297  1.00  0.00     0.172 HD
HETATM    7  C23 UNL     1      41.267  42.626  35.959  1.00  0.00     0.331 A 
HETATM    8  O9  UNL     1      41.181  43.541  35.092  1.00  0.00    -0.246 OA
ENDROOT
BRANCH   1   9
HETATM    9  C9  UNL     1      42.399  41.419  34.370  1.00  0.00     0.260 C 
HETATM   10  N2  UNL     1      43.880  41.741  34.535  1.00  0.00    -0.042 NA
HETATM   11  O3  UNL     1      44.173  42.097  33.271  1.00  0.00    -0.246 OA
HETATM   12  C8  UNL     1      43.524  41.235  32.400  1.00  0.00     0.302 C 
HETATM   13  C24 UNL     1      42.487  40.483  33.312  1.00  0.00     0.212 C 
BRANCH  10  14
HETATM   14  O4  UNL     1      44.414  40.486  34.706  1.00  0.00    -0.287 OA
ATOM     15  H4  UNL     1      45.346  40.616  34.836  1.00  0.00     0.239 HD
ENDBRANCH  10  14
BRANCH  12  16
HETATM   16  N1  UNL     1      44.360  40.327  31.697  1.00  0.00    -0.253 N 
HETATM   17  C7  UNL     1      45.623  40.063  31.992  1.00  0.00     0.143 A 
HETATM   18  C6  UNL     1      46.068  39.138  31.069  1.00  0.00     0.068 A 
HETATM   19  N12 UNL     1      45.012  38.904  30.264  1.00  0.00    -0.287 N 
HETATM   20  N11 UNL     1      43.994  39.619  30.645  1.00  0.00    -0.238 N 
ATOM     21  H12 UNL     1      45.011  38.261  29.472  1.00  0.00     0.188 HD
ATOM     22  H11 UNL     1      43.073  39.630  30.207  1.00  0.00     0.208 HD
BRANCH  18  23
HETATM   23  C5  UNL     1      47.413  38.563  31.016  1.00  0.00     0.239 C 
BRANCH  23  24
HETATM   24  O2  UNL     1      47.842  38.030  32.255  1.00  0.00    -0.312 OA
BRANCH  24  25
HETATM   25  C4  UNL     1      49.003  38.507  32.835  1.00  0.00     0.288 C 
HETATM   26  O1  UNL     1      49.848  37.658  33.240  1.00  0.00    -0.260 OA
BRANCH  25  27
HETATM   27  C2  UNL     1      49.264  39.945  32.985  1.00  0.00     0.004 C 
HETATM   28  C1  UNL     1      48.697  40.623  33.950  1.00  0.00     0.024 C 
HETATM   29  C3  UNL     1      50.178  40.609  32.025  1.00  0.00     0.054 C 
ENDBRANCH  25  27
ENDBRANCH  24  25
ENDBRANCH  23  24
ENDBRANCH  18  23
ENDBRANCH  12  16
BRANCH  13  30
HETATM   30  O10 UNL     1      41.379  40.394  32.419  1.00  0.00    -0.387 OA
ATOM     31  H10 UNL     1      41.526  41.168  31.889  1.00  0.00     0.210 HD
ENDBRANCH  13  30
ENDBRANCH   1   9
BRANCH   2  32
HETATM   32  N4  UNL     1      42.593  39.298  36.393  1.00  0.00    -0.348 N 
ATOM     33  H4  UNL     1      42.660  38.988  35.423  1.00  0.00     0.167 HD
BRANCH  32  34
HETATM   34  C11 UNL     1      43.164  38.432  37.401  1.00  0.00     0.003 C 
HETATM   35  C12 UNL     1      42.276  38.026  38.513  1.00  0.00     0.065 C 
BRANCH  34  36
HETATM   36  C13 UNL     1      44.227  37.512  36.957  1.00  0.00     0.193 C 
BRANCH  36  37
HETATM   37  N5  UNL     1      44.345  37.132  35.595  1.00  0.00    -0.276 N 
HETATM   38  S1  UNL     1      42.946  36.741  34.701  1.00  0.00     0.015 SA
HETATM   39  C14 UNL     1      43.261  36.312  33.086  1.00  0.00     0.161 A 
HETATM   40  C16 UNL     1      44.602  36.354  32.770  1.00  0.00     0.283 A 
HETATM   41  O6  UNL     1      44.881  36.035  31.558  1.00  0.00    -0.265 OA
HETATM   42  N7  UNL     1      45.571  36.691  33.621  1.00  0.00    -0.286 N 
HETATM   43  C17 UNL     1      45.477  37.046  34.900  1.00  0.00     0.233 A 
ATOM     44  H7  UNL     1      46.516  36.674  33.238  1.00  0.00     0.172 HD
BRANCH  39  45
HETATM   45  N6  UNL     1      42.389  35.973  32.201  1.00  0.00    -0.323 N 
ATOM     46  H6  UNL     1      42.308  35.010  31.874  1.00  0.00     0.169 HD
BRANCH  45  47
HETATM   47  C15 UNL     1      41.546  37.000  31.699  1.00  0.00     0.353 C 
HETATM   48  O5  UNL     1      41.876  37.794  30.800  1.00  0.00    -0.283 OA
ENDBRANCH  45  47
ENDBRANCH  39  45
BRANCH  43  49
HETATM   49  O7  UNL     1      46.597  37.330  35.500  1.00  0.00    -0.332 OA
ATOM     50  H7  UNL     1      47.389  37.385  34.979  1.00  0.00     0.221 HD
ENDBRANCH  43  49
ENDBRANCH  36  37
ENDBRANCH  34  36
ENDBRANCH  32  34
ENDBRANCH   2  32
BRANCH   4  51
HETATM   51  N8  UNL     1      40.225  42.182  39.283  1.00  0.00    -0.311 N 
HETATM   52  C20 UNL     1      40.964  42.804  40.315  1.00  0.00     0.253 C 
HETATM   53  O8  UNL     1      41.202  44.055  40.207  1.00  0.00    -0.271 OA
ATOM     54  H8  UNL     1      39.263  41.893  39.458  1.00  0.00     0.170 HD
BRANCH  52  55
HETATM   55  C21 UNL     1      41.480  42.117  41.502  1.00  0.00     0.271 C 
HETATM   56  C22 UNL     1      42.849  41.479  41.263  1.00  0.00     0.050 C 
BRANCH  55  57
HETATM   57  N9  UNL     1      41.607  43.011  42.642  1.00  0.00    -0.067 N 
ATOM     58  H93 UNL     1      41.375  43.971  42.386  1.00  0.00     0.275 HD
ATOM     59  H92 UNL     1      40.871  42.843  43.327  1.00  0.00     0.275 HD
ATOM     60  H91 UNL     1      42.531  42.957  43.072  1.00  0.00     0.275 HD
ENDBRANCH  55  57
ENDBRANCH  52  55
ENDBRANCH   4  51
TORSDOF 18
ENDMDL
MODEL 5
REMARK VINA RESULT: -8.261482776      1.910      2.281
REMARK  18 active torsions:
REMARK  status: ('A' for Active; 'I' for Inactive)
REMARK    1  A    between atoms: C2_2  and  C4_4 
REMARK    2  A    between atoms: C4_4  and  O2_6 
REMARK    3  A    between atoms: O2_6  and  C5_7 
REMARK    4  A    between atoms: C5_7  and  C6_8 
REMARK    5  A    between atoms: N1_10  and  C8_11 
REMARK    6  A    between atoms: N2_13  and  O4_14 
REMARK    7  A    between atoms: C9_16  and  N3_17 
REMARK    8  A    between atoms: C10_18  and  N4_19 
REMARK    9  A    between atoms: N4_19  and  C11_21 
REMARK   10  A    between atoms: C11_21  and  C13_23 
REMARK   11  A    between atoms: C13_23  and  N5_24 
REMARK   12  A    between atoms: C14_26  and  N6_27 
REMARK   13  A    between atoms: N6_27  and  C15_29 
REMARK   14  A    between atoms: C17_35  and  O7_36 
REMARK   15  A    between atoms: C19_39  and  N8_40 
REMARK       I    between atoms: N8_40  and  C20_42 
REMARK   16  A    between atoms: C20_42  and  C21_44 
REMARK   17  A    between atoms: C21_44  and  N9_46 
REMARK   18  A    between atoms: C24_54  and  O10_55 
ROOT
HETATM    1  N3  UNL     1      44.944  38.418  33.766  1.00  0.00    -0.260 N 
HETATM    2  C10 UNL     1      44.852  38.054  32.501  1.00  0.00     0.116 A 
HETATM    3  C18 UNL     1      45.997  37.834  31.700  1.00  0.00     0.097 A 
HETATM    4  C19 UNL     1      47.251  38.003  32.244  1.00  0.00     0.115 A 
HETATM    5  N10 UNL     1      47.328  38.373  33.527  1.00  0.00    -0.294 N 
ATOM      6  H10 UNL     1      48.246  38.504  33.951  1.00  0.00     0.172 HD
HETATM    7  C23 UNL     1      46.242  38.574  34.265  1.00  0.00     0.331 A 
HETATM    8  O9  UNL     1      46.429  38.921  35.466  1.00  0.00    -0.246 OA
ENDROOT
BRANCH   1   9
HETATM    9  C9  UNL     1      43.999  38.685  34.729  1.00  0.00     0.260 C 
HETATM   10  N2  UNL     1      43.329  37.336  34.966  1.00  0.00    -0.042 NA
HETATM   11  O3  UNL     1      42.210  37.748  35.590  1.00  0.00    -0.246 OA
HETATM   12  C8  UNL     1      42.539  38.765  36.474  1.00  0.00     0.302 C 
HETATM   13  C24 UNL     1      43.998  39.174  36.057  1.00  0.00     0.212 C 
BRANCH  10  14
HETATM   14  O4  UNL     1      44.131  36.802  35.947  1.00  0.00    -0.287 OA
ATOM     15  H4  UNL     1      44.760  36.251  35.496  1.00  0.00     0.239 HD
ENDBRANCH  10  14
BRANCH  12  16
HETATM   16  N1  UNL     1      42.459  38.431  37.852  1.00  0.00    -0.253 N 
HETATM   17  C7  UNL     1      41.801  39.120  38.771  1.00  0.00     0.143 A 
HETATM   18  C6  UNL     1      41.979  38.463  39.972  1.00  0.00     0.068 A 
HETATM   19  N12 UNL     1      42.753  37.397  39.682  1.00  0.00    -0.287 N 
HETATM   20  N11 UNL     1      43.036  37.385  38.413  1.00  0.00    -0.238 N 
ATOM     21  H12 UNL     1      43.069  36.703  40.359  1.00  0.00     0.188 HD
ATOM     22  H11 UNL     1      43.605  36.687  37.934  1.00  0.00     0.208 HD
BRANCH  18  23
HETATM   23  C5  UNL     1      41.425  38.877  41.262  1.00  0.00     0.239 C 
BRANCH  23  24
HETATM   24  O2  UNL     1      40.161  39.505  41.153  1.00  0.00    -0.312 OA
BRANCH  24  25
HETATM   25  C4  UNL     1      40.039  40.847  41.464  1.00  0.00     0.288 C 
HETATM   26  O1  UNL     1      39.674  41.632  40.542  1.00  0.00    -0.260 OA
BRANCH  25  27
HETATM   27  C2  UNL     1      40.318  41.361  42.811  1.00  0.00     0.004 C 
HETATM   28  C1  UNL     1      39.600  40.966  43.832  1.00  0.00     0.024 C 
HETATM   29  C3  UNL     1      41.423  42.333  42.991  1.00  0.00     0.054 C 
ENDBRANCH  25  27
ENDBRANCH  24  25
ENDBRANCH  23  24
ENDBRANCH  18  23
ENDBRANCH  12  16
BRANCH  13  30
HETATM   30  O10 UNL     1      43.930  40.586  36.238  1.00  0.00    -0.387 OA
ATOM     31  H10 UNL     1      44.813  40.762  36.540  1.00  0.00     0.210 HD
ENDBRANCH  13  30
ENDBRANCH   1   9
BRANCH   2  32
HETATM   32  N4  UNL     1      43.574  37.880  31.936  1.00  0.00    -0.348 N 
ATOM     33  H4  UNL     1      42.966  37.185  32.370  1.00  0.00     0.167 HD
BRANCH  32  34
HETATM   34  C11 UNL     1      43.046  38.597  30.797  1.00  0.00     0.003 C 
HETATM   35  C12 UNL     1      42.838  37.818  29.556  1.00  0.00     0.065 C 
BRANCH  34  36
HETATM   36  C13 UNL     1      42.156  39.737  31.088  1.00  0.00     0.193 C 
BRANCH  36  37
HETATM   37  N5  UNL     1      42.576  40.795  31.935  1.00  0.00    -0.276 N 
HETATM   38  S1  UNL     1      41.527  41.375  33.149  1.00  0.00     0.015 SA
HETATM   39  C14 UNL     1      42.185  42.640  34.076  1.00  0.00     0.161 A 
HETATM   40  C16 UNL     1      43.462  42.984  33.689  1.00  0.00     0.283 A 
HETATM   41  O6  UNL     1      43.993  43.937  34.366  1.00  0.00    -0.265 OA
HETATM   42  N7  UNL     1      44.135  42.404  32.696  1.00  0.00    -0.286 N 
HETATM   43  C17 UNL     1      43.754  41.413  31.892  1.00  0.00     0.233 A 
ATOM     44  H7  UNL     1      45.072  42.769  32.528  1.00  0.00     0.172 HD
BRANCH  39  45
HETATM   45  N6  UNL     1      41.606  43.255  35.048  1.00  0.00    -0.323 N 
ATOM     46  H6  UNL     1      41.580  44.274  35.094  1.00  0.00     0.169 HD
BRANCH  45  47
HETATM   47  C15 UNL     1      41.007  42.453  36.055  1.00  0.00     0.353 C 
HETATM   48  O5  UNL     1      41.541  42.195  37.150  1.00  0.00    -0.283 OA
ENDBRANCH  45  47
ENDBRANCH  39  45
BRANCH  43  49
HETATM   49  O7  UNL     1      44.622  41.035  30.999  1.00  0.00    -0.332 OA
ATOM     50  H7  UNL     1      45.023  40.179  31.090  1.00  0.00     0.221 HD
ENDBRANCH  43  49
ENDBRANCH  36  37
ENDBRANCH  34  36
ENDBRANCH  32  34
ENDBRANCH   2  32
BRANCH   4  51
HETATM   51  N8  UNL     1      48.274  37.802  31.507  1.00  0.00    -0.311 N 
HETATM   52  C20 UNL     1      49.581  37.990  32.011  1.00  0.00     0.253 C 
HETATM   53  O8  UNL     1      50.026  37.134  32.849  1.00  0.00    -0.271 OA
ATOM     54  H8  UNL     1      48.145  37.501  30.541  1.00  0.00     0.170 HD
BRANCH  52  55
HETATM   55  C21 UNL     1      50.466  39.098  31.640  1.00  0.00     0.271 C 
HETATM   56  C22 UNL     1      49.802  40.081  30.675  1.00  0.00     0.050 C 
BRANCH  55  57
HETATM   57  N9  UNL     1      50.911  39.856  32.798  1.00  0.00    -0.067 N 
ATOM     58  H93 UNL     1      50.164  40.449  33.161  1.00  0.00     0.275 HD
ATOM     59  H92 UNL     1      51.045  39.250  33.607  1.00  0.00     0.275 HD
ATOM     60  H91 UNL     1      51.752  40.400  32.603  1.00  0.00     0.275 HD
ENDBRANCH  55  57
ENDBRANCH  52  55
ENDBRANCH   4  51
TORSDOF 18
ENDMDL
