MODEL 1
REMARK VINA RESULT: -10.932543125      0.000      0.000
REMARK  6 active torsions:
REMARK  status: ('A' for Active; 'I' for Inactive)
REMARK    1  A    between atoms: C7_7  and  N1_8 
REMARK    2  A    between atoms: N1_8  and  C8_10 
REMARK    3  A    between atoms: C8_10  and  N2_12 
REMARK    4  A    between atoms: N2_12  and  N3_14 
REMARK       I    between atoms: N3_14  and  C9_16 
REMARK    5  A    between atoms: C9_16  and  C10_18 
REMARK    6  A    between atoms: C10_18  and  C11_19 
ROOT
HETATM    1  N3  UNL     1      12.544   8.315  -7.223  1.00  0.00    -0.268 N 
ATOM      2  H3  UNL     1      13.475   8.731  -7.224  1.00  0.00     0.190 HD
HETATM    3  C9  UNL     1      11.437   9.006  -7.823  1.00  0.00     0.240 C 
HETATM    4  O1  UNL     1      10.307   8.403  -7.767  1.00  0.00    -0.272 OA
ENDROOT
BRANCH   1   5
HETATM    5  N2  UNL     1      12.328   7.073  -6.641  1.00  0.00    -0.274 N 
ATOM      6  H2  UNL     1      11.451   7.041  -6.121  1.00  0.00     0.189 HD
BRANCH   5   7
HETATM    7  C8  UNL     1      13.002   5.876  -6.590  1.00  0.00     0.191 C 
HETATM    8  S1  UNL     1      13.886   5.776  -5.077  1.00  0.00    -0.039 SA
BRANCH   7   9
HETATM    9  N1  UNL     1      13.171   4.764  -7.385  1.00  0.00    -0.332 N 
ATOM     10  H1  UNL     1      14.000   4.242  -7.100  1.00  0.00     0.168 HD
BRANCH   9  11
HETATM   11  C7  UNL     1      12.548   4.142  -8.458  1.00  0.00     0.035 A 
HETATM   12  C6  UNL     1      11.924   4.937  -9.462  1.00  0.00     0.036 A 
HETATM   13  C4  UNL     1      11.250   4.432 -10.507  1.00  0.00    -0.059 A 
HETATM   14  C3  UNL     1      11.131   3.077 -10.655  1.00  0.00     0.013 A 
HETATM   15  C5  UNL     1      10.627   5.324 -11.505  1.00  0.00     0.048 C 
HETATM   16  C2  UNL     1      11.716   2.262  -9.710  1.00  0.00    -0.059 A 
HETATM   17  C1  UNL     1      11.584   0.791  -9.868  1.00  0.00     0.048 C 
HETATM   18  C23 UNL     1      12.403   2.802  -8.647  1.00  0.00     0.036 A 
ENDBRANCH   9  11
ENDBRANCH   7   9
ENDBRANCH   5   7
ENDBRANCH   1   5
BRANCH   3  19
HETATM   19  C10 UNL     1      11.477  10.310  -8.482  1.00  0.00     0.146 C 
BRANCH  19  20
HETATM   20  C11 UNL     1      11.230  10.130  -9.960  1.00  0.00    -0.015 A 
HETATM   21  C12 UNL     1      11.834   9.223 -10.795  1.00  0.00     0.015 A 
HETATM   22  C13 UNL     1      12.798   8.190 -10.391  1.00  0.00     0.069 C 
HETATM   23  N4  UNL     1      11.394   9.425 -12.066  1.00  0.00    -0.353 N 
HETATM   24  C14 UNL     1      11.799   8.690 -13.232  1.00  0.00     0.156 C 
HETATM   25  C15 UNL     1      10.507  10.452 -12.073  1.00  0.00     0.051 A 
HETATM   26  C16 UNL     1       9.785  11.052 -13.079  1.00  0.00    -0.034 A 
HETATM   27  C22 UNL     1      10.406  10.891 -10.742  1.00  0.00     0.000 A 
HETATM   28  C17 UNL     1       9.869  10.645 -14.490  1.00  0.00     0.050 C 
HETATM   29  C18 UNL     1       8.957  12.101 -12.724  1.00  0.00     0.015 A 
HETATM   30  C19 UNL     1       8.833  12.555 -11.434  1.00  0.00    -0.061 A 
HETATM   31  C20 UNL     1       7.912  13.689 -11.173  1.00  0.00     0.048 C 
HETATM   32  C21 UNL     1       9.563  11.945 -10.447  1.00  0.00     0.021 A 
ENDBRANCH  19  20
ENDBRANCH   3  19
TORSDOF 6
ENDMDL
MODEL 2
REMARK VINA RESULT: -10.597164910      2.659      3.878
REMARK  6 active torsions:
REMARK  status: ('A' for Active; 'I' for Inactive)
REMARK    1  A    between atoms: C7_7  and  N1_8 
REMARK    2  A    between atoms: N1_8  and  C8_10 
REMARK    3  A    between atoms: C8_10  and  N2_12 
REMARK    4  A    between atoms: N2_12  and  N3_14 
REMARK       I    between atoms: N3_14  and  C9_16 
REMARK    5  A    between atoms: C9_16  and  C10_18 
REMARK    6  A    between atoms: C10_18  and  C11_19 
ROOT
HETATM    1  N3  UNL     1      12.531   8.077  -7.267  1.00  0.00    -0.268 N 
ATOM      2  H3  UNL     1      13.475   8.466  -7.271  1.00  0.00     0.190 HD
HETATM    3  C9  UNL     1      11.434   8.823  -7.817  1.00  0.00     0.240 C 
HETATM    4  O1  UNL     1      10.288   8.252  -7.761  1.00  0.00    -0.272 OA
ENDROOT
BRANCH   1   5
HETATM    5  N2  UNL     1      12.290   6.821  -6.729  1.00  0.00    -0.274 N 
ATOM      6  H2  UNL     1      11.318   6.707  -6.443  1.00  0.00     0.189 HD
BRANCH   5   7
HETATM    7  C8  UNL     1      13.035   5.692  -6.485  1.00  0.00     0.191 C 
HETATM    8  S1  UNL     1      13.337   4.862  -8.002  1.00  0.00    -0.039 SA
BRANCH   7   9
HETATM    9  N1  UNL     1      13.592   5.049  -5.402  1.00  0.00    -0.332 N 
ATOM     10  H1  UNL     1      13.201   5.409  -4.531  1.00  0.00     0.168 HD
BRANCH   9  11
HETATM   11  C7  UNL     1      14.527   4.057  -5.143  1.00  0.00     0.035 A 
HETATM   12  C6  UNL     1      14.221   3.037  -4.197  1.00  0.00     0.036 A 
HETATM   13  C4  UNL     1      15.076   2.067  -3.836  1.00  0.00    -0.059 A 
HETATM   14  C3  UNL     1      16.329   2.019  -4.385  1.00  0.00     0.013 A 
HETATM   15  C5  UNL     1      14.684   1.046  -2.844  1.00  0.00     0.048 C 
HETATM   16  C2  UNL     1      16.676   2.985  -5.305  1.00  0.00    -0.059 A 
HETATM   17  C1  UNL     1      18.037   2.936  -5.899  1.00  0.00     0.048 C 
HETATM   18  C23 UNL     1      15.783   3.968  -5.660  1.00  0.00     0.036 A 
ENDBRANCH   9  11
ENDBRANCH   7   9
ENDBRANCH   5   7
ENDBRANCH   1   5
BRANCH   3  19
HETATM   19  C10 UNL     1      11.500  10.150  -8.426  1.00  0.00     0.146 C 
BRANCH  19  20
HETATM   20  C11 UNL     1      11.240  10.033  -9.908  1.00  0.00    -0.015 A 
HETATM   21  C12 UNL     1      11.821   9.147 -10.782  1.00  0.00     0.015 A 
HETATM   22  C13 UNL     1      12.767   8.081 -10.425  1.00  0.00     0.069 C 
HETATM   23  N4  UNL     1      11.377   9.407 -12.041  1.00  0.00    -0.353 N 
HETATM   24  C14 UNL     1      11.760   8.711 -13.237  1.00  0.00     0.156 C 
HETATM   25  C15 UNL     1      10.511  10.451 -12.002  1.00  0.00     0.051 A 
HETATM   26  C16 UNL     1       9.793  11.103 -12.979  1.00  0.00    -0.034 A 
HETATM   27  C22 UNL     1      10.426  10.840 -10.654  1.00  0.00     0.000 A 
HETATM   28  C17 UNL     1       9.861  10.750 -14.405  1.00  0.00     0.050 C 
HETATM   29  C18 UNL     1       8.988  12.154 -12.577  1.00  0.00     0.015 A 
HETATM   30  C19 UNL     1       8.882  12.560 -11.270  1.00  0.00    -0.061 A 
HETATM   31  C20 UNL     1       7.984  13.700 -10.959  1.00  0.00     0.048 C 
HETATM   32  C21 UNL     1       9.606  11.897 -10.312  1.00  0.00     0.021 A 
ENDBRANCH  19  20
ENDBRANCH   3  19
TORSDOF 6
ENDMDL
MODEL 3
REMARK VINA RESULT: -10.533464435      3.977      9.912
REMARK  6 active torsions:
REMARK  status: ('A' for Active; 'I' for Inactive)
REMARK    1  A    between atoms: C7_7  and  N1_8 
REMARK    2  A    between atoms: N1_8  and  C8_10 
REMARK    3  A    between atoms: C8_10  and  N2_12 
REMARK    4  A    between atoms: N2_12  and  N3_14 
REMARK       I    between atoms: N3_14  and  C9_16 
REMARK    5  A    between atoms: C9_16  and  C10_18 
REMARK    6  A    between atoms: C10_18  and  C11_19 
ROOT
HETATM    1  N3  UNL     1      14.272   6.433  -8.129  1.00  0.00    -0.268 N 
ATOM      2  H3  UNL     1      14.427   7.315  -7.640  1.00  0.00     0.190 HD
HETATM    3  C9  UNL     1      15.015   5.259  -7.766  1.00  0.00     0.240 C 
HETATM    4  O1  UNL     1      14.751   4.202  -8.441  1.00  0.00    -0.272 OA
ENDROOT
BRANCH   1   5
HETATM    5  N2  UNL     1      13.340   6.351  -9.154  1.00  0.00    -0.274 N 
ATOM      6  H2  UNL     1      13.301   5.417  -9.562  1.00  0.00     0.189 HD
BRANCH   5   7
HETATM    7  C8  UNL     1      12.458   7.215  -9.758  1.00  0.00     0.191 C 
HETATM    8  S1  UNL     1      10.851   6.509  -9.733  1.00  0.00    -0.039 SA
BRANCH   7   9
HETATM    9  N1  UNL     1      12.491   8.452 -10.364  1.00  0.00    -0.332 N 
ATOM     10  H1  UNL     1      13.391   8.906 -10.202  1.00  0.00     0.168 HD
BRANCH   9  11
HETATM   11  C7  UNL     1      11.666   9.263 -11.130  1.00  0.00     0.035 A 
HETATM   12  C6  UNL     1      10.875  10.259 -10.490  1.00  0.00     0.036 A 
HETATM   13  C4  UNL     1      10.006  11.055 -11.133  1.00  0.00    -0.059 A 
HETATM   14  C3  UNL     1       9.840  10.935 -12.486  1.00  0.00     0.013 A 
HETATM   15  C5  UNL     1       9.217  12.063 -10.397  1.00  0.00     0.048 C 
HETATM   16  C2  UNL     1      10.582   9.985 -13.154  1.00  0.00    -0.059 A 
HETATM   17  C1  UNL     1      10.399   9.851 -14.623  1.00  0.00     0.048 C 
HETATM   18  C23 UNL     1      11.466   9.181 -12.474  1.00  0.00     0.036 A 
ENDBRANCH   9  11
ENDBRANCH   7   9
ENDBRANCH   5   7
ENDBRANCH   1   5
BRANCH   3  19
HETATM   19  C10 UNL     1      16.026   5.157  -6.715  1.00  0.00     0.146 C 
BRANCH  19  20
HETATM   20  C11 UNL     1      15.501   4.285  -5.600  1.00  0.00    -0.015 A 
HETATM   21  C12 UNL     1      14.431   4.546  -4.780  1.00  0.00     0.015 A 
HETATM   22  C13 UNL     1      13.534   5.706  -4.879  1.00  0.00     0.069 C 
HETATM   23  N4  UNL     1      14.324   3.553  -3.858  1.00  0.00    -0.353 N 
HETATM   24  C14 UNL     1      13.341   3.466  -2.814  1.00  0.00     0.156 C 
HETATM   25  C15 UNL     1      15.310   2.644  -4.065  1.00  0.00     0.051 A 
HETATM   26  C16 UNL     1      15.648   1.474  -3.423  1.00  0.00    -0.034 A 
HETATM   27  C22 UNL     1      16.047   3.110  -5.166  1.00  0.00     0.000 A 
HETATM   28  C17 UNL     1      14.923   0.952  -2.254  1.00  0.00     0.050 C 
HETATM   29  C18 UNL     1      16.741   0.779  -3.908  1.00  0.00     0.015 A 
HETATM   30  C19 UNL     1      17.483   1.205  -4.982  1.00  0.00    -0.061 A 
HETATM   31  C20 UNL     1      18.635   0.375  -5.414  1.00  0.00     0.048 C 
HETATM   32  C21 UNL     1      17.130   2.374  -5.607  1.00  0.00     0.021 A 
ENDBRANCH  19  20
ENDBRANCH   3  19
TORSDOF 6
ENDMDL
MODEL 4
REMARK VINA RESULT: -10.530279739      2.650      3.730
REMARK  6 active torsions:
REMARK  status: ('A' for Active; 'I' for Inactive)
REMARK    1  A    between atoms: C7_7  and  N1_8 
REMARK    2  A    between atoms: N1_8  and  C8_10 
REMARK    3  A    between atoms: C8_10  and  N2_12 
REMARK    4  A    between atoms: N2_12  and  N3_14 
REMARK       I    between atoms: N3_14  and  C9_16 
REMARK    5  A    between atoms: C9_16  and  C10_18 
REMARK    6  A    between atoms: C10_18  and  C11_19 
ROOT
HETATM    1  N3  UNL     1      12.542   8.047  -7.274  1.00  0.00    -0.268 N 
ATOM      2  H3  UNL     1      13.486   8.436  -7.276  1.00  0.00     0.190 HD
HETATM    3  C9  UNL     1      11.445   8.798  -7.817  1.00  0.00     0.240 C 
HETATM    4  O1  UNL     1      10.299   8.226  -7.765  1.00  0.00    -0.272 OA
ENDROOT
BRANCH   1   5
HETATM    5  N2  UNL     1      12.302   6.786  -6.746  1.00  0.00    -0.274 N 
ATOM      6  H2  UNL     1      11.312   6.636  -6.552  1.00  0.00     0.189 HD
BRANCH   5   7
HETATM    7  C8  UNL     1      13.064   5.691  -6.419  1.00  0.00     0.191 C 
HETATM    8  S1  UNL     1      13.424   4.783  -7.878  1.00  0.00    -0.039 SA
BRANCH   7   9
HETATM    9  N1  UNL     1      13.607   5.124  -5.287  1.00  0.00    -0.332 N 
ATOM     10  H1  UNL     1      13.260   5.592  -4.450  1.00  0.00     0.168 HD
BRANCH   9  11
HETATM   11  C7  UNL     1      14.486   4.106  -4.946  1.00  0.00     0.035 A 
HETATM   12  C6  UNL     1      15.764   4.045  -5.574  1.00  0.00     0.036 A 
HETATM   13  C4  UNL     1      16.661   3.072  -5.355  1.00  0.00    -0.059 A 
HETATM   14  C3  UNL     1      16.372   2.057  -4.484  1.00  0.00     0.013 A 
HETATM   15  C5  UNL     1      17.965   3.077  -6.049  1.00  0.00     0.048 C 
HETATM   16  C2  UNL     1      15.148   2.068  -3.851  1.00  0.00    -0.059 A 
HETATM   17  C1  UNL     1      14.832   0.964  -2.908  1.00  0.00     0.048 C 
HETATM   18  C23 UNL     1      14.244   3.076  -4.090  1.00  0.00     0.036 A 
ENDBRANCH   9  11
ENDBRANCH   7   9
ENDBRANCH   5   7
ENDBRANCH   1   5
BRANCH   3  19
HETATM   19  C10 UNL     1      11.511  10.129  -8.415  1.00  0.00     0.146 C 
BRANCH  19  20
HETATM   20  C11 UNL     1      11.247  10.025  -9.898  1.00  0.00    -0.015 A 
HETATM   21  C12 UNL     1      11.828   9.148 -10.781  1.00  0.00     0.015 A 
HETATM   22  C13 UNL     1      12.777   8.081 -10.435  1.00  0.00     0.069 C 
HETATM   23  N4  UNL     1      11.380   9.418 -12.036  1.00  0.00    -0.353 N 
HETATM   24  C14 UNL     1      11.761   8.733 -13.239  1.00  0.00     0.156 C 
HETATM   25  C15 UNL     1      10.511  10.459 -11.985  1.00  0.00     0.051 A 
HETATM   26  C16 UNL     1       9.790  11.118 -12.955  1.00  0.00    -0.034 A 
HETATM   27  C22 UNL     1      10.430  10.836 -10.634  1.00  0.00     0.000 A 
HETATM   28  C17 UNL     1       9.854  10.778 -14.385  1.00  0.00     0.050 C 
HETATM   29  C18 UNL     1       8.983  12.164 -12.542  1.00  0.00     0.015 A 
HETATM   30  C19 UNL     1       8.880  12.558 -11.231  1.00  0.00    -0.061 A 
HETATM   31  C20 UNL     1       7.980  13.693 -10.907  1.00  0.00     0.048 C 
HETATM   32  C21 UNL     1       9.608  11.888 -10.281  1.00  0.00     0.021 A 
ENDBRANCH  19  20
ENDBRANCH   3  19
TORSDOF 6
ENDMDL
MODEL 5
REMARK VINA RESULT: -10.483130024      3.961      9.935
REMARK  6 active torsions:
REMARK  status: ('A' for Active; 'I' for Inactive)
REMARK    1  A    between atoms: C7_7  and  N1_8 
REMARK    2  A    between atoms: N1_8  and  C8_10 
REMARK    3  A    between atoms: C8_10  and  N2_12 
REMARK    4  A    between atoms: N2_12  and  N3_14 
REMARK       I    between atoms: N3_14  and  C9_16 
REMARK    5  A    between atoms: C9_16  and  C10_18 
REMARK    6  A    between atoms: C10_18  and  C11_19 
ROOT
HETATM    1  N3  UNL     1      14.246   6.421  -8.172  1.00  0.00    -0.268 N 
ATOM      2  H3  UNL     1      14.403   7.303  -7.683  1.00  0.00     0.190 HD
HETATM    3  C9  UNL     1      14.996   5.248  -7.819  1.00  0.00     0.240 C 
HETATM    4  O1  UNL     1      14.730   4.192  -8.495  1.00  0.00    -0.272 OA
ENDROOT
BRANCH   1   5
HETATM    5  N2  UNL     1      13.305   6.339  -9.190  1.00  0.00    -0.274 N 
ATOM      6  H2  UNL     1      13.286   5.414  -9.619  1.00  0.00     0.189 HD
BRANCH   5   7
HETATM    7  C8  UNL     1      12.393   7.193  -9.763  1.00  0.00     0.191 C 
HETATM    8  S1  UNL     1      10.802   6.455  -9.715  1.00  0.00    -0.039 SA
BRANCH   7   9
HETATM    9  N1  UNL     1      12.390   8.438 -10.352  1.00  0.00    -0.332 N 
ATOM     10  H1  UNL     1      13.334   8.823 -10.382  1.00  0.00     0.168 HD
BRANCH   9  11
HETATM   11  C7  UNL     1      11.484   9.325 -10.916  1.00  0.00     0.035 A 
HETATM   12  C6  UNL     1      11.297   9.330 -12.328  1.00  0.00     0.036 A 
HETATM   13  C4  UNL     1      10.488  10.184 -12.975  1.00  0.00    -0.059 A 
HETATM   14  C3  UNL     1       9.780  11.122 -12.273  1.00  0.00     0.013 A 
HETATM   15  C5  UNL     1      10.351  10.129 -14.444  1.00  0.00     0.048 C 
HETATM   16  C2  UNL     1       9.926  11.160 -10.903  1.00  0.00    -0.059 A 
HETATM   17  C1  UNL     1       9.162  12.181 -10.140  1.00  0.00     0.048 C 
HETATM   18  C23 UNL     1      10.761  10.275 -10.262  1.00  0.00     0.036 A 
ENDBRANCH   9  11
ENDBRANCH   7   9
ENDBRANCH   5   7
ENDBRANCH   1   5
BRANCH   3  19
HETATM   19  C10 UNL     1      16.017   5.148  -6.778  1.00  0.00     0.146 C 
BRANCH  19  20
HETATM   20  C11 UNL     1      15.499   4.287  -5.652  1.00  0.00    -0.015 A 
HETATM   21  C12 UNL     1      14.435   4.557  -4.826  1.00  0.00     0.015 A 
HETATM   22  C13 UNL     1      13.541   5.719  -4.928  1.00  0.00     0.069 C 
HETATM   23  N4  UNL     1      14.332   3.572  -3.895  1.00  0.00    -0.353 N 
HETATM   24  C14 UNL     1      13.357   3.496  -2.843  1.00  0.00     0.156 C 
HETATM   25  C15 UNL     1      15.314   2.658  -4.102  1.00  0.00     0.051 A 
HETATM   26  C16 UNL     1      15.653   1.493  -3.453  1.00  0.00    -0.034 A 
HETATM   27  C22 UNL     1      16.045   3.113  -5.212  1.00  0.00     0.000 A 
HETATM   28  C17 UNL     1      14.936   0.983  -2.274  1.00  0.00     0.050 C 
HETATM   29  C18 UNL     1      16.741   0.791  -3.941  1.00  0.00     0.015 A 
HETATM   30  C19 UNL     1      17.476   1.206  -5.023  1.00  0.00    -0.061 A 
HETATM   31  C20 UNL     1      18.622   0.368  -5.457  1.00  0.00     0.048 C 
HETATM   32  C21 UNL     1      17.122   2.370  -5.655  1.00  0.00     0.021 A 
ENDBRANCH  19  20
ENDBRANCH   3  19
TORSDOF 6
ENDMDL
