MODEL 1
REMARK VINA RESULT: -9.640816293      0.000      0.000
REMARK  8 active torsions:
REMARK  status: ('A' for Active; 'I' for Inactive)
REMARK    1  A    between atoms: C1_2  and  C2_3 
REMARK       I    between atoms: C1_2  and  N2_16 
REMARK    2  A    between atoms: C2_3  and  C3_4 
REMARK    3  A    between atoms: C3_4  and  N1_5 
REMARK       I    between atoms: N1_5  and  C4_7 
REMARK    4  A    between atoms: C4_7  and  C5_9 
REMARK    5  A    between atoms: N2_16  and  C9_18 
REMARK    6  A    between atoms: C14_25  and  S2_26 
REMARK    7  A    between atoms: S2_26  and  N3_29 
REMARK    8  A    between atoms: N3_29  and  C15_31 
ROOT
HETATM    1  O1  UNL     1       8.026   2.473  19.150  1.00  0.00    -0.273 OA
HETATM    2  C1  UNL     1       8.304   1.537  18.399  1.00  0.00     0.223 C 
HETATM    3  N2  UNL     1       7.570   1.163  17.266  1.00  0.00    -0.326 N 
ATOM      4  H2  UNL     1       7.929   0.363  16.746  1.00  0.00     0.169 HD
ENDROOT
BRANCH   3   5
HETATM    5  C9  UNL     1       6.380   1.761  16.746  1.00  0.00     0.060 A 
HETATM    6  C10 UNL     1       6.397   2.894  15.979  1.00  0.00     0.033 A 
HETATM    7  C11 UNL     1       5.213   3.405  15.468  1.00  0.00     0.028 A 
HETATM    8  C12 UNL     1       4.010   2.799  15.714  1.00  0.00     0.057 A 
HETATM    9 CL3  UNL     1       2.530   3.448  15.066  1.00  0.00    -0.083 Cl
HETATM   10  C13 UNL     1       4.005   1.660  16.488  1.00  0.00     0.081 A 
HETATM   11 CL4  UNL     1       2.430   0.901  16.832  1.00  0.00    -0.081 Cl
HETATM   12  C14 UNL     1       5.162   1.136  17.003  1.00  0.00     0.129 A 
BRANCH  12  13
HETATM   13  S2  UNL     1       5.084  -0.275  18.032  1.00  0.00     0.263 S 
HETATM   14  O3  UNL     1       4.787   0.248  19.449  1.00  0.00    -0.200 OA
HETATM   15  O4  UNL     1       6.398  -0.978  18.175  1.00  0.00    -0.200 OA
BRANCH  13  16
HETATM   16  N3  UNL     1       3.830  -1.348  17.668  1.00  0.00    -0.310 N 
ATOM     17  H3  UNL     1       2.893  -1.205  18.045  1.00  0.00     0.172 HD
BRANCH  16  18
HETATM   18  C15 UNL     1       4.115  -2.450  16.827  1.00  0.00     0.093 A 
HETATM   19  C16 UNL     1       2.988  -3.363  16.489  1.00  0.00     0.028 A 
HETATM   20  C17 UNL     1       3.995  -3.860  17.439  1.00  0.00     0.028 A 
ENDBRANCH  16  18
ENDBRANCH  13  16
ENDBRANCH  12  13
ENDBRANCH   3   5
BRANCH   2  21
HETATM   21  C2  UNL     1       9.539   0.736  18.737  1.00  0.00     0.123 C 
BRANCH  21  22
HETATM   22  C3  UNL     1      10.321   1.510  19.754  1.00  0.00     0.132 C 
BRANCH  22  23
HETATM   23  N1  UNL     1      11.165   2.519  19.189  1.00  0.00    -0.356 N 
HETATM   24  C4  UNL     1      12.027   3.344  19.944  1.00  0.00     0.253 C 
HETATM   25  O2  UNL     1      12.072   3.205  21.187  1.00  0.00    -0.268 OA
ATOM     26  H1  UNL     1      11.142   2.649  18.177  1.00  0.00     0.162 HD
BRANCH  24  27
HETATM   27  C5  UNL     1      12.864   4.363  19.243  1.00  0.00     0.062 A 
HETATM   28  C6  UNL     1      12.337   5.285  18.417  1.00  0.00     0.050 A 
HETATM   29  C7  UNL     1      13.203   6.167  17.830  1.00  0.00     0.077 A 
HETATM   30 CL1  UNL     1      12.794   7.478  16.705  1.00  0.00    -0.076 Cl
HETATM   31  S1  UNL     1      14.717   5.694  18.443  1.00  0.00    -0.065 SA
HETATM   32  C8  UNL     1      14.223   4.394  19.423  1.00  0.00     0.091 A 
HETATM   33 CL2  UNL     1      15.194   3.315  20.445  1.00  0.00    -0.075 Cl
ENDBRANCH  24  27
ENDBRANCH  22  23
ENDBRANCH  21  22
ENDBRANCH   2  21
TORSDOF 8
ENDMDL
MODEL 2
REMARK VINA RESULT: -9.504561466      0.921      1.030
REMARK  8 active torsions:
REMARK  status: ('A' for Active; 'I' for Inactive)
REMARK    1  A    between atoms: C1_2  and  C2_3 
REMARK       I    between atoms: C1_2  and  N2_16 
REMARK    2  A    between atoms: C2_3  and  C3_4 
REMARK    3  A    between atoms: C3_4  and  N1_5 
REMARK       I    between atoms: N1_5  and  C4_7 
REMARK    4  A    between atoms: C4_7  and  C5_9 
REMARK    5  A    between atoms: N2_16  and  C9_18 
REMARK    6  A    between atoms: C14_25  and  S2_26 
REMARK    7  A    between atoms: S2_26  and  N3_29 
REMARK    8  A    between atoms: N3_29  and  C15_31 
ROOT
HETATM    1  O1  UNL     1       7.908   2.597  18.863  1.00  0.00    -0.273 OA
HETATM    2  C1  UNL     1       8.042   1.555  18.219  1.00  0.00     0.223 C 
HETATM    3  N2  UNL     1       7.268   1.182  17.114  1.00  0.00    -0.326 N 
ATOM      4  H2  UNL     1       7.502   0.285  16.688  1.00  0.00     0.169 HD
ENDROOT
BRANCH   3   5
HETATM    5  C9  UNL     1       6.191   1.898  16.505  1.00  0.00     0.060 A 
HETATM    6  C10 UNL     1       6.389   2.979  15.691  1.00  0.00     0.033 A 
HETATM    7  C11 UNL     1       5.306   3.609  15.095  1.00  0.00     0.028 A 
HETATM    8  C12 UNL     1       4.025   3.173  15.304  1.00  0.00     0.057 A 
HETATM    9 CL3  UNL     1       2.673   3.970  14.550  1.00  0.00    -0.083 Cl
HETATM   10  C13 UNL     1       3.837   2.085  16.127  1.00  0.00     0.081 A 
HETATM   11 CL4  UNL     1       2.164   1.550  16.420  1.00  0.00    -0.081 Cl
HETATM   12  C14 UNL     1       4.891   1.446  16.725  1.00  0.00     0.129 A 
BRANCH  12  13
HETATM   13  S2  UNL     1       4.584   0.110  17.810  1.00  0.00     0.263 S 
HETATM   14  O3  UNL     1       3.190   0.363  18.412  1.00  0.00    -0.200 OA
HETATM   15  O4  UNL     1       5.492   0.092  19.000  1.00  0.00    -0.200 OA
BRANCH  13  16
HETATM   16  N3  UNL     1       4.492  -1.403  17.062  1.00  0.00    -0.310 N 
ATOM     17  H3  UNL     1       5.187  -1.689  16.372  1.00  0.00     0.172 HD
BRANCH  16  18
HETATM   18  C15 UNL     1       3.426  -2.263  17.420  1.00  0.00     0.093 A 
HETATM   19  C16 UNL     1       3.746  -3.702  17.623  1.00  0.00     0.028 A 
HETATM   20  C17 UNL     1       3.013  -3.342  16.400  1.00  0.00     0.028 A 
ENDBRANCH  16  18
ENDBRANCH  13  16
ENDBRANCH  12  13
ENDBRANCH   3   5
BRANCH   2  21
HETATM   21  C2  UNL     1       9.134   0.614  18.669  1.00  0.00     0.123 C 
BRANCH  21  22
HETATM   22  C3  UNL     1       9.807   1.229  19.857  1.00  0.00     0.132 C 
BRANCH  22  23
HETATM   23  N1  UNL     1      10.938   2.039  19.525  1.00  0.00    -0.356 N 
HETATM   24  C4  UNL     1      11.424   3.092  20.333  1.00  0.00     0.253 C 
HETATM   25  O2  UNL     1      10.843   3.352  21.411  1.00  0.00    -0.268 OA
ATOM     26  H1  UNL     1      11.426   1.845  18.650  1.00  0.00     0.162 HD
BRANCH  24  27
HETATM   27  C5  UNL     1      12.617   3.869  19.884  1.00  0.00     0.062 A 
HETATM   28  C6  UNL     1      12.582   4.694  18.822  1.00  0.00     0.050 A 
HETATM   29  C7  UNL     1      13.738   5.354  18.503  1.00  0.00     0.077 A 
HETATM   30 CL1  UNL     1      13.984   6.496  17.167  1.00  0.00    -0.076 Cl
HETATM   31  S1  UNL     1      14.834   4.812  19.685  1.00  0.00    -0.065 SA
HETATM   32  C8  UNL     1      13.810   3.766  20.551  1.00  0.00     0.091 A 
HETATM   33 CL2  UNL     1      14.157   2.765  21.976  1.00  0.00    -0.075 Cl
ENDBRANCH  24  27
ENDBRANCH  22  23
ENDBRANCH  21  22
ENDBRANCH   2  21
TORSDOF 8
ENDMDL
MODEL 3
REMARK VINA RESULT: -9.321177024      1.840      2.162
REMARK  8 active torsions:
REMARK  status: ('A' for Active; 'I' for Inactive)
REMARK    1  A    between atoms: C1_2  and  C2_3 
REMARK       I    between atoms: C1_2  and  N2_16 
REMARK    2  A    between atoms: C2_3  and  C3_4 
REMARK    3  A    between atoms: C3_4  and  N1_5 
REMARK       I    between atoms: N1_5  and  C4_7 
REMARK    4  A    between atoms: C4_7  and  C5_9 
REMARK    5  A    between atoms: N2_16  and  C9_18 
REMARK    6  A    between atoms: C14_25  and  S2_26 
REMARK    7  A    between atoms: S2_26  and  N3_29 
REMARK    8  A    between atoms: N3_29  and  C15_31 
ROOT
HETATM    1  O1  UNL     1       7.755   2.447  18.989  1.00  0.00    -0.273 OA
HETATM    2  C1  UNL     1       8.018   1.509  18.234  1.00  0.00     0.223 C 
HETATM    3  N2  UNL     1       7.351   1.226  17.034  1.00  0.00    -0.326 N 
ATOM      4  H2  UNL     1       7.687   0.411  16.520  1.00  0.00     0.169 HD
ENDROOT
BRANCH   3   5
HETATM    5  C9  UNL     1       6.261   1.933  16.439  1.00  0.00     0.060 A 
HETATM    6  C10 UNL     1       6.442   2.991  15.590  1.00  0.00     0.033 A 
HETATM    7  C11 UNL     1       5.345   3.612  15.011  1.00  0.00     0.028 A 
HETATM    8  C12 UNL     1       4.068   3.190  15.269  1.00  0.00     0.057 A 
HETATM    9 CL3  UNL     1       2.699   3.977  14.534  1.00  0.00    -0.083 Cl
HETATM   10  C13 UNL     1       3.898   2.126  16.126  1.00  0.00     0.081 A 
HETATM   11 CL4  UNL     1       2.231   1.611  16.482  1.00  0.00    -0.081 Cl
HETATM   12  C14 UNL     1       4.966   1.496  16.710  1.00  0.00     0.129 A 
BRANCH  12  13
HETATM   13  S2  UNL     1       4.684   0.192  17.839  1.00  0.00     0.263 S 
HETATM   14  O3  UNL     1       5.691  -0.913  17.472  1.00  0.00    -0.200 OA
HETATM   15  O4  UNL     1       3.349  -0.464  17.665  1.00  0.00    -0.200 OA
BRANCH  13  16
HETATM   16  N3  UNL     1       4.994   0.575  19.456  1.00  0.00    -0.310 N 
ATOM     17  H3  UNL     1       4.625   1.430  19.871  1.00  0.00     0.172 HD
BRANCH  16  18
HETATM   18  C15 UNL     1       5.780  -0.323  20.217  1.00  0.00     0.093 A 
HETATM   19  C16 UNL     1       5.298  -0.664  21.583  1.00  0.00     0.028 A 
HETATM   20  C17 UNL     1       6.461   0.230  21.485  1.00  0.00     0.028 A 
ENDBRANCH  16  18
ENDBRANCH  13  16
ENDBRANCH  12  13
ENDBRANCH   3   5
BRANCH   2  21
HETATM   21  C2  UNL     1       9.152   0.601  18.645  1.00  0.00     0.123 C 
BRANCH  21  22
HETATM   22  C3  UNL     1       9.819   1.215  19.837  1.00  0.00     0.132 C 
BRANCH  22  23
HETATM   23  N1  UNL     1      10.950   2.029  19.511  1.00  0.00    -0.356 N 
HETATM   24  C4  UNL     1      11.401   3.112  20.299  1.00  0.00     0.253 C 
HETATM   25  O2  UNL     1      10.788   3.397  21.352  1.00  0.00    -0.268 OA
ATOM     26  H1  UNL     1      11.463   1.814  18.656  1.00  0.00     0.162 HD
BRANCH  24  27
HETATM   27  C5  UNL     1      12.596   3.890  19.858  1.00  0.00     0.062 A 
HETATM   28  C6  UNL     1      12.567   4.719  18.799  1.00  0.00     0.050 A 
HETATM   29  C7  UNL     1      13.725   5.379  18.488  1.00  0.00     0.077 A 
HETATM   30 CL1  UNL     1      13.978   6.525  17.157  1.00  0.00    -0.076 Cl
HETATM   31  S1  UNL     1      14.815   4.832  19.674  1.00  0.00    -0.065 SA
HETATM   32  C8  UNL     1      13.786   3.783  20.531  1.00  0.00     0.091 A 
HETATM   33 CL2  UNL     1      14.126   2.778  21.955  1.00  0.00    -0.075 Cl
ENDBRANCH  24  27
ENDBRANCH  22  23
ENDBRANCH  21  22
ENDBRANCH   2  21
TORSDOF 8
ENDMDL
MODEL 4
REMARK VINA RESULT: -8.980995188      2.608      9.984
REMARK  8 active torsions:
REMARK  status: ('A' for Active; 'I' for Inactive)
REMARK    1  A    between atoms: C1_2  and  C2_3 
REMARK       I    between atoms: C1_2  and  N2_16 
REMARK    2  A    between atoms: C2_3  and  C3_4 
REMARK    3  A    between atoms: C3_4  and  N1_5 
REMARK       I    between atoms: N1_5  and  C4_7 
REMARK    4  A    between atoms: C4_7  and  C5_9 
REMARK    5  A    between atoms: N2_16  and  C9_18 
REMARK    6  A    between atoms: C14_25  and  S2_26 
REMARK    7  A    between atoms: S2_26  and  N3_29 
REMARK    8  A    between atoms: N3_29  and  C15_31 
ROOT
HETATM    1  O1  UNL     1       8.776   0.452  18.505  1.00  0.00    -0.273 OA
HETATM    2  C1  UNL     1       8.834   1.625  18.132  1.00  0.00     0.223 C 
HETATM    3  N2  UNL     1       9.526   2.649  18.791  1.00  0.00    -0.326 N 
ATOM      4  H2  UNL     1       9.477   3.570  18.356  1.00  0.00     0.169 HD
ENDROOT
BRANCH   3   5
HETATM    5  C9  UNL     1      10.292   2.567  19.995  1.00  0.00     0.060 A 
HETATM    6  C10 UNL     1       9.803   2.011  21.146  1.00  0.00     0.033 A 
HETATM    7  C11 UNL     1      10.608   1.923  22.272  1.00  0.00     0.028 A 
HETATM    8  C12 UNL     1      11.898   2.384  22.264  1.00  0.00     0.057 A 
HETATM    9 CL3  UNL     1      12.900   2.267  23.683  1.00  0.00    -0.083 Cl
HETATM   10  C13 UNL     1      12.379   2.943  21.101  1.00  0.00     0.081 A 
HETATM   11 CL4  UNL     1      14.045   3.572  21.114  1.00  0.00    -0.081 Cl
HETATM   12  C14 UNL     1      11.602   3.040  19.975  1.00  0.00     0.129 A 
BRANCH  12  13
HETATM   13  S2  UNL     1      12.248   3.817  18.549  1.00  0.00     0.263 S 
HETATM   14  O3  UNL     1      11.496   5.154  18.417  1.00  0.00    -0.200 OA
HETATM   15  O4  UNL     1      11.922   3.093  17.280  1.00  0.00    -0.200 OA
BRANCH  13  16
HETATM   16  N3  UNL     1      13.887   4.221  18.643  1.00  0.00    -0.310 N 
ATOM     17  H3  UNL     1      14.589   3.513  18.857  1.00  0.00     0.172 HD
BRANCH  16  18
HETATM   18  C15 UNL     1      14.258   5.567  18.415  1.00  0.00     0.093 A 
HETATM   19  C16 UNL     1      15.575   5.814  17.767  1.00  0.00     0.028 A 
HETATM   20  C17 UNL     1      15.466   6.112  19.203  1.00  0.00     0.028 A 
ENDBRANCH  16  18
ENDBRANCH  13  16
ENDBRANCH  12  13
ENDBRANCH   3   5
BRANCH   2  21
HETATM   21  C2  UNL     1       8.096   1.972  16.862  1.00  0.00     0.123 C 
BRANCH  21  22
HETATM   22  C3  UNL     1       6.652   2.164  17.210  1.00  0.00     0.132 C 
BRANCH  22  23
HETATM   23  N1  UNL     1       6.076   1.060  17.915  1.00  0.00    -0.356 N 
HETATM   24  C4  UNL     1       5.604  -0.118  17.293  1.00  0.00     0.253 C 
HETATM   25  O2  UNL     1       5.683  -0.225  16.049  1.00  0.00    -0.268 OA
ATOM     26  H1  UNL     1       6.001   1.127  18.930  1.00  0.00     0.162 HD
BRANCH  24  27
HETATM   27  C5  UNL     1       5.023  -1.207  18.133  1.00  0.00     0.062 A 
HETATM   28  C6  UNL     1       5.783  -2.016  18.893  1.00  0.00     0.050 A 
HETATM   29  C7  UNL     1       5.139  -2.979  19.621  1.00  0.00     0.077 A 
HETATM   30 CL1  UNL     1       5.879  -4.177  20.702  1.00  0.00    -0.076 Cl
HETATM   31  S1  UNL     1       3.502  -2.732  19.232  1.00  0.00    -0.065 SA
HETATM   32  C8  UNL     1       3.669  -1.422  18.160  1.00  0.00     0.091 A 
HETATM   33 CL2  UNL     1       2.424  -0.521  17.270  1.00  0.00    -0.075 Cl
ENDBRANCH  24  27
ENDBRANCH  22  23
ENDBRANCH  21  22
ENDBRANCH   2  21
TORSDOF 8
ENDMDL
MODEL 5
REMARK VINA RESULT: -8.976176101      2.576     10.035
REMARK  8 active torsions:
REMARK  status: ('A' for Active; 'I' for Inactive)
REMARK    1  A    between atoms: C1_2  and  C2_3 
REMARK       I    between atoms: C1_2  and  N2_16 
REMARK    2  A    between atoms: C2_3  and  C3_4 
REMARK    3  A    between atoms: C3_4  and  N1_5 
REMARK       I    between atoms: N1_5  and  C4_7 
REMARK    4  A    between atoms: C4_7  and  C5_9 
REMARK    5  A    between atoms: N2_16  and  C9_18 
REMARK    6  A    between atoms: C14_25  and  S2_26 
REMARK    7  A    between atoms: S2_26  and  N3_29 
REMARK    8  A    between atoms: N3_29  and  C15_31 
ROOT
HETATM    1  O1  UNL     1       8.809   0.621  18.345  1.00  0.00    -0.273 OA
HETATM    2  C1  UNL     1       8.865   1.808  18.018  1.00  0.00     0.223 C 
HETATM    3  N2  UNL     1       9.537   2.811  18.727  1.00  0.00    -0.326 N 
ATOM      4  H2  UNL     1       9.489   3.748  18.327  1.00  0.00     0.169 HD
ENDROOT
BRANCH   3   5
HETATM    5  C9  UNL     1      10.282   2.689  19.941  1.00  0.00     0.060 A 
HETATM    6  C10 UNL     1       9.748   2.165  21.086  1.00  0.00     0.033 A 
HETATM    7  C11 UNL     1      10.533   2.034  22.223  1.00  0.00     0.028 A 
HETATM    8  C12 UNL     1      11.847   2.420  22.230  1.00  0.00     0.057 A 
HETATM    9 CL3  UNL     1      12.823   2.250  23.662  1.00  0.00    -0.083 Cl
HETATM   10  C13 UNL     1      12.374   2.947  21.072  1.00  0.00     0.081 A 
HETATM   11 CL4  UNL     1      14.073   3.480  21.105  1.00  0.00    -0.081 Cl
HETATM   12  C14 UNL     1      11.618   3.086  19.937  1.00  0.00     0.129 A 
BRANCH  12  13
HETATM   13  S2  UNL     1      12.325   3.820  18.517  1.00  0.00     0.263 S 
HETATM   14  O3  UNL     1      11.572   5.147  18.306  1.00  0.00    -0.200 OA
HETATM   15  O4  UNL     1      12.062   3.053  17.259  1.00  0.00    -0.200 OA
BRANCH  13  16
HETATM   16  N3  UNL     1      13.955   4.240  18.674  1.00  0.00    -0.310 N 
ATOM     17  H3  UNL     1      14.666   3.526  18.831  1.00  0.00     0.172 HD
BRANCH  16  18
HETATM   18  C15 UNL     1      14.306   5.608  18.580  1.00  0.00     0.093 A 
HETATM   19  C16 UNL     1      15.517   5.950  17.785  1.00  0.00     0.028 A 
HETATM   20  C17 UNL     1      15.623   6.049  19.248  1.00  0.00     0.028 A 
ENDBRANCH  16  18
ENDBRANCH  13  16
ENDBRANCH  12  13
ENDBRANCH   3   5
BRANCH   2  21
HETATM   21  C2  UNL     1       8.147   2.198  16.748  1.00  0.00     0.123 C 
BRANCH  21  22
HETATM   22  C3  UNL     1       6.682   2.268  17.055  1.00  0.00     0.132 C 
BRANCH  22  23
HETATM   23  N1  UNL     1       6.127   1.030  17.508  1.00  0.00    -0.356 N 
HETATM   24  C4  UNL     1       4.875   0.523  17.092  1.00  0.00     0.253 C 
HETATM   25  O2  UNL     1       4.191   1.181  16.277  1.00  0.00    -0.268 OA
ATOM     26  H1  UNL     1       6.669   0.477  18.173  1.00  0.00     0.162 HD
BRANCH  24  27
HETATM   27  C5  UNL     1       4.399  -0.785  17.633  1.00  0.00     0.062 A 
HETATM   28  C6  UNL     1       4.312  -1.891  16.873  1.00  0.00     0.050 A 
HETATM   29  C7  UNL     1       3.861  -3.033  17.478  1.00  0.00     0.077 A 
HETATM   30 CL1  UNL     1       3.646  -4.627  16.728  1.00  0.00    -0.076 Cl
HETATM   31  S1  UNL     1       3.574  -2.538  19.079  1.00  0.00    -0.065 SA
HETATM   32  C8  UNL     1       4.028  -0.904  18.947  1.00  0.00     0.091 A 
HETATM   33 CL2  UNL     1       4.036   0.372  20.182  1.00  0.00    -0.075 Cl
ENDBRANCH  24  27
ENDBRANCH  22  23
ENDBRANCH  21  22
ENDBRANCH   2  21
TORSDOF 8
ENDMDL
