MODEL 1
REMARK VINA RESULT: -9.002849548      0.000      0.000
REMARK  10 active torsions:
REMARK  status: ('A' for Active; 'I' for Inactive)
REMARK    1  A    between atoms: S1_2  and  C2_3 
REMARK    2  A    between atoms: C2_3  and  C3_4 
REMARK    3  A    between atoms: C3_4  and  C4_5 
REMARK    4  A    between atoms: N1_6  and  N2_8 
REMARK       I    between atoms: N2_8  and  C5_10 
REMARK    5  A    between atoms: C5_10  and  C6_12 
REMARK    6  A    between atoms: C9_19  and  N6_20 
REMARK    7  A    between atoms: N6_20  and  C10_22 
REMARK    8  A    between atoms: C13_28  and  N8_29 
REMARK    9  A    between atoms: N10_38  and  O3_39 
REMARK   10  A    between atoms: O3_39  and  C15_40 
ROOT
HETATM    1  N6  UNL     1      27.817   0.324  14.931  1.00  0.00    -0.182 N 
ATOM      2  H6  UNL     1      27.508  -0.498  14.412  1.00  0.00     0.184 HD
ENDROOT
BRANCH   1   3
HETATM    3  C9  UNL     1      27.661   1.569  14.292  1.00  0.00     0.141 A 
HETATM    4  C8  UNL     1      26.446   2.219  14.353  1.00  0.00     0.149 A 
HETATM    5  N4  UNL     1      26.288   3.385  13.666  1.00  0.00    -0.330 N 
HETATM    6  N5  UNL     1      25.358   1.700  15.109  1.00  0.00    -0.080 NA
HETATM    7  C7  UNL     1      27.260   3.916  12.939  1.00  0.00     0.137 A 
ATOM      8  H4  UNL     1      25.390   3.865  13.713  1.00  0.00     0.168 HD
HETATM    9  C6  UNL     1      28.526   3.314  12.826  1.00  0.00     0.127 A 
HETATM   10  N3  UNL     1      27.083   5.164  12.235  1.00  0.00    -0.081 NA
HETATM   11  C17 UNL     1      28.665   2.140  13.530  1.00  0.00     0.221 A 
HETATM   12  O5  UNL     1      29.761   1.512  13.505  1.00  0.00    -0.285 OA
BRANCH   9  13
HETATM   13  C5  UNL     1      29.490   3.906  11.927  1.00  0.00     0.277 C 
HETATM   14  N2  UNL     1      30.841   4.160  12.226  1.00  0.00    -0.266 N 
ATOM     15  H2  UNL     1      31.187   3.928  13.157  1.00  0.00     0.190 HD
HETATM   16  O1  UNL     1      29.125   4.248  10.753  1.00  0.00    -0.266 OA
BRANCH  14  17
HETATM   17  N1  UNL     1      31.719   4.708  11.315  1.00  0.00    -0.313 N 
HETATM   18  C4  UNL     1      32.731   4.256  10.781  1.00  0.00     0.081 C 
ATOM     19  H1  UNL     1      31.487   5.661  11.032  1.00  0.00     0.185 HD
BRANCH  18  20
HETATM   20  C3  UNL     1      33.393   2.948  10.905  1.00  0.00     0.056 C 
BRANCH  20  21
HETATM   21  C2  UNL     1      34.340   2.979  12.092  1.00  0.00     0.078 C 
BRANCH  21  22
HETATM   22  S1  UNL     1      36.021   3.173  11.452  1.00  0.00    -0.173 SA
HETATM   23  C1  UNL     1      36.573   4.879  11.390  1.00  0.00     0.089 C 
ENDBRANCH  21  22
ENDBRANCH  20  21
ENDBRANCH  18  20
ENDBRANCH  14  17
ENDBRANCH   9  13
ENDBRANCH   1   3
BRANCH   1  24
HETATM   24  C10 UNL     1      28.363   0.092  16.225  1.00  0.00     0.711 A 
HETATM   25  N7  UNL     1      27.909   0.689  17.269  1.00  0.00    -0.179 N 
HETATM   26  C11 UNL     1      28.611   0.289  18.437  1.00  0.00     0.306 A 
ATOM     27  H7  UNL     1      27.144   1.364  17.260  1.00  0.00     0.181 HD
HETATM   28  C12 UNL     1      29.287   1.478  19.080  1.00  0.00     0.150 C 
HETATM   29  N9  UNL     1      27.680  -0.292  19.343  1.00  0.00    -0.000 N 
HETATM   30  C14 UNL     1      29.622  -0.673  17.946  1.00  0.00     0.323 A 
HETATM   31  S2  UNL     1      29.510   0.773  20.758  1.00  0.00    -0.104 SA
HETATM   32  C13 UNL     1      28.212  -0.488  20.643  1.00  0.00     0.446 C 
ATOM     33  H92 UNL     1      26.821   0.257  19.382  1.00  0.00     0.284 HD
ATOM     34  H91 UNL     1      27.305  -1.164  18.970  1.00  0.00     0.284 HD
HETATM   35  O2  UNL     1      30.487  -1.276  18.660  1.00  0.00    -0.265 OA
HETATM   36  N10 UNL     1      29.443  -0.787  16.555  1.00  0.00    -0.002 N 
BRANCH  32  37
HETATM   37  N8  UNL     1      27.145  -0.176  21.610  1.00  0.00    -0.041 N 
ATOM     38  H83 UNL     1      26.798  -1.009  22.086  1.00  0.00     0.277 HD
ATOM     39  H82 UNL     1      27.497   0.321  22.429  1.00  0.00     0.277 HD
ATOM     40  H81 UNL     1      26.401   0.336  21.137  1.00  0.00     0.277 HD
ENDBRANCH  32  37
BRANCH  36  41
HETATM   41  O3  UNL     1      30.129  -1.552  15.656  1.00  0.00    -0.176 OA
BRANCH  41  42
HETATM   42  C15 UNL     1      31.270  -1.235  14.990  1.00  0.00     0.278 C 
HETATM   43  C16 UNL     1      31.523  -1.700  13.621  1.00  0.00     0.128 C 
HETATM   44  O4  UNL     1      32.126  -0.512  15.603  1.00  0.00    -0.264 OA
ENDBRANCH  41  42
ENDBRANCH  36  41
ENDBRANCH   1  24
TORSDOF 10
ENDMDL
MODEL 2
REMARK VINA RESULT: -8.935525010      2.947      5.119
REMARK  10 active torsions:
REMARK  status: ('A' for Active; 'I' for Inactive)
REMARK    1  A    between atoms: S1_2  and  C2_3 
REMARK    2  A    between atoms: C2_3  and  C3_4 
REMARK    3  A    between atoms: C3_4  and  C4_5 
REMARK    4  A    between atoms: N1_6  and  N2_8 
REMARK       I    between atoms: N2_8  and  C5_10 
REMARK    5  A    between atoms: C5_10  and  C6_12 
REMARK    6  A    between atoms: C9_19  and  N6_20 
REMARK    7  A    between atoms: N6_20  and  C10_22 
REMARK    8  A    between atoms: C13_28  and  N8_29 
REMARK    9  A    between atoms: N10_38  and  O3_39 
REMARK   10  A    between atoms: O3_39  and  C15_40 
ROOT
HETATM    1  N6  UNL     1      33.710   0.333  16.025  1.00  0.00    -0.182 N 
ATOM      2  H6  UNL     1      34.641   0.338  16.442  1.00  0.00     0.184 HD
ENDROOT
BRANCH   1   3
HETATM    3  C9  UNL     1      33.625   0.686  14.665  1.00  0.00     0.141 A 
HETATM    4  C8  UNL     1      34.346  -0.026  13.730  1.00  0.00     0.149 A 
HETATM    5  N4  UNL     1      34.314   0.376  12.428  1.00  0.00    -0.330 N 
HETATM    6  N5  UNL     1      35.124  -1.162  14.091  1.00  0.00    -0.080 NA
HETATM    7  C7  UNL     1      33.616   1.429  12.028  1.00  0.00     0.137 A 
ATOM      8  H4  UNL     1      34.847  -0.152  11.737  1.00  0.00     0.168 HD
HETATM    9  C6  UNL     1      32.856   2.206  12.921  1.00  0.00     0.127 A 
HETATM   10  N3  UNL     1      33.575   1.828  10.642  1.00  0.00    -0.081 NA
HETATM   11  C17 UNL     1      32.900   1.781  14.229  1.00  0.00     0.221 A 
HETATM   12  O5  UNL     1      32.252   2.401  15.119  1.00  0.00    -0.285 OA
BRANCH   9  13
HETATM   13  C5  UNL     1      32.213   3.398  12.417  1.00  0.00     0.277 C 
HETATM   14  N2  UNL     1      30.858   3.734  12.593  1.00  0.00    -0.266 N 
ATOM     15  H2  UNL     1      30.256   3.088  13.104  1.00  0.00     0.190 HD
HETATM   16  O1  UNL     1      32.895   4.242  11.745  1.00  0.00    -0.266 OA
BRANCH  14  17
HETATM   17  N1  UNL     1      30.308   4.901  12.105  1.00  0.00    -0.313 N 
HETATM   18  C4  UNL     1      29.161   5.180  11.759  1.00  0.00     0.081 C 
ATOM     19  H1  UNL     1      30.971   5.671  12.015  1.00  0.00     0.185 HD
BRANCH  18  20
HETATM   20  C3  UNL     1      27.928   4.377  11.738  1.00  0.00     0.056 C 
BRANCH  20  21
HETATM   21  C2  UNL     1      27.168   4.594  13.035  1.00  0.00     0.078 C 
BRANCH  21  22
HETATM   22  S1  UNL     1      26.519   2.992  13.570  1.00  0.00    -0.173 SA
HETATM   23  C1  UNL     1      27.669   1.635  13.331  1.00  0.00     0.089 C 
ENDBRANCH  21  22
ENDBRANCH  20  21
ENDBRANCH  18  20
ENDBRANCH  14  17
ENDBRANCH   9  13
ENDBRANCH   1   3
BRANCH   1  24
HETATM   24  C10 UNL     1      32.631  -0.030  16.880  1.00  0.00     0.711 A 
HETATM   25  N7  UNL     1      32.161   0.780  17.761  1.00  0.00    -0.179 N 
HETATM   26  C11 UNL     1      31.088   0.191  18.482  1.00  0.00     0.306 A 
ATOM     27  H7  UNL     1      32.513   1.723  17.922  1.00  0.00     0.181 HD
HETATM   28  C12 UNL     1      31.423   0.111  19.954  1.00  0.00     0.150 C 
HETATM   29  N9  UNL     1      29.926   0.989  18.288  1.00  0.00    -0.000 N 
HETATM   30  C14 UNL     1      30.964  -1.167  17.909  1.00  0.00     0.323 A 
HETATM   31  S2  UNL     1      29.715  -0.063  20.598  1.00  0.00    -0.104 SA
HETATM   32  C13 UNL     1      28.864   0.651  19.165  1.00  0.00     0.446 C 
ATOM     33  H92 UNL     1      30.152   1.982  18.357  1.00  0.00     0.284 HD
ATOM     34  H91 UNL     1      29.619   0.954  17.316  1.00  0.00     0.284 HD
HETATM   35  O2  UNL     1      30.128  -2.056  18.272  1.00  0.00    -0.265 OA
HETATM   36  N10 UNL     1      31.937  -1.282  16.900  1.00  0.00    -0.002 N 
BRANCH  32  37
HETATM   37  N8  UNL     1      28.206   1.908  19.567  1.00  0.00    -0.041 N 
ATOM     38  H83 UNL     1      27.982   1.926  20.562  1.00  0.00     0.277 HD
ATOM     39  H82 UNL     1      28.845   2.703  19.548  1.00  0.00     0.277 HD
ATOM     40  H81 UNL     1      27.383   2.059  18.983  1.00  0.00     0.277 HD
ENDBRANCH  32  37
BRANCH  36  41
HETATM   41  O3  UNL     1      32.215  -2.340  16.083  1.00  0.00    -0.176 OA
BRANCH  41  42
HETATM   42  C15 UNL     1      31.492  -2.787  15.022  1.00  0.00     0.278 C 
HETATM   43  C16 UNL     1      31.379  -2.013  13.780  1.00  0.00     0.128 C 
HETATM   44  O4  UNL     1      30.907  -3.915  15.144  1.00  0.00    -0.264 OA
ENDBRANCH  41  42
ENDBRANCH  36  41
ENDBRANCH   1  24
TORSDOF 10
ENDMDL
MODEL 3
REMARK VINA RESULT: -8.720628882      2.875      8.329
REMARK  10 active torsions:
REMARK  status: ('A' for Active; 'I' for Inactive)
REMARK    1  A    between atoms: S1_2  and  C2_3 
REMARK    2  A    between atoms: C2_3  and  C3_4 
REMARK    3  A    between atoms: C3_4  and  C4_5 
REMARK    4  A    between atoms: N1_6  and  N2_8 
REMARK       I    between atoms: N2_8  and  C5_10 
REMARK    5  A    between atoms: C5_10  and  C6_12 
REMARK    6  A    between atoms: C9_19  and  N6_20 
REMARK    7  A    between atoms: N6_20  and  C10_22 
REMARK    8  A    between atoms: C13_28  and  N8_29 
REMARK    9  A    between atoms: N10_38  and  O3_39 
REMARK   10  A    between atoms: O3_39  and  C15_40 
ROOT
HETATM    1  N6  UNL     1      32.924   1.540  13.734  1.00  0.00    -0.182 N 
ATOM      2  H6  UNL     1      33.848   1.798  14.083  1.00  0.00     0.184 HD
ENDROOT
BRANCH   1   3
HETATM    3  C9  UNL     1      32.394   0.320  14.195  1.00  0.00     0.141 A 
HETATM    4  C8  UNL     1      32.825  -0.865  13.637  1.00  0.00     0.149 A 
HETATM    5  N4  UNL     1      32.247  -2.032  14.039  1.00  0.00    -0.330 N 
HETATM    6  N5  UNL     1      33.852  -0.898  12.652  1.00  0.00    -0.080 NA
HETATM    7  C7  UNL     1      31.282  -2.068  14.947  1.00  0.00     0.137 A 
ATOM      8  H4  UNL     1      32.567  -2.908  13.627  1.00  0.00     0.168 HD
HETATM    9  C6  UNL     1      30.787  -0.903  15.561  1.00  0.00     0.127 A 
HETATM   10  N3  UNL     1      30.695  -3.314  15.379  1.00  0.00    -0.081 NA
HETATM   11  C17 UNL     1      31.387   0.262  15.143  1.00  0.00     0.221 A 
HETATM   12  O5  UNL     1      31.026   1.371  15.630  1.00  0.00    -0.285 OA
BRANCH   9  13
HETATM   13  C5  UNL     1      29.663  -1.027  16.460  1.00  0.00     0.277 C 
HETATM   14  N2  UNL     1      29.690  -1.636  17.728  1.00  0.00    -0.266 N 
ATOM     15  H2  UNL     1      30.565  -2.047  18.054  1.00  0.00     0.190 HD
HETATM   16  O1  UNL     1      28.527  -0.560  16.111  1.00  0.00    -0.266 OA
BRANCH  14  17
HETATM   17  N1  UNL     1      28.585  -1.702  18.550  1.00  0.00    -0.313 N 
HETATM   18  C4  UNL     1      28.396  -1.301  19.698  1.00  0.00     0.081 C 
ATOM     19  H1  UNL     1      27.779  -2.166  18.132  1.00  0.00     0.185 HD
BRANCH  18  20
HETATM   20  C3  UNL     1      29.277  -0.588  20.636  1.00  0.00     0.056 C 
BRANCH  20  21
HETATM   21  C2  UNL     1      29.187   0.904  20.371  1.00  0.00     0.078 C 
BRANCH  21  22
HETATM   22  S1  UNL     1      30.873   1.562  20.339  1.00  0.00    -0.173 SA
HETATM   23  C1  UNL     1      31.909   0.820  19.075  1.00  0.00     0.089 C 
ENDBRANCH  21  22
ENDBRANCH  20  21
ENDBRANCH  18  20
ENDBRANCH  14  17
ENDBRANCH   9  13
ENDBRANCH   1   3
BRANCH   1  24
HETATM   24  C10 UNL     1      32.305   2.452  12.833  1.00  0.00     0.711 A 
HETATM   25  N7  UNL     1      31.295   3.167  13.178  1.00  0.00    -0.179 N 
HETATM   26  C11 UNL     1      30.863   3.998  12.111  1.00  0.00     0.306 A 
ATOM     27  H7  UNL     1      30.860   3.141  14.100  1.00  0.00     0.181 HD
HETATM   28  C12 UNL     1      29.437   3.670  11.731  1.00  0.00     0.150 C 
HETATM   29  N9  UNL     1      30.956   5.354  12.532  1.00  0.00    -0.000 N 
HETATM   30  C14 UNL     1      31.780   3.670  10.997  1.00  0.00     0.323 A 
HETATM   31  S2  UNL     1      29.033   5.235  10.866  1.00  0.00    -0.104 SA
HETATM   32  C13 UNL     1      30.307   6.257  11.652  1.00  0.00     0.446 C 
ATOM     33  H92 UNL     1      30.609   5.463  13.485  1.00  0.00     0.284 HD
ATOM     34  H91 UNL     1      31.929   5.624  12.676  1.00  0.00     0.284 HD
HETATM   35  O2  UNL     1      31.745   4.176   9.829  1.00  0.00    -0.265 OA
HETATM   36  N10 UNL     1      32.682   2.702  11.475  1.00  0.00    -0.002 N 
BRANCH  32  37
HETATM   37  N8  UNL     1      29.659   7.292  12.479  1.00  0.00    -0.041 N 
ATOM     38  H83 UNL     1      29.364   6.932  13.387  1.00  0.00     0.277 HD
ATOM     39  H82 UNL     1      30.321   7.993  12.810  1.00  0.00     0.277 HD
ATOM     40  H81 UNL     1      28.886   7.705  11.957  1.00  0.00     0.277 HD
ENDBRANCH  32  37
BRANCH  36  41
HETATM   41  O3  UNL     1      33.715   2.088  10.826  1.00  0.00    -0.176 OA
BRANCH  41  42
HETATM   42  C15 UNL     1      35.047   2.310  10.982  1.00  0.00     0.278 C 
HETATM   43  C16 UNL     1      35.559   3.505  11.664  1.00  0.00     0.128 C 
HETATM   44  O4  UNL     1      35.847   1.434  10.509  1.00  0.00    -0.264 OA
ENDBRANCH  41  42
ENDBRANCH  36  41
ENDBRANCH   1  24
TORSDOF 10
ENDMDL
MODEL 4
REMARK VINA RESULT: -8.668006624      3.535      5.876
REMARK  10 active torsions:
REMARK  status: ('A' for Active; 'I' for Inactive)
REMARK    1  A    between atoms: S1_2  and  C2_3 
REMARK    2  A    between atoms: C2_3  and  C3_4 
REMARK    3  A    between atoms: C3_4  and  C4_5 
REMARK    4  A    between atoms: N1_6  and  N2_8 
REMARK       I    between atoms: N2_8  and  C5_10 
REMARK    5  A    between atoms: C5_10  and  C6_12 
REMARK    6  A    between atoms: C9_19  and  N6_20 
REMARK    7  A    between atoms: N6_20  and  C10_22 
REMARK    8  A    between atoms: C13_28  and  N8_29 
REMARK    9  A    between atoms: N10_38  and  O3_39 
REMARK   10  A    between atoms: O3_39  and  C15_40 
ROOT
HETATM    1  N6  UNL     1      33.933   0.327  15.984  1.00  0.00    -0.182 N 
ATOM      2  H6  UNL     1      34.699   0.777  16.485  1.00  0.00     0.184 HD
ENDROOT
BRANCH   1   3
HETATM    3  C9  UNL     1      33.766   0.685  14.632  1.00  0.00     0.141 A 
HETATM    4  C8  UNL     1      34.508   0.045  13.661  1.00  0.00     0.149 A 
HETATM    5  N4  UNL     1      34.392   0.455  12.367  1.00  0.00    -0.330 N 
HETATM    6  N5  UNL     1      35.391  -1.025  13.978  1.00  0.00    -0.080 NA
HETATM    7  C7  UNL     1      33.594   1.450  12.007  1.00  0.00     0.137 A 
ATOM      8  H4  UNL     1      34.940  -0.019  11.649  1.00  0.00     0.168 HD
HETATM    9  C6  UNL     1      32.807   2.152  12.939  1.00  0.00     0.127 A 
HETATM   10  N3  UNL     1      33.465   1.858  10.629  1.00  0.00    -0.081 NA
HETATM   11  C17 UNL     1      32.936   1.720  14.238  1.00  0.00     0.221 A 
HETATM   12  O5  UNL     1      32.274   2.275  15.160  1.00  0.00    -0.285 OA
BRANCH   9  13
HETATM   13  C5  UNL     1      32.047   3.290  12.474  1.00  0.00     0.277 C 
HETATM   14  N2  UNL     1      30.658   3.462  12.618  1.00  0.00    -0.266 N 
ATOM     15  H2  UNL     1      30.119   2.724  13.071  1.00  0.00     0.190 HD
HETATM   16  O1  UNL     1      32.648   4.242  11.873  1.00  0.00    -0.266 OA
BRANCH  14  17
HETATM   17  N1  UNL     1      29.993   4.585  12.172  1.00  0.00    -0.313 N 
HETATM   18  C4  UNL     1      28.806   4.783  11.914  1.00  0.00     0.081 C 
ATOM     19  H1  UNL     1      30.593   5.398  12.030  1.00  0.00     0.185 HD
BRANCH  18  20
HETATM   20  C3  UNL     1      27.634   3.897  11.989  1.00  0.00     0.056 C 
BRANCH  20  21
HETATM   21  C2  UNL     1      26.885   4.168  13.282  1.00  0.00     0.078 C 
BRANCH  21  22
HETATM   22  S1  UNL     1      26.387   2.573  13.976  1.00  0.00    -0.173 SA
HETATM   23  C1  UNL     1      24.610   2.326  14.008  1.00  0.00     0.089 C 
ENDBRANCH  21  22
ENDBRANCH  20  21
ENDBRANCH  18  20
ENDBRANCH  14  17
ENDBRANCH   9  13
ENDBRANCH   1   3
BRANCH   1  24
HETATM   24  C10 UNL     1      33.143  -0.598  16.724  1.00  0.00     0.711 A 
HETATM   25  N7  UNL     1      31.898  -0.387  16.965  1.00  0.00    -0.179 N 
HETATM   26  C11 UNL     1      31.330  -1.452  17.712  1.00  0.00     0.306 A 
ATOM     27  H7  UNL     1      31.385   0.440  16.659  1.00  0.00     0.181 HD
HETATM   28  C12 UNL     1      30.809  -0.947  19.038  1.00  0.00     0.150 C 
HETATM   29  N9  UNL     1      30.267  -2.016  16.952  1.00  0.00    -0.000 N 
HETATM   30  C14 UNL     1      32.454  -2.390  17.925  1.00  0.00     0.323 A 
HETATM   31  S2  UNL     1      29.659  -2.327  19.406  1.00  0.00    -0.104 SA
HETATM   32  C13 UNL     1      29.458  -2.909  17.701  1.00  0.00     0.446 C 
ATOM     33  H92 UNL     1      29.700  -1.285  16.524  1.00  0.00     0.284 HD
ATOM     34  H91 UNL     1      30.622  -2.468  16.110  1.00  0.00     0.284 HD
HETATM   35  O2  UNL     1      32.398  -3.488  18.567  1.00  0.00    -0.265 OA
HETATM   36  N10 UNL     1      33.581  -1.837  17.290  1.00  0.00    -0.002 N 
BRANCH  32  37
HETATM   37  N8  UNL     1      28.062  -2.702  17.277  1.00  0.00    -0.041 N 
ATOM     38  H83 UNL     1      27.395  -2.940  18.011  1.00  0.00     0.277 HD
ATOM     39  H82 UNL     1      27.828  -1.714  17.184  1.00  0.00     0.277 HD
ATOM     40  H81 UNL     1      27.890  -3.222  16.416  1.00  0.00     0.277 HD
ENDBRANCH  32  37
BRANCH  36  41
HETATM   41  O3  UNL     1      34.852  -2.328  17.204  1.00  0.00    -0.176 OA
BRANCH  41  42
HETATM   42  C15 UNL     1      35.968  -1.867  17.828  1.00  0.00     0.278 C 
HETATM   43  C16 UNL     1      36.526  -2.534  19.011  1.00  0.00     0.128 C 
HETATM   44  O4  UNL     1      36.521  -0.822  17.345  1.00  0.00    -0.264 OA
ENDBRANCH  41  42
ENDBRANCH  36  41
ENDBRANCH   1  24
TORSDOF 10
ENDMDL
MODEL 5
REMARK VINA RESULT: -8.597926770      3.624      7.142
REMARK  10 active torsions:
REMARK  status: ('A' for Active; 'I' for Inactive)
REMARK    1  A    between atoms: S1_2  and  C2_3 
REMARK    2  A    between atoms: C2_3  and  C3_4 
REMARK    3  A    between atoms: C3_4  and  C4_5 
REMARK    4  A    between atoms: N1_6  and  N2_8 
REMARK       I    between atoms: N2_8  and  C5_10 
REMARK    5  A    between atoms: C5_10  and  C6_12 
REMARK    6  A    between atoms: C9_19  and  N6_20 
REMARK    7  A    between atoms: N6_20  and  C10_22 
REMARK    8  A    between atoms: C13_28  and  N8_29 
REMARK    9  A    between atoms: N10_38  and  O3_39 
REMARK   10  A    between atoms: O3_39  and  C15_40 
ROOT
HETATM    1  N6  UNL     1      33.590   1.236  13.254  1.00  0.00    -0.182 N 
ATOM      2  H6  UNL     1      34.178   1.696  13.949  1.00  0.00     0.184 HD
ENDROOT
BRANCH   1   3
HETATM    3  C9  UNL     1      32.825   2.075  12.420  1.00  0.00     0.141 A 
HETATM    4  C8  UNL     1      33.368   2.544  11.243  1.00  0.00     0.149 A 
HETATM    5  N4  UNL     1      32.644   3.416  10.485  1.00  0.00    -0.330 N 
HETATM    6  N5  UNL     1      34.661   2.145  10.804  1.00  0.00    -0.080 NA
HETATM    7  C7  UNL     1      31.438   3.832  10.841  1.00  0.00     0.137 A 
ATOM      8  H4  UNL     1      33.046   3.761   9.614  1.00  0.00     0.168 HD
HETATM    9  C6  UNL     1      30.817   3.400  12.028  1.00  0.00     0.127 A 
HETATM   10  N3  UNL     1      30.675   4.738  10.017  1.00  0.00    -0.081 NA
HETATM   11  C17 UNL     1      31.562   2.518  12.775  1.00  0.00     0.221 A 
HETATM   12  O5  UNL     1      31.104   2.060  13.860  1.00  0.00    -0.285 OA
BRANCH   9  13
HETATM   13  C5  UNL     1      29.546   3.986  12.390  1.00  0.00     0.277 C 
HETATM   14  N2  UNL     1      28.375   3.273  12.704  1.00  0.00    -0.266 N 
ATOM     15  H2  UNL     1      28.397   2.254  12.664  1.00  0.00     0.190 HD
HETATM   16  O1  UNL     1      29.433   5.256  12.436  1.00  0.00    -0.266 OA
BRANCH  14  17
HETATM   17  N1  UNL     1      27.196   3.892  13.065  1.00  0.00    -0.313 N 
HETATM   18  C4  UNL     1      26.155   3.448  13.547  1.00  0.00     0.081 C 
ATOM     19  H1  UNL     1      27.186   4.899  12.903  1.00  0.00     0.185 HD
BRANCH  18  20
HETATM   20  C3  UNL     1      25.767   2.082  13.933  1.00  0.00     0.056 C 
BRANCH  20  21
HETATM   21  C2  UNL     1      26.258   1.803  15.342  1.00  0.00     0.078 C 
BRANCH  21  22
HETATM   22  S1  UNL     1      27.643   0.644  15.225  1.00  0.00    -0.173 SA
HETATM   23  C1  UNL     1      28.694   0.633  16.680  1.00  0.00     0.089 C 
ENDBRANCH  21  22
ENDBRANCH  20  21
ENDBRANCH  18  20
ENDBRANCH  14  17
ENDBRANCH   9  13
ENDBRANCH   1   3
BRANCH   1  24
HETATM   24  C10 UNL     1      33.627  -0.187  13.227  1.00  0.00     0.711 A 
HETATM   25  N7  UNL     1      33.604  -0.846  12.124  1.00  0.00    -0.179 N 
HETATM   26  C11 UNL     1      33.656  -2.245  12.359  1.00  0.00     0.306 A 
ATOM     27  H7  UNL     1      33.554  -0.419  11.199  1.00  0.00     0.181 HD
HETATM   28  C12 UNL     1      32.418  -2.919  11.812  1.00  0.00     0.150 C 
HETATM   29  N9  UNL     1      34.817  -2.764  11.719  1.00  0.00    -0.000 N 
HETATM   30  C14 UNL     1      33.701  -2.368  13.832  1.00  0.00     0.323 A 
HETATM   31  S2  UNL     1      33.078  -4.626  11.704  1.00  0.00    -0.104 SA
HETATM   32  C13 UNL     1      34.835  -4.181  11.660  1.00  0.00     0.446 C 
ATOM     33  H92 UNL     1      34.929  -2.361  10.788  1.00  0.00     0.284 HD
ATOM     34  H91 UNL     1      35.665  -2.408  12.160  1.00  0.00     0.284 HD
HETATM   35  O2  UNL     1      33.740  -3.459  14.489  1.00  0.00    -0.265 OA
HETATM   36  N10 UNL     1      33.689  -1.064  14.357  1.00  0.00    -0.002 N 
BRANCH  32  37
HETATM   37  N8  UNL     1      35.401  -4.562  10.352  1.00  0.00    -0.041 N 
ATOM     38  H83 UNL     1      36.057  -5.339  10.427  1.00  0.00     0.277 HD
ATOM     39  H82 UNL     1      34.712  -5.012   9.749  1.00  0.00     0.277 HD
ATOM     40  H81 UNL     1      35.820  -3.742   9.915  1.00  0.00     0.277 HD
ENDBRANCH  32  37
BRANCH  36  41
HETATM   41  O3  UNL     1      33.720  -0.656  15.660  1.00  0.00    -0.176 OA
BRANCH  41  42
HETATM   42  C15 UNL     1      32.667  -0.427  16.488  1.00  0.00     0.278 C 
HETATM   43  C16 UNL     1      31.749  -1.500  16.889  1.00  0.00     0.128 C 
HETATM   44  O4  UNL     1      32.500   0.767  16.909  1.00  0.00    -0.264 OA
ENDBRANCH  41  42
ENDBRANCH  36  41
ENDBRANCH   1  24
TORSDOF 10
ENDMDL
