MODEL 1
REMARK VINA RESULT: -9.467957418      0.000      0.000
REMARK  12 active torsions:
REMARK  status: ('A' for Active; 'I' for Inactive)
REMARK    1  A    between atoms: O1_2  and  N1_3 
REMARK    2  A    between atoms: C2_5  and  C3_6 
REMARK    3  A    between atoms: C2_5  and  N3_12 
REMARK    4  A    between atoms: C3_6  and  C4_7 
REMARK    5  A    between atoms: C4_7  and  N2_8 
REMARK    6  A    between atoms: C5_14  and  C6_15 
REMARK    7  A    between atoms: C6_15  and  S1_16 
REMARK    8  A    between atoms: S1_16  and  C7_17 
REMARK    9  A    between atoms: C8_20  and  N5_21 
REMARK   10  A    between atoms: C10_27  and  N7_28 
REMARK   11  A    between atoms: N7_28  and  C11_30 
REMARK   12  A    between atoms: C12_33  and  C13_34 
ROOT
HETATM    1  C7  UNL     1      28.196   3.312  12.791  1.00  0.00     0.147 A 
HETATM    2  N4  UNL     1      26.895   3.359  13.121  1.00  0.00    -0.321 N 
ATOM      3  H4  UNL     1      26.292   4.055  12.682  1.00  0.00     0.169 HD
HETATM    4  C8  UNL     1      26.375   2.509  14.018  1.00  0.00     0.132 A 
HETATM    5  C9  UNL     1      27.142   1.551  14.639  1.00  0.00     0.137 A 
HETATM    6  N6  UNL     1      26.946   0.582  15.547  1.00  0.00    -0.184 N 
ATOM      7  H6  UNL     1      26.063   0.351  16.002  1.00  0.00     0.184 HD
HETATM    8  C10 UNL     1      28.135  -0.032  15.746  1.00  0.00     0.699 A 
HETATM    9  N14 UNL     1      29.071   0.526  14.988  1.00  0.00    -0.173 N 
ATOM     10  H14 UNL     1      30.054   0.256  14.944  1.00  0.00     0.186 HD
HETATM   11  C18 UNL     1      28.484   1.512  14.290  1.00  0.00     0.154 A 
HETATM   12  N15 UNL     1      28.957   2.386  13.387  1.00  0.00    -0.320 N 
ATOM     13  H15 UNL     1      29.946   2.340  13.143  1.00  0.00     0.169 HD
ENDROOT
BRANCH   8  14
HETATM   14  N7  UNL     1      28.387  -1.119  16.627  1.00  0.00    -0.022 N 
ATOM     15  H7  UNL     1      28.282  -2.075  16.288  1.00  0.00     0.203 HD
BRANCH  14  16
HETATM   16  C11 UNL     1      28.745  -0.914  17.845  1.00  0.00     0.699 A 
HETATM   17  N8  UNL     1      29.693  -0.005  18.113  1.00  0.00    -0.177 N 
HETATM   18  C12 UNL     1      30.122   0.266  19.361  1.00  0.00     0.131 A 
ATOM     19  H8  UNL     1      30.108   0.506  17.334  1.00  0.00     0.185 HD
HETATM   20  N12 UNL     1      29.587  -0.398  20.405  1.00  0.00    -0.333 N 
HETATM   21  C16 UNL     1      28.623  -1.325  20.150  1.00  0.00     0.094 A 
ATOM     22  H12 UNL     1      29.895  -0.211  21.360  1.00  0.00     0.168 HD
HETATM   23  C17 UNL     1      28.005  -2.082  21.280  1.00  0.00     0.089 C 
HETATM   24  N13 UNL     1      28.215  -1.572  18.891  1.00  0.00    -0.180 N 
ATOM     25  H13 UNL     1      27.491  -2.271  18.727  1.00  0.00     0.185 HD
BRANCH  18  26
HETATM   26  C13 UNL     1      31.175   1.296  19.513  1.00  0.00     0.245 C 
HETATM   27  N9  UNL     1      31.104   1.977  20.791  1.00  0.00    -0.345 N 
HETATM   28  C14 UNL     1      32.445   2.194  21.204  1.00  0.00     0.191 C 
ATOM     29  H9  UNL     1      30.257   2.246  21.293  1.00  0.00     0.163 HD
HETATM   30  N10 UNL     1      32.840   3.066  22.281  1.00  0.00    -0.063 NA
HETATM   31  N11 UNL     1      33.248   1.504  20.483  1.00  0.00    -0.299 N 
HETATM   32  C15 UNL     1      32.535   0.755  19.513  1.00  0.00     0.254 C 
ATOM     33  H11 UNL     1      34.262   1.494  20.592  1.00  0.00     0.171 HD
HETATM   34  O2  UNL     1      33.017  -0.167  18.826  1.00  0.00    -0.270 OA
ENDBRANCH  18  26
ENDBRANCH  14  16
ENDBRANCH   8  14
BRANCH   4  35
HETATM   35  N5  UNL     1      25.129   2.581  14.309  1.00  0.00    -0.383 N 
ATOM     36  H52 UNL     1      24.502   3.057  13.660  1.00  0.00     0.157 HD
ATOM     37  H51 UNL     1      24.791   2.168  15.179  1.00  0.00     0.157 HD
ENDBRANCH   4  35
BRANCH   1  38
HETATM   38  S1  UNL     1      28.925   4.431  11.597  1.00  0.00    -0.089 SA
BRANCH  38  39
HETATM   39  C6  UNL     1      30.714   4.499  11.987  1.00  0.00     0.127 C 
BRANCH  39  40
HETATM   40  C5  UNL     1      31.410   4.052  10.730  1.00  0.00     0.073 C 
HETATM   41  N3  UNL     1      32.488   3.359  10.771  1.00  0.00    -0.357 N 
ATOM     42  H3  UNL     1      32.917   3.082   9.888  1.00  0.00     0.166 HD
BRANCH  41  43
HETATM   43  C2  UNL     1      33.118   2.954  11.976  1.00  0.00     0.102 C 
HETATM   44  N1  UNL     1      34.240   3.478  12.332  1.00  0.00    -0.255 N 
ATOM     45  H1  UNL     1      34.685   3.180  13.200  1.00  0.00     0.195 HD
BRANCH  44  46
HETATM   46  O1  UNL     1      34.843   4.434  11.553  1.00  0.00    -0.284 OA
HETATM   47  C1  UNL     1      36.247   4.569  11.580  1.00  0.00     0.237 C 
ENDBRANCH  44  46
BRANCH  43  48
HETATM   48  C3  UNL     1      32.471   1.924  12.816  1.00  0.00     0.105 C 
BRANCH  48  49
HETATM   49  C4  UNL     1      33.058   1.940  14.222  1.00  0.00     0.237 C 
BRANCH  49  50
HETATM   50  N2  UNL     1      32.106   2.607  15.092  1.00  0.00    -0.079 N 
ATOM     51  H23 UNL     1      32.498   3.426  15.555  1.00  0.00     0.274 HD
ATOM     52  H22 UNL     1      31.366   3.085  14.577  1.00  0.00     0.274 HD
ATOM     53  H21 UNL     1      31.748   1.914  15.749  1.00  0.00     0.274 HD
ENDBRANCH  49  50
ENDBRANCH  48  49
ENDBRANCH  43  48
ENDBRANCH  41  43
ENDBRANCH  39  40
ENDBRANCH  38  39
ENDBRANCH   1  38
TORSDOF 12
ENDMDL
MODEL 2
REMARK VINA RESULT: -9.351890333      4.259      7.577
REMARK  12 active torsions:
REMARK  status: ('A' for Active; 'I' for Inactive)
REMARK    1  A    between atoms: O1_2  and  N1_3 
REMARK    2  A    between atoms: C2_5  and  C3_6 
REMARK    3  A    between atoms: C2_5  and  N3_12 
REMARK    4  A    between atoms: C3_6  and  C4_7 
REMARK    5  A    between atoms: C4_7  and  N2_8 
REMARK    6  A    between atoms: C5_14  and  C6_15 
REMARK    7  A    between atoms: C6_15  and  S1_16 
REMARK    8  A    between atoms: S1_16  and  C7_17 
REMARK    9  A    between atoms: C8_20  and  N5_21 
REMARK   10  A    between atoms: C10_27  and  N7_28 
REMARK   11  A    between atoms: N7_28  and  C11_30 
REMARK   12  A    between atoms: C12_33  and  C13_34 
ROOT
HETATM    1  C7  UNL     1      30.218   5.614  11.810  1.00  0.00     0.147 A 
HETATM    2  N4  UNL     1      30.775   5.850  10.610  1.00  0.00    -0.321 N 
ATOM      3  H4  UNL     1      30.441   6.633  10.049  1.00  0.00     0.169 HD
HETATM    4  C8  UNL     1      31.761   5.074  10.138  1.00  0.00     0.132 A 
HETATM    5  C9  UNL     1      32.250   4.006  10.853  1.00  0.00     0.137 A 
HETATM    6  N6  UNL     1      33.191   3.065  10.680  1.00  0.00    -0.184 N 
ATOM      7  H6  UNL     1      33.800   2.962   9.868  1.00  0.00     0.184 HD
HETATM    8  C10 UNL     1      33.184   2.279  11.780  1.00  0.00     0.699 A 
HETATM    9  N14 UNL     1      32.263   2.701  12.639  1.00  0.00    -0.173 N 
ATOM     10  H14 UNL     1      32.049   2.288  13.547  1.00  0.00     0.186 HD
HETATM   11  C18 UNL     1      31.667   3.772  12.090  1.00  0.00     0.154 A 
HETATM   12  N15 UNL     1      30.682   4.577  12.519  1.00  0.00    -0.320 N 
ATOM     13  H15 UNL     1      30.267   4.389  13.431  1.00  0.00     0.169 HD
ENDROOT
BRANCH   8  14
HETATM   14  N7  UNL     1      34.022   1.157  12.022  1.00  0.00    -0.022 N 
ATOM     15  H7  UNL     1      34.935   1.106  11.570  1.00  0.00     0.203 HD
BRANCH  14  16
HETATM   16  C11 UNL     1      33.647   0.205  12.802  1.00  0.00     0.699 A 
HETATM   17  N8  UNL     1      33.026  -0.866  12.287  1.00  0.00    -0.177 N 
HETATM   18  C12 UNL     1      32.602  -1.902  13.037  1.00  0.00     0.131 A 
ATOM     19  H8  UNL     1      32.867  -0.897  11.280  1.00  0.00     0.185 HD
HETATM   20  N12 UNL     1      32.802  -1.883  14.370  1.00  0.00    -0.333 N 
HETATM   21  C16 UNL     1      33.432  -0.801  14.907  1.00  0.00     0.094 A 
ATOM     22  H12 UNL     1      32.491  -2.655  14.959  1.00  0.00     0.168 HD
HETATM   23  C17 UNL     1      33.672  -0.741  16.381  1.00  0.00     0.089 C 
HETATM   24  N13 UNL     1      33.843   0.218  14.131  1.00  0.00    -0.180 N 
ATOM     25  H13 UNL     1      34.313   1.016  14.560  1.00  0.00     0.185 HD
BRANCH  18  26
HETATM   26  C13 UNL     1      31.931  -3.022  12.338  1.00  0.00     0.245 C 
HETATM   27  N9  UNL     1      32.734  -3.562  11.258  1.00  0.00    -0.345 N 
HETATM   28  C14 UNL     1      32.531  -4.968  11.273  1.00  0.00     0.191 C 
ATOM     29  H9  UNL     1      33.327  -3.036  10.615  1.00  0.00     0.163 HD
HETATM   30  N10 UNL     1      32.926  -5.864  10.217  1.00  0.00    -0.063 NA
HETATM   31  N11 UNL     1      31.950  -5.320  12.359  1.00  0.00    -0.299 N 
HETATM   32  C15 UNL     1      31.700  -4.193  13.184  1.00  0.00     0.254 C 
ATOM     33  H11 UNL     1      31.701  -6.280  12.599  1.00  0.00     0.171 HD
HETATM   34  O2  UNL     1      31.357  -4.246  14.381  1.00  0.00    -0.270 OA
ENDBRANCH  18  26
ENDBRANCH  14  16
ENDBRANCH   8  14
BRANCH   4  35
HETATM   35  N5  UNL     1      32.270   5.329   8.989  1.00  0.00    -0.383 N 
ATOM     36  H52 UNL     1      31.727   5.881   8.325  1.00  0.00     0.157 HD
ATOM     37  H51 UNL     1      33.200   4.975   8.762  1.00  0.00     0.157 HD
ENDBRANCH   4  35
BRANCH   1  38
HETATM   38  S1  UNL     1      28.900   6.629  12.473  1.00  0.00    -0.089 SA
BRANCH  38  39
HETATM   39  C6  UNL     1      27.652   5.468  13.148  1.00  0.00     0.127 C 
BRANCH  39  40
HETATM   40  C5  UNL     1      27.162   4.682  11.961  1.00  0.00     0.073 C 
HETATM   41  N3  UNL     1      27.042   3.406  12.006  1.00  0.00    -0.357 N 
ATOM     42  H3  UNL     1      26.705   2.925  11.172  1.00  0.00     0.166 HD
BRANCH  41  43
HETATM   43  C2  UNL     1      27.352   2.626  13.149  1.00  0.00     0.102 C 
HETATM   44  N1  UNL     1      26.482   2.468  14.085  1.00  0.00    -0.255 N 
ATOM     45  H1  UNL     1      26.715   1.906  14.903  1.00  0.00     0.195 HD
BRANCH  44  46
HETATM   46  O1  UNL     1      25.242   3.050  13.992  1.00  0.00    -0.284 OA
HETATM   47  C1  UNL     1      24.092   2.234  13.962  1.00  0.00     0.237 C 
ENDBRANCH  44  46
BRANCH  43  48
HETATM   48  C3  UNL     1      28.687   1.998  13.251  1.00  0.00     0.105 C 
BRANCH  48  49
HETATM   49  C4  UNL     1      28.745   1.065  14.455  1.00  0.00     0.237 C 
BRANCH  49  50
HETATM   50  N2  UNL     1      29.969   0.291  14.355  1.00  0.00    -0.079 N 
ATOM     51  H23 UNL     1      29.883  -0.640  14.763  1.00  0.00     0.274 HD
ATOM     52  H22 UNL     1      30.178   0.001  13.400  1.00  0.00     0.274 HD
ATOM     53  H21 UNL     1      30.718   0.840  14.776  1.00  0.00     0.274 HD
ENDBRANCH  49  50
ENDBRANCH  48  49
ENDBRANCH  43  48
ENDBRANCH  41  43
ENDBRANCH  39  40
ENDBRANCH  38  39
ENDBRANCH   1  38
TORSDOF 12
ENDMDL
MODEL 3
REMARK VINA RESULT: -9.347856637      3.998      7.577
REMARK  12 active torsions:
REMARK  status: ('A' for Active; 'I' for Inactive)
REMARK    1  A    between atoms: O1_2  and  N1_3 
REMARK    2  A    between atoms: C2_5  and  C3_6 
REMARK    3  A    between atoms: C2_5  and  N3_12 
REMARK    4  A    between atoms: C3_6  and  C4_7 
REMARK    5  A    between atoms: C4_7  and  N2_8 
REMARK    6  A    between atoms: C5_14  and  C6_15 
REMARK    7  A    between atoms: C6_15  and  S1_16 
REMARK    8  A    between atoms: S1_16  and  C7_17 
REMARK    9  A    between atoms: C8_20  and  N5_21 
REMARK   10  A    between atoms: C10_27  and  N7_28 
REMARK   11  A    between atoms: N7_28  and  C11_30 
REMARK   12  A    between atoms: C12_33  and  C13_34 
ROOT
HETATM    1  C7  UNL     1      29.678   5.093  11.813  1.00  0.00     0.147 A 
HETATM    2  N4  UNL     1      30.280   5.506  10.685  1.00  0.00    -0.321 N 
ATOM      3  H4  UNL     1      29.805   6.176  10.081  1.00  0.00     0.169 HD
HETATM    4  C8  UNL     1      31.493   5.052  10.339  1.00  0.00     0.132 A 
HETATM    5  C9  UNL     1      32.179   4.148  11.117  1.00  0.00     0.137 A 
HETATM    6  N6  UNL     1      33.361   3.516  11.064  1.00  0.00    -0.184 N 
ATOM      7  H6  UNL     1      34.064   3.609  10.330  1.00  0.00     0.184 HD
HETATM    8  C10 UNL     1      33.450   2.734  12.164  1.00  0.00     0.699 A 
HETATM    9  N14 UNL     1      32.355   2.857  12.904  1.00  0.00    -0.173 N 
ATOM     10  H14 UNL     1      32.163   2.379  13.785  1.00  0.00     0.186 HD
HETATM   11  C18 UNL     1      31.547   3.729  12.279  1.00  0.00     0.154 A 
HETATM   12  N15 UNL     1      30.332   4.212  12.581  1.00  0.00    -0.320 N 
ATOM     13  H15 UNL     1      29.885   3.893  13.440  1.00  0.00     0.169 HD
ENDROOT
BRANCH   8  14
HETATM   14  N7  UNL     1      34.539   1.888  12.513  1.00  0.00    -0.022 N 
ATOM     15  H7  UNL     1      35.492   2.182  12.297  1.00  0.00     0.203 HD
BRANCH  14  16
HETATM   16  C11 UNL     1      34.341   0.760  13.097  1.00  0.00     0.699 A 
HETATM   17  N8  UNL     1      34.158  -0.344  12.359  1.00  0.00    -0.177 N 
HETATM   18  C12 UNL     1      33.943  -1.562  12.896  1.00  0.00     0.131 A 
ATOM     19  H8  UNL     1      34.181  -0.258  11.343  1.00  0.00     0.185 HD
HETATM   20  N12 UNL     1      33.908  -1.699  14.236  1.00  0.00    -0.333 N 
HETATM   21  C16 UNL     1      34.092  -0.586  15.000  1.00  0.00     0.094 A 
ATOM     22  H12 UNL     1      33.747  -2.610  14.667  1.00  0.00     0.168 HD
HETATM   23  C17 UNL     1      34.059  -0.697  16.490  1.00  0.00     0.089 C 
HETATM   24  N13 UNL     1      34.304   0.616  14.433  1.00  0.00    -0.180 N 
ATOM     25  H13 UNL     1      34.439   1.433  15.028  1.00  0.00     0.185 HD
BRANCH  18  26
HETATM   26  C13 UNL     1      33.758  -2.697  11.963  1.00  0.00     0.245 C 
HETATM   27  N9  UNL     1      34.979  -3.043  11.263  1.00  0.00    -0.345 N 
HETATM   28  C14 UNL     1      34.993  -4.460  11.162  1.00  0.00     0.191 C 
ATOM     29  H9  UNL     1      35.687  -2.398  10.912  1.00  0.00     0.163 HD
HETATM   30  N10 UNL     1      35.885  -5.212  10.316  1.00  0.00    -0.063 NA
HETATM   31  N11 UNL     1      34.103  -4.968  11.930  1.00  0.00    -0.299 N 
HETATM   32  C15 UNL     1      33.398  -3.951  12.624  1.00  0.00     0.254 C 
ATOM     33  H11 UNL     1      33.925  -5.968  12.030  1.00  0.00     0.171 HD
HETATM   34  O2  UNL     1      32.639  -4.143  13.594  1.00  0.00    -0.270 OA
ENDBRANCH  18  26
ENDBRANCH  14  16
ENDBRANCH   8  14
BRANCH   4  35
HETATM   35  N5  UNL     1      32.038   5.467   9.256  1.00  0.00    -0.383 N 
ATOM     36  H52 UNL     1      31.875   6.432   8.965  1.00  0.00     0.157 HD
ATOM     37  H51 UNL     1      32.618   4.831   8.708  1.00  0.00     0.157 HD
ENDBRANCH   4  35
BRANCH   1  38
HETATM   38  S1  UNL     1      28.059   5.678  12.307  1.00  0.00    -0.089 SA
BRANCH  38  39
HETATM   39  C6  UNL     1      27.286   4.307  13.247  1.00  0.00     0.127 C 
BRANCH  39  40
HETATM   40  C5  UNL     1      27.361   3.112  12.336  1.00  0.00     0.073 C 
HETATM   41  N3  UNL     1      27.454   1.920  12.799  1.00  0.00    -0.357 N 
ATOM     42  H3  UNL     1      27.500   1.147  12.136  1.00  0.00     0.166 HD
BRANCH  41  43
HETATM   43  C2  UNL     1      27.494   1.616  14.184  1.00  0.00     0.102 C 
HETATM   44  N1  UNL     1      28.615   1.339  14.757  1.00  0.00    -0.255 N 
ATOM     45  H1  UNL     1      28.633   1.122  15.754  1.00  0.00     0.195 HD
BRANCH  44  46
HETATM   46  O1  UNL     1      29.784   1.335  14.039  1.00  0.00    -0.284 OA
HETATM   47  C1  UNL     1      30.602   0.186  14.050  1.00  0.00     0.237 C 
ENDBRANCH  44  46
BRANCH  43  48
HETATM   48  C3  UNL     1      26.235   1.620  14.959  1.00  0.00     0.105 C 
BRANCH  48  49
HETATM   49  C4  UNL     1      25.034   1.570  14.021  1.00  0.00     0.237 C 
BRANCH  49  50
HETATM   50  N2  UNL     1      24.176   2.696  14.343  1.00  0.00    -0.079 N 
ATOM     51  H23 UNL     1      24.675   3.455  14.806  1.00  0.00     0.274 HD
ATOM     52  H22 UNL     1      23.875   3.215  13.518  1.00  0.00     0.274 HD
ATOM     53  H21 UNL     1      23.394   2.342  14.895  1.00  0.00     0.274 HD
ENDBRANCH  49  50
ENDBRANCH  48  49
ENDBRANCH  43  48
ENDBRANCH  41  43
ENDBRANCH  39  40
ENDBRANCH  38  39
ENDBRANCH   1  38
TORSDOF 12
ENDMDL
MODEL 4
REMARK VINA RESULT: -9.224154122      1.178      1.544
REMARK  12 active torsions:
REMARK  status: ('A' for Active; 'I' for Inactive)
REMARK    1  A    between atoms: O1_2  and  N1_3 
REMARK    2  A    between atoms: C2_5  and  C3_6 
REMARK    3  A    between atoms: C2_5  and  N3_12 
REMARK    4  A    between atoms: C3_6  and  C4_7 
REMARK    5  A    between atoms: C4_7  and  N2_8 
REMARK    6  A    between atoms: C5_14  and  C6_15 
REMARK    7  A    between atoms: C6_15  and  S1_16 
REMARK    8  A    between atoms: S1_16  and  C7_17 
REMARK    9  A    between atoms: C8_20  and  N5_21 
REMARK   10  A    between atoms: C10_27  and  N7_28 
REMARK   11  A    between atoms: N7_28  and  C11_30 
REMARK   12  A    between atoms: C12_33  and  C13_34 
ROOT
HETATM    1  C7  UNL     1      28.352   3.352  12.661  1.00  0.00     0.147 A 
HETATM    2  N4  UNL     1      27.042   3.411  12.954  1.00  0.00    -0.321 N 
ATOM      3  H4  UNL     1      26.443   4.060  12.445  1.00  0.00     0.169 HD
HETATM    4  C8  UNL     1      26.509   2.631  13.905  1.00  0.00     0.132 A 
HETATM    5  C9  UNL     1      27.269   1.737  14.622  1.00  0.00     0.137 A 
HETATM    6  N6  UNL     1      27.060   0.844  15.602  1.00  0.00    -0.184 N 
ATOM      7  H6  UNL     1      26.168   0.641  16.054  1.00  0.00     0.184 HD
HETATM    8  C10 UNL     1      28.249   0.263  15.881  1.00  0.00     0.699 A 
HETATM    9  N14 UNL     1      29.199   0.768  15.102  1.00  0.00    -0.173 N 
ATOM     10  H14 UNL     1      30.185   0.507  15.105  1.00  0.00     0.186 HD
HETATM   11  C18 UNL     1      28.620   1.686  14.310  1.00  0.00     0.154 A 
HETATM   12  N15 UNL     1      29.107   2.487  13.350  1.00  0.00    -0.320 N 
ATOM     13  H15 UNL     1      30.102   2.434  13.135  1.00  0.00     0.169 HD
ENDROOT
BRANCH   8  14
HETATM   14  N7  UNL     1      28.490  -0.744  16.855  1.00  0.00    -0.022 N 
ATOM     15  H7  UNL     1      28.444  -1.726  16.584  1.00  0.00     0.203 HD
BRANCH  14  16
HETATM   16  C11 UNL     1      28.764  -0.435  18.073  1.00  0.00     0.699 A 
HETATM   17  N8  UNL     1      30.037  -0.466  18.492  1.00  0.00    -0.177 N 
HETATM   18  C12 UNL     1      30.405  -0.157  19.752  1.00  0.00     0.131 A 
ATOM     19  H8  UNL     1      30.761  -0.735  17.827  1.00  0.00     0.185 HD
HETATM   20  N12 UNL     1      29.465   0.202  20.649  1.00  0.00    -0.333 N 
HETATM   21  C16 UNL     1      28.167   0.238  20.237  1.00  0.00     0.094 A 
ATOM     22  H12 UNL     1      29.718   0.440  21.608  1.00  0.00     0.168 HD
HETATM   23  C17 UNL     1      27.095   0.630  21.202  1.00  0.00     0.089 C 
HETATM   24  N13 UNL     1      27.832  -0.076  18.972  1.00  0.00    -0.180 N 
ATOM     25  H13 UNL     1      26.852  -0.041  18.690  1.00  0.00     0.185 HD
BRANCH  18  26
HETATM   26  C13 UNL     1      31.847  -0.232  20.080  1.00  0.00     0.245 C 
HETATM   27  N9  UNL     1      32.662  -0.557  18.926  1.00  0.00    -0.345 N 
HETATM   28  C14 UNL     1      33.852   0.209  19.049  1.00  0.00     0.191 C 
ATOM     29  H9  UNL     1      32.427  -1.206  18.175  1.00  0.00     0.163 HD
HETATM   30  N10 UNL     1      35.044   0.002  18.266  1.00  0.00    -0.063 NA
HETATM   31  N11 UNL     1      33.710   1.107  19.952  1.00  0.00    -0.299 N 
HETATM   32  C15 UNL     1      32.417   1.038  20.530  1.00  0.00     0.254 C 
ATOM     33  H11 UNL     1      34.429   1.779  20.219  1.00  0.00     0.171 HD
HETATM   34  O2  UNL     1      31.915   1.912  21.264  1.00  0.00    -0.270 OA
ENDBRANCH  18  26
ENDBRANCH  14  16
ENDBRANCH   8  14
BRANCH   4  35
HETATM   35  N5  UNL     1      25.255   2.712  14.159  1.00  0.00    -0.383 N 
ATOM     36  H52 UNL     1      24.670   1.891  14.003  1.00  0.00     0.157 HD
ATOM     37  H51 UNL     1      24.868   3.590  14.508  1.00  0.00     0.157 HD
ENDBRANCH   4  35
BRANCH   1  38
HETATM   38  S1  UNL     1      29.099   4.377  11.396  1.00  0.00    -0.089 SA
BRANCH  38  39
HETATM   39  C6  UNL     1      30.880   4.489  11.817  1.00  0.00     0.127 C 
BRANCH  39  40
HETATM   40  C5  UNL     1      31.607   4.007  10.590  1.00  0.00     0.073 C 
HETATM   41  N3  UNL     1      32.699   3.341  10.677  1.00  0.00    -0.357 N 
ATOM     42  H3  UNL     1      33.149   3.038   9.813  1.00  0.00     0.166 HD
BRANCH  41  43
HETATM   43  C2  UNL     1      33.318   3.001  11.907  1.00  0.00     0.102 C 
HETATM   44  N1  UNL     1      34.424   3.563  12.257  1.00  0.00    -0.255 N 
ATOM     45  H1  UNL     1      34.860   3.312  13.144  1.00  0.00     0.195 HD
BRANCH  44  46
HETATM   46  O1  UNL     1      35.019   4.498  11.447  1.00  0.00    -0.284 OA
HETATM   47  C1  UNL     1      36.424   4.621  11.445  1.00  0.00     0.237 C 
ENDBRANCH  44  46
BRANCH  43  48
HETATM   48  C3  UNL     1      32.678   1.995  12.781  1.00  0.00     0.105 C 
BRANCH  48  49
HETATM   49  C4  UNL     1      33.265   2.061  14.187  1.00  0.00     0.237 C 
BRANCH  49  50
HETATM   50  N2  UNL     1      32.225   2.544  15.077  1.00  0.00    -0.079 N 
ATOM     51  H23 UNL     1      31.455   2.992  14.581  1.00  0.00     0.274 HD
ATOM     52  H22 UNL     1      31.688   1.790  15.506  1.00  0.00     0.274 HD
ATOM     53  H21 UNL     1      32.665   3.158  15.763  1.00  0.00     0.274 HD
ENDBRANCH  49  50
ENDBRANCH  48  49
ENDBRANCH  43  48
ENDBRANCH  41  43
ENDBRANCH  39  40
ENDBRANCH  38  39
ENDBRANCH   1  38
TORSDOF 12
ENDMDL
MODEL 5
REMARK VINA RESULT: -9.168627361      1.469      1.881
REMARK  12 active torsions:
REMARK  status: ('A' for Active; 'I' for Inactive)
REMARK    1  A    between atoms: O1_2  and  N1_3 
REMARK    2  A    between atoms: C2_5  and  C3_6 
REMARK    3  A    between atoms: C2_5  and  N3_12 
REMARK    4  A    between atoms: C3_6  and  C4_7 
REMARK    5  A    between atoms: C4_7  and  N2_8 
REMARK    6  A    between atoms: C5_14  and  C6_15 
REMARK    7  A    between atoms: C6_15  and  S1_16 
REMARK    8  A    between atoms: S1_16  and  C7_17 
REMARK    9  A    between atoms: C8_20  and  N5_21 
REMARK   10  A    between atoms: C10_27  and  N7_28 
REMARK   11  A    between atoms: N7_28  and  C11_30 
REMARK   12  A    between atoms: C12_33  and  C13_34 
ROOT
HETATM    1  C7  UNL     1      28.377   3.422  12.584  1.00  0.00     0.147 A 
HETATM    2  N4  UNL     1      27.068   3.499  12.882  1.00  0.00    -0.321 N 
ATOM      3  H4  UNL     1      26.483   4.178  12.396  1.00  0.00     0.169 HD
HETATM    4  C8  UNL     1      26.519   2.697  13.805  1.00  0.00     0.132 A 
HETATM    5  C9  UNL     1      27.261   1.762  14.489  1.00  0.00     0.137 A 
HETATM    6  N6  UNL     1      27.032   0.839  15.436  1.00  0.00    -0.184 N 
ATOM      7  H6  UNL     1      26.136   0.639  15.882  1.00  0.00     0.184 HD
HETATM    8  C10 UNL     1      28.209   0.223  15.692  1.00  0.00     0.699 A 
HETATM    9  N14 UNL     1      29.169   0.735  14.931  1.00  0.00    -0.173 N 
ATOM     10  H14 UNL     1      30.149   0.453  14.922  1.00  0.00     0.186 HD
HETATM   11  C18 UNL     1      28.610   1.693  14.173  1.00  0.00     0.154 A 
HETATM   12  N15 UNL     1      29.113   2.517  13.241  1.00  0.00    -0.320 N 
ATOM     13  H15 UNL     1      30.107   2.450  13.023  1.00  0.00     0.169 HD
ENDROOT
BRANCH   8  14
HETATM   14  N7  UNL     1      28.429  -0.823  16.629  1.00  0.00    -0.022 N 
ATOM     15  H7  UNL     1      28.287  -1.791  16.343  1.00  0.00     0.203 HD
BRANCH  14  16
HETATM   16  C11 UNL     1      28.803  -0.566  17.832  1.00  0.00     0.699 A 
HETATM   17  N8  UNL     1      30.100  -0.668  18.158  1.00  0.00    -0.177 N 
HETATM   18  C12 UNL     1      30.570  -0.418  19.396  1.00  0.00     0.131 A 
ATOM     19  H8  UNL     1      30.761  -0.949  17.434  1.00  0.00     0.185 HD
HETATM   20  N12 UNL     1      29.714  -0.046  20.368  1.00  0.00    -0.333 N 
HETATM   21  C16 UNL     1      28.394   0.062  20.053  1.00  0.00     0.094 A 
ATOM     22  H12 UNL     1      30.046   0.149  21.313  1.00  0.00     0.168 HD
HETATM   23  C17 UNL     1      27.413   0.472  21.103  1.00  0.00     0.089 C 
HETATM   24  N13 UNL     1      27.955  -0.195  18.807  1.00  0.00    -0.180 N 
ATOM     25  H13 UNL     1      26.961  -0.106  18.598  1.00  0.00     0.185 HD
BRANCH  18  26
HETATM   26  C13 UNL     1      32.027  -0.569  19.617  1.00  0.00     0.245 C 
HETATM   27  N9  UNL     1      32.393  -1.920  19.992  1.00  0.00    -0.345 N 
HETATM   28  C14 UNL     1      33.630  -2.193  19.348  1.00  0.00     0.191 C 
ATOM     29  H9  UNL     1      31.868  -2.550  20.599  1.00  0.00     0.163 HD
HETATM   30  N10 UNL     1      34.482  -3.314  19.652  1.00  0.00    -0.063 NA
HETATM   31  N11 UNL     1      33.874  -1.301  18.462  1.00  0.00    -0.299 N 
HETATM   32  C15 UNL     1      32.833  -0.338  18.418  1.00  0.00     0.254 C 
ATOM     33  H11 UNL     1      34.703  -1.285  17.868  1.00  0.00     0.171 HD
HETATM   34  O2  UNL     1      32.682   0.510  17.517  1.00  0.00    -0.270 OA
ENDBRANCH  18  26
ENDBRANCH  14  16
ENDBRANCH   8  14
BRANCH   4  35
HETATM   35  N5  UNL     1      25.267   2.796  14.064  1.00  0.00    -0.383 N 
ATOM     36  H52 UNL     1      24.699   3.426  13.496  1.00  0.00     0.157 HD
ATOM     37  H51 UNL     1      24.867   2.250  14.827  1.00  0.00     0.157 HD
ENDBRANCH   4  35
BRANCH   1  38
HETATM   38  S1  UNL     1      29.145   4.476  11.356  1.00  0.00    -0.089 SA
BRANCH  38  39
HETATM   39  C6  UNL     1      30.922   4.563  11.798  1.00  0.00     0.127 C 
BRANCH  39  40
HETATM   40  C5  UNL     1      31.657   4.087  10.575  1.00  0.00     0.073 C 
HETATM   41  N3  UNL     1      32.747   3.418  10.665  1.00  0.00    -0.357 N 
ATOM     42  H3  UNL     1      33.203   3.120   9.803  1.00  0.00     0.166 HD
BRANCH  41  43
HETATM   43  C2  UNL     1      33.355   3.068  11.898  1.00  0.00     0.102 C 
HETATM   44  N1  UNL     1      34.458   3.627  12.262  1.00  0.00    -0.255 N 
ATOM     45  H1  UNL     1      34.887   3.368  13.151  1.00  0.00     0.195 HD
BRANCH  44  46
HETATM   46  O1  UNL     1      35.060   4.568  11.465  1.00  0.00    -0.284 OA
HETATM   47  C1  UNL     1      36.467   4.604  11.376  1.00  0.00     0.237 C 
ENDBRANCH  44  46
BRANCH  43  48
HETATM   48  C3  UNL     1      32.707   2.054  12.758  1.00  0.00     0.105 C 
BRANCH  48  49
HETATM   49  C4  UNL     1      33.282   2.109  14.169  1.00  0.00     0.237 C 
BRANCH  49  50
HETATM   50  N2  UNL     1      32.209   2.492  15.068  1.00  0.00    -0.079 N 
ATOM     51  H23 UNL     1      32.316   2.100  16.003  1.00  0.00     0.274 HD
ATOM     52  H22 UNL     1      32.244   3.478  15.331  1.00  0.00     0.274 HD
ATOM     53  H21 UNL     1      31.327   2.231  14.627  1.00  0.00     0.274 HD
ENDBRANCH  49  50
ENDBRANCH  48  49
ENDBRANCH  43  48
ENDBRANCH  41  43
ENDBRANCH  39  40
ENDBRANCH  38  39
ENDBRANCH   1  38
TORSDOF 12
ENDMDL
