MODEL 1
REMARK VINA RESULT: -6.153143314      0.000      0.000
REMARK  5 active torsions:
REMARK  status: ('A' for Active; 'I' for Inactive)
REMARK    1  A    between atoms: N1_2  and  C2_4 
REMARK    2  A    between atoms: C3_7  and  N3_8 
REMARK    3  A    between atoms: C6_13  and  N5_14 
REMARK    4  A    between atoms: N5_14  and  N6_16 
REMARK       I    between atoms: N6_16  and  C7_18 
REMARK       I    between atoms: C7_18  and  N8_22 
REMARK    5  A    between atoms: N8_22  and  N9_24 
ROOT
HETATM    1  C2  UNL     1      16.648   2.705  15.516  1.00  0.00     0.706 A 
HETATM    2  N2  UNL     1      17.077   2.048  14.425  1.00  0.00    -0.021 N 
ATOM      3  H2  UNL     1      17.163   1.032  14.467  1.00  0.00     0.203 HD
HETATM    4  C3  UNL     1      17.399   2.681  13.275  1.00  0.00     0.708 A 
HETATM    5  N4  UNL     1      17.285   4.018  13.223  1.00  0.00    -0.020 N 
ATOM      6  H4  UNL     1      17.520   4.526  12.370  1.00  0.00     0.203 HD
HETATM    7  C6  UNL     1      16.860   4.672  14.308  1.00  0.00     0.726 A 
HETATM    8  N10 UNL     1      16.539   4.044  15.451  1.00  0.00    -0.020 N 
ATOM      9  H10 UNL     1      16.217   4.576  16.259  1.00  0.00     0.203 HD
ENDROOT
BRANCH   7  10
HETATM   10  N5  UNL     1      16.757   5.953  14.238  1.00  0.00    -0.117 N 
ATOM     11  H5  UNL     1      16.023   6.346  13.650  1.00  0.00     0.206 HD
BRANCH  10  12
HETATM   12  N6  UNL     1      17.593   6.830  14.920  1.00  0.00    -0.117 N 
HETATM   13  C7  UNL     1      18.801   7.222  14.287  1.00  0.00     0.705 C 
HETATM   14  N7  UNL     1      18.882   8.337  13.671  1.00  0.00    -0.232 N 
HETATM   15  N8  UNL     1      19.900   6.321  14.372  1.00  0.00    -0.138 N 
ATOM     16  H72 UNL     1      18.095   8.983  13.610  1.00  0.00     0.174 HD
ATOM     17  H71 UNL     1      19.750   8.619  13.216  1.00  0.00     0.174 HD
ATOM     18  H8  UNL     1      20.517   6.151  13.578  1.00  0.00     0.205 HD
ATOM     19  H6  UNL     1      17.346   7.180  15.845  1.00  0.00     0.206 HD
BRANCH  15  20
HETATM   20  N9  UNL     1      20.091   5.678  15.605  1.00  0.00    -0.331 N 
ATOM     21  H92 UNL     1      19.467   5.860  16.391  1.00  0.00     0.177 HD
ATOM     22  H91 UNL     1      20.877   5.031  15.666  1.00  0.00     0.177 HD
ENDBRANCH  15  20
ENDBRANCH  10  12
ENDBRANCH   7  10
BRANCH   4  23
HETATM   23  N3  UNL     1      17.848   1.933  12.149  1.00  0.00    -0.225 N 
HETATM   24  C4  UNL     1      17.292   0.635  11.877  1.00  0.00     0.168 C 
HETATM   25  C5  UNL     1      18.870   2.508  11.293  1.00  0.00     0.168 C 
ENDBRANCH   4  23
BRANCH   1  26
HETATM   26  N1  UNL     1      16.339   2.103  16.617  1.00  0.00    -0.229 N 
HETATM   27  C1  UNL     1      15.464   2.642  17.608  1.00  0.00     0.165 C 
ATOM     28  H1  UNL     1      16.747   1.185  16.789  1.00  0.00     0.177 HD
ENDBRANCH   1  26
TORSDOF 5
ENDMDL
MODEL 2
REMARK VINA RESULT: -6.117447911      1.211      1.420
REMARK  5 active torsions:
REMARK  status: ('A' for Active; 'I' for Inactive)
REMARK    1  A    between atoms: N1_2  and  C2_4 
REMARK    2  A    between atoms: C3_7  and  N3_8 
REMARK    3  A    between atoms: C6_13  and  N5_14 
REMARK    4  A    between atoms: N5_14  and  N6_16 
REMARK       I    between atoms: N6_16  and  C7_18 
REMARK       I    between atoms: C7_18  and  N8_22 
REMARK    5  A    between atoms: N8_22  and  N9_24 
ROOT
HETATM    1  C2  UNL     1      16.788   2.637  15.793  1.00  0.00     0.706 A 
HETATM    2  N2  UNL     1      16.705   2.092  14.568  1.00  0.00    -0.021 N 
ATOM      3  H2  UNL     1      16.324   1.149  14.475  1.00  0.00     0.203 HD
HETATM    4  C3  UNL     1      17.104   2.744  13.453  1.00  0.00     0.708 A 
HETATM    5  N4  UNL     1      17.605   3.984  13.579  1.00  0.00    -0.020 N 
ATOM      6  H4  UNL     1      17.916   4.503  12.758  1.00  0.00     0.203 HD
HETATM    7  C6  UNL     1      17.689   4.526  14.798  1.00  0.00     0.726 A 
HETATM    8  N10 UNL     1      17.291   3.879  15.905  1.00  0.00    -0.020 N 
ATOM      9  H10 UNL     1      17.369   4.324  16.819  1.00  0.00     0.203 HD
ENDROOT
BRANCH   7  10
HETATM   10  N5  UNL     1      18.170   5.715  14.896  1.00  0.00    -0.117 N 
ATOM     11  H5  UNL     1      17.522   6.487  15.048  1.00  0.00     0.206 HD
BRANCH  10  12
HETATM   12  N6  UNL     1      19.527   6.005  14.808  1.00  0.00    -0.117 N 
HETATM   13  C7  UNL     1      19.971   6.764  13.693  1.00  0.00     0.705 C 
HETATM   14  N7  UNL     1      20.170   8.020  13.798  1.00  0.00    -0.232 N 
HETATM   15  N8  UNL     1      20.179   6.061  12.472  1.00  0.00    -0.138 N 
ATOM     16  H72 UNL     1      20.022   8.524  14.673  1.00  0.00     0.174 HD
ATOM     17  H71 UNL     1      20.489   8.565  12.998  1.00  0.00     0.174 HD
ATOM     18  H8  UNL     1      19.906   6.458  11.573  1.00  0.00     0.205 HD
ATOM     19  H6  UNL     1      20.182   5.684  15.520  1.00  0.00     0.206 HD
BRANCH  15  20
HETATM   20  N9  UNL     1      20.778   4.796  12.570  1.00  0.00    -0.331 N 
ATOM     21  H92 UNL     1      21.634   4.664  13.108  1.00  0.00     0.177 HD
ATOM     22  H91 UNL     1      20.313   4.032  12.079  1.00  0.00     0.177 HD
ENDBRANCH  15  20
ENDBRANCH  10  12
ENDBRANCH   7  10
BRANCH   4  23
HETATM   23  N3  UNL     1      16.993   2.117  12.180  1.00  0.00    -0.225 N 
HETATM   24  C4  UNL     1      17.432   0.759  12.003  1.00  0.00     0.168 C 
HETATM   25  C5  UNL     1      16.431   2.875  11.076  1.00  0.00     0.168 C 
ENDBRANCH   4  23
BRANCH   1  26
HETATM   26  N1  UNL     1      16.406   2.016  16.860  1.00  0.00    -0.229 N 
HETATM   27  C1  UNL     1      15.416   2.508  17.764  1.00  0.00     0.165 C 
ATOM     28  H1  UNL     1      16.840   1.118  17.071  1.00  0.00     0.177 HD
ENDBRANCH   1  26
TORSDOF 5
ENDMDL
MODEL 3
REMARK VINA RESULT: -5.942407911      2.253      4.590
REMARK  5 active torsions:
REMARK  status: ('A' for Active; 'I' for Inactive)
REMARK    1  A    between atoms: N1_2  and  C2_4 
REMARK    2  A    between atoms: C3_7  and  N3_8 
REMARK    3  A    between atoms: C6_13  and  N5_14 
REMARK    4  A    between atoms: N5_14  and  N6_16 
REMARK       I    between atoms: N6_16  and  C7_18 
REMARK       I    between atoms: C7_18  and  N8_22 
REMARK    5  A    between atoms: N8_22  and  N9_24 
ROOT
HETATM    1  C2  UNL     1      17.806   1.769  11.619  1.00  0.00     0.706 A 
HETATM    2  N2  UNL     1      18.790   2.499  11.067  1.00  0.00    -0.021 N 
ATOM      3  H2  UNL     1      19.349   2.084  10.322  1.00  0.00     0.203 HD
HETATM    4  C3  UNL     1      19.066   3.763  11.460  1.00  0.00     0.708 A 
HETATM    5  N4  UNL     1      18.327   4.307  12.442  1.00  0.00    -0.020 N 
ATOM      6  H4  UNL     1      18.510   5.258  12.762  1.00  0.00     0.203 HD
HETATM    7  C6  UNL     1      17.349   3.580  12.991  1.00  0.00     0.726 A 
HETATM    8  N10 UNL     1      17.074   2.326  12.600  1.00  0.00    -0.020 N 
ATOM      9  H10 UNL     1      16.319   1.802  13.042  1.00  0.00     0.203 HD
ENDROOT
BRANCH   7  10
HETATM   10  N5  UNL     1      16.653   4.120  13.929  1.00  0.00    -0.117 N 
ATOM     11  H5  UNL     1      15.799   4.615  13.672  1.00  0.00     0.206 HD
BRANCH  10  12
HETATM   12  N6  UNL     1      17.000   4.065  15.274  1.00  0.00    -0.117 N 
HETATM   13  C7  UNL     1      16.551   2.950  16.030  1.00  0.00     0.705 C 
HETATM   14  N7  UNL     1      17.325   1.961  16.255  1.00  0.00    -0.232 N 
HETATM   15  N8  UNL     1      15.213   2.994  16.516  1.00  0.00    -0.138 N 
ATOM     16  H72 UNL     1      18.283   1.929  15.907  1.00  0.00     0.174 HD
ATOM     17  H71 UNL     1      17.002   1.160  16.798  1.00  0.00     0.174 HD
ATOM     18  H8  UNL     1      14.613   2.170  16.507  1.00  0.00     0.205 HD
ATOM     19  H6  UNL     1      17.561   4.801  15.704  1.00  0.00     0.206 HD
BRANCH  15  20
HETATM   20  N9  UNL     1      14.764   4.229  17.008  1.00  0.00    -0.331 N 
ATOM     21  H92 UNL     1      14.368   4.929  16.379  1.00  0.00     0.177 HD
ATOM     22  H91 UNL     1      14.854   4.381  18.012  1.00  0.00     0.177 HD
ENDBRANCH  15  20
ENDBRANCH  10  12
ENDBRANCH   7  10
BRANCH   4  23
HETATM   23  N3  UNL     1      20.122   4.490  10.840  1.00  0.00    -0.225 N 
HETATM   24  C4  UNL     1      20.231   4.520   9.406  1.00  0.00     0.168 C 
HETATM   25  C5  UNL     1      21.073   5.192  11.682  1.00  0.00     0.168 C 
ENDBRANCH   4  23
BRANCH   1  26
HETATM   26  N1  UNL     1      17.538   0.562  11.245  1.00  0.00    -0.229 N 
HETATM   27  C1  UNL     1      18.409  -0.552  11.444  1.00  0.00     0.165 C 
ATOM     28  H1  UNL     1      16.648   0.393  10.776  1.00  0.00     0.177 HD
ENDBRANCH   1  26
TORSDOF 5
ENDMDL
MODEL 4
REMARK VINA RESULT: -5.912662318      1.613      4.527
REMARK  5 active torsions:
REMARK  status: ('A' for Active; 'I' for Inactive)
REMARK    1  A    between atoms: N1_2  and  C2_4 
REMARK    2  A    between atoms: C3_7  and  N3_8 
REMARK    3  A    between atoms: C6_13  and  N5_14 
REMARK    4  A    between atoms: N5_14  and  N6_16 
REMARK       I    between atoms: N6_16  and  C7_18 
REMARK       I    between atoms: C7_18  and  N8_22 
REMARK    5  A    between atoms: N8_22  and  N9_24 
ROOT
HETATM    1  C2  UNL     1      17.381   4.893  14.865  1.00  0.00     0.706 A 
HETATM    2  N2  UNL     1      17.260   4.256  13.689  1.00  0.00    -0.021 N 
ATOM      3  H2  UNL     1      17.367   4.792  12.827  1.00  0.00     0.203 HD
HETATM    4  C3  UNL     1      17.002   2.932  13.603  1.00  0.00     0.708 A 
HETATM    5  N4  UNL     1      16.861   2.229  14.739  1.00  0.00    -0.020 N 
ATOM      6  H4  UNL     1      16.666   1.228  14.709  1.00  0.00     0.203 HD
HETATM    7  C6  UNL     1      16.981   2.863  15.909  1.00  0.00     0.726 A 
HETATM    8  N10 UNL     1      17.238   4.178  15.995  1.00  0.00    -0.020 N 
ATOM      9  H10 UNL     1      17.323   4.629  16.906  1.00  0.00     0.203 HD
ENDROOT
BRANCH   7  10
HETATM   10  N5  UNL     1      16.843   2.172  16.986  1.00  0.00    -0.117 N 
ATOM     11  H5  UNL     1      17.671   1.731  17.385  1.00  0.00     0.206 HD
BRANCH  10  12
HETATM   12  N6  UNL     1      15.627   1.993  17.635  1.00  0.00    -0.117 N 
HETATM   13  C7  UNL     1      14.670   3.038  17.549  1.00  0.00     0.705 C 
HETATM   14  N7  UNL     1      13.714   2.978  16.706  1.00  0.00    -0.232 N 
HETATM   15  N8  UNL     1      14.830   4.138  18.439  1.00  0.00    -0.138 N 
ATOM     16  H72 UNL     1      13.599   2.190  16.069  1.00  0.00     0.174 HD
ATOM     17  H71 UNL     1      13.026   3.728  16.644  1.00  0.00     0.174 HD
ATOM     18  H8  UNL     1      14.671   5.100  18.136  1.00  0.00     0.205 HD
ATOM     19  H6  UNL     1      15.428   1.139  18.156  1.00  0.00     0.206 HD
BRANCH  15  20
HETATM   20  N9  UNL     1      15.217   3.833  19.752  1.00  0.00    -0.331 N 
ATOM     21  H92 UNL     1      16.113   4.153  20.121  1.00  0.00     0.177 HD
ATOM     22  H91 UNL     1      14.560   3.282  20.305  1.00  0.00     0.177 HD
ENDBRANCH  15  20
ENDBRANCH  10  12
ENDBRANCH   7  10
BRANCH   4  23
HETATM   23  N3  UNL     1      16.884   2.308  12.328  1.00  0.00    -0.225 N 
HETATM   24  C4  UNL     1      17.327   0.951  12.145  1.00  0.00     0.168 C 
HETATM   25  C5  UNL     1      16.311   3.067  11.231  1.00  0.00     0.168 C 
ENDBRANCH   4  23
BRANCH   1  26
HETATM   26  N1  UNL     1      17.628   6.159  14.951  1.00  0.00    -0.229 N 
HETATM   27  C1  UNL     1      18.854   6.767  14.547  1.00  0.00     0.165 C 
ATOM     28  H1  UNL     1      16.899   6.762  15.332  1.00  0.00     0.177 HD
ENDBRANCH   1  26
TORSDOF 5
ENDMDL
MODEL 5
REMARK VINA RESULT: -5.863440700      2.173      4.646
REMARK  5 active torsions:
REMARK  status: ('A' for Active; 'I' for Inactive)
REMARK    1  A    between atoms: N1_2  and  C2_4 
REMARK    2  A    between atoms: C3_7  and  N3_8 
REMARK    3  A    between atoms: C6_13  and  N5_14 
REMARK    4  A    between atoms: N5_14  and  N6_16 
REMARK       I    between atoms: N6_16  and  C7_18 
REMARK       I    between atoms: C7_18  and  N8_22 
REMARK    5  A    between atoms: N8_22  and  N9_24 
ROOT
HETATM    1  C2  UNL     1      17.588   1.617  11.810  1.00  0.00     0.706 A 
HETATM    2  N2  UNL     1      17.706   2.884  11.380  1.00  0.00    -0.021 N 
ATOM      3  H2  UNL     1      17.913   3.050  10.395  1.00  0.00     0.203 HD
HETATM    4  C3  UNL     1      17.560   3.948  12.202  1.00  0.00     0.708 A 
HETATM    5  N4  UNL     1      17.288   3.726  13.498  1.00  0.00    -0.020 N 
ATOM      6  H4  UNL     1      17.172   4.506  14.145  1.00  0.00     0.203 HD
HETATM    7  C6  UNL     1      17.172   2.465  13.927  1.00  0.00     0.726 A 
HETATM    8  N10 UNL     1      17.315   1.409  13.110  1.00  0.00    -0.020 N 
ATOM      9  H10 UNL     1      17.219   0.460  13.472  1.00  0.00     0.203 HD
ENDROOT
BRANCH   7  10
HETATM   10  N5  UNL     1      16.910   2.274  15.172  1.00  0.00    -0.117 N 
ATOM     11  H5  UNL     1      16.640   1.337  15.469  1.00  0.00     0.206 HD
BRANCH  10  12
HETATM   12  N6  UNL     1      16.976   3.275  16.134  1.00  0.00    -0.117 N 
HETATM   13  C7  UNL     1      15.802   3.553  16.883  1.00  0.00     0.705 C 
HETATM   14  N7  UNL     1      15.644   3.064  18.051  1.00  0.00    -0.232 N 
HETATM   15  N8  UNL     1      14.826   4.390  16.271  1.00  0.00    -0.138 N 
ATOM     16  H72 UNL     1      16.344   2.465  18.490  1.00  0.00     0.174 HD
ATOM     17  H71 UNL     1      14.801   3.264  18.589  1.00  0.00     0.174 HD
ATOM     18  H8  UNL     1      13.827   4.199  16.356  1.00  0.00     0.205 HD
ATOM     19  H6  UNL     1      17.839   3.793  16.297  1.00  0.00     0.206 HD
BRANCH  15  20
HETATM   20  N9  UNL     1      15.308   5.491  15.547  1.00  0.00    -0.331 N 
ATOM     21  H92 UNL     1      14.700   6.001  14.906  1.00  0.00     0.177 HD
ATOM     22  H91 UNL     1      16.284   5.745  15.699  1.00  0.00     0.177 HD
ENDBRANCH  15  20
ENDBRANCH  10  12
ENDBRANCH   7  10
BRANCH   4  23
HETATM   23  N3  UNL     1      17.696   5.270  11.691  1.00  0.00    -0.225 N 
HETATM   24  C4  UNL     1      17.354   6.400  12.513  1.00  0.00     0.168 C 
HETATM   25  C5  UNL     1      18.183   5.447  10.334  1.00  0.00     0.168 C 
ENDBRANCH   4  23
BRANCH   1  26
HETATM   26  N1  UNL     1      17.726   0.599  11.027  1.00  0.00    -0.229 N 
HETATM   27  C1  UNL     1      18.375  -0.617  11.398  1.00  0.00     0.165 C 
ATOM     28  H1  UNL     1      17.346   0.668  10.083  1.00  0.00     0.177 HD
ENDBRANCH   1  26
TORSDOF 5
ENDMDL
