MODEL 1
REMARK VINA RESULT: -8.802265618      0.000      0.000
REMARK  9 active torsions:
REMARK  status: ('A' for Active; 'I' for Inactive)
REMARK    1  A    between atoms: O1_2  and  C2_3 
REMARK    2  A    between atoms: C2_3  and  O3_5 
REMARK    3  A    between atoms: O3_5  and  C3_6 
REMARK    4  A    between atoms: C10_14  and  O4_15 
REMARK    5  A    between atoms: C11_17  and  N1_18 
REMARK    6  A    between atoms: N1_18  and  C12_20 
REMARK    7  A    between atoms: C18_27  and  O5_29 
REMARK    8  A    between atoms: O5_29  and  C20_30 
REMARK    9  A    between atoms: C20_30  and  C21_32 
ROOT
HETATM    1  C3  UNL     1     -26.607  -6.678  30.017  1.00  0.00     0.085 C 
HETATM    2  C4  UNL     1     -27.646  -7.683  30.448  1.00  0.00     0.048 C 
HETATM    3  C5  UNL     1     -25.286  -7.417  29.648  1.00  0.00     0.042 C 
HETATM    4  C6  UNL     1     -24.064  -6.773  30.219  1.00  0.00    -0.027 C 
HETATM    5  C7  UNL     1     -22.822  -7.582  29.924  1.00  0.00     0.014 C 
HETATM    6  C8  UNL     1     -23.278  -8.975  29.621  1.00  0.00     0.048 C 
HETATM    7  C9  UNL     1     -24.149  -9.095  28.405  1.00  0.00     0.139 C 
HETATM    8  F1  UNL     1     -24.941 -10.218  28.688  1.00  0.00    -0.239 F 
HETATM    9  C10 UNL     1     -23.314  -9.375  27.255  1.00  0.00     0.181 C 
HETATM   10  C11 UNL     1     -23.693  -8.952  25.898  1.00  0.00     0.113 C 
HETATM   11  C13 UNL     1     -24.444  -7.668  25.885  1.00  0.00     0.028 C 
HETATM   12  C14 UNL     1     -24.524  -7.002  27.255  1.00  0.00     0.015 C 
HETATM   13  C15 UNL     1     -25.147  -7.922  28.287  1.00  0.00     0.002 C 
HETATM   14  C16 UNL     1     -26.321  -8.502  27.598  1.00  0.00     0.019 C 
HETATM   15  C17 UNL     1     -24.140  -6.871  31.761  1.00  0.00     0.049 C 
HETATM   16  C18 UNL     1     -25.462  -6.530  32.254  1.00  0.00     0.078 C 
HETATM   17  C19 UNL     1     -25.444  -5.653  33.503  1.00  0.00     0.047 C 
HETATM   18  C25 UNL     1     -26.375  -5.812  31.232  1.00  0.00     0.019 C 
HETATM   19  C26 UNL     1     -27.573  -5.537  32.081  1.00  0.00     0.021 C 
HETATM   20  C27 UNL     1     -25.772  -4.465  30.928  1.00  0.00     0.016 C 
HETATM   21  C28 UNL     1     -24.300  -4.378  30.956  1.00  0.00     0.006 C 
HETATM   22  C29 UNL     1     -23.795  -5.365  29.890  1.00  0.00    -0.010 C 
HETATM   23  C30 UNL     1     -22.292  -5.041  29.844  1.00  0.00     0.011 C 
ENDROOT
BRANCH  16  24
HETATM   24  O5  UNL     1     -26.120  -7.715  32.710  1.00  0.00    -0.304 OA
BRANCH  24  25
HETATM   25  C20 UNL     1     -25.473  -8.870  33.068  1.00  0.00     0.318 C 
HETATM   26  O6  UNL     1     -24.989  -9.595  32.189  1.00  0.00    -0.257 OA
BRANCH  25  27
HETATM   27  C21 UNL     1     -25.341  -9.266  34.469  1.00  0.00     0.149 A 
HETATM   28  C22 UNL     1     -26.350  -9.159  35.394  1.00  0.00     0.045 A 
HETATM   29  C23 UNL     1     -25.867  -9.624  36.602  1.00  0.00     0.027 A 
HETATM   30  C24 UNL     1     -24.561  -9.997  36.337  1.00  0.00     0.143 A 
HETATM   31  O7  UNL     1     -24.290  -9.771  35.074  1.00  0.00    -0.317 OA
ENDBRANCH  25  27
ENDBRANCH  24  25
ENDBRANCH  16  24
BRANCH   1  32
HETATM   32  O3  UNL     1     -26.837  -5.997  28.875  1.00  0.00    -0.286 OA
BRANCH  32  33
HETATM   33  C2  UNL     1     -27.813  -5.281  28.308  1.00  0.00     0.406 C 
HETATM   34  O2  UNL     1     -28.847  -5.825  28.016  1.00  0.00    -0.229 OA
BRANCH  33  35
HETATM   35  O1  UNL     1     -27.649  -3.924  28.054  1.00  0.00    -0.303 OA
HETATM   36  C1  UNL     1     -28.262  -2.953  28.856  1.00  0.00     0.215 C 
ENDBRANCH  33  35
ENDBRANCH  32  33
ENDBRANCH   1  32
BRANCH   9  37
HETATM   37  O4  UNL     1     -21.999  -8.912  27.518  1.00  0.00    -0.390 OA
ATOM     38  H4  UNL     1     -21.453  -9.085  26.760  1.00  0.00     0.210 HD
ENDBRANCH   9  37
BRANCH  10  39
HETATM   39  N1  UNL     1     -22.460  -8.886  25.110  1.00  0.00    -0.383 N 
ATOM     40  H1  UNL     1     -21.805  -8.115  25.240  1.00  0.00     0.160 HD
BRANCH  39  41
HETATM   41  C12 UNL     1     -22.189  -9.909  24.162  1.00  0.00     0.166 C 
HETATM   42  S1  UNL     1     -22.975  -9.953  22.729  1.00  0.00    -0.075 SA
ENDBRANCH  39  41
ENDBRANCH  10  39
TORSDOF 9
ENDMDL
MODEL 2
REMARK VINA RESULT: -8.711836816      0.998      1.344
REMARK  9 active torsions:
REMARK  status: ('A' for Active; 'I' for Inactive)
REMARK    1  A    between atoms: O1_2  and  C2_3 
REMARK    2  A    between atoms: C2_3  and  O3_5 
REMARK    3  A    between atoms: O3_5  and  C3_6 
REMARK    4  A    between atoms: C10_14  and  O4_15 
REMARK    5  A    between atoms: C11_17  and  N1_18 
REMARK    6  A    between atoms: N1_18  and  C12_20 
REMARK    7  A    between atoms: C18_27  and  O5_29 
REMARK    8  A    between atoms: O5_29  and  C20_30 
REMARK    9  A    between atoms: C20_30  and  C21_32 
ROOT
HETATM    1  C3  UNL     1     -26.764  -6.616  29.926  1.00  0.00     0.085 C 
HETATM    2  C4  UNL     1     -27.811  -7.607  30.372  1.00  0.00     0.048 C 
HETATM    3  C5  UNL     1     -25.419  -7.359  29.664  1.00  0.00     0.042 C 
HETATM    4  C6  UNL     1     -24.232  -6.663  30.249  1.00  0.00    -0.027 C 
HETATM    5  C7  UNL     1     -22.968  -7.471  30.061  1.00  0.00     0.014 C 
HETATM    6  C8  UNL     1     -23.394  -8.886  29.825  1.00  0.00     0.048 C 
HETATM    7  C9  UNL     1     -24.208  -9.094  28.581  1.00  0.00     0.139 C 
HETATM    8  F1  UNL     1     -24.999 -10.208  28.898  1.00  0.00    -0.239 F 
HETATM    9  C10 UNL     1     -23.318  -9.433  27.490  1.00  0.00     0.181 C 
HETATM   10  C11 UNL     1     -23.639  -9.100  26.093  1.00  0.00     0.113 C 
HETATM   11  C13 UNL     1     -24.403  -7.830  25.966  1.00  0.00     0.028 C 
HETATM   12  C14 UNL     1     -24.553  -7.081  27.286  1.00  0.00     0.015 C 
HETATM   13  C15 UNL     1     -25.212  -7.945  28.345  1.00  0.00     0.002 C 
HETATM   14  C16 UNL     1     -26.347  -8.582  27.642  1.00  0.00     0.019 C 
HETATM   15  C17 UNL     1     -24.378  -6.667  31.789  1.00  0.00     0.049 C 
HETATM   16  C18 UNL     1     -25.725  -6.314  32.199  1.00  0.00     0.078 C 
HETATM   17  C19 UNL     1     -25.774  -5.361  33.390  1.00  0.00     0.047 C 
HETATM   18  C25 UNL     1     -26.598  -5.674  31.094  1.00  0.00     0.019 C 
HETATM   19  C26 UNL     1     -27.836  -5.363  31.869  1.00  0.00     0.021 C 
HETATM   20  C27 UNL     1     -25.997  -4.340  30.734  1.00  0.00     0.016 C 
HETATM   21  C28 UNL     1     -24.529  -4.231  30.822  1.00  0.00     0.006 C 
HETATM   22  C29 UNL     1     -23.964  -5.274  29.845  1.00  0.00    -0.010 C 
HETATM   23  C30 UNL     1     -22.464  -4.933  29.846  1.00  0.00     0.011 C 
ENDROOT
BRANCH  16  24
HETATM   24  O5  UNL     1     -26.390  -7.478  32.698  1.00  0.00    -0.304 OA
BRANCH  24  25
HETATM   25  C20 UNL     1     -25.905  -8.275  33.702  1.00  0.00     0.318 C 
HETATM   26  O6  UNL     1     -26.040  -7.920  34.881  1.00  0.00    -0.257 OA
BRANCH  25  27
HETATM   27  C21 UNL     1     -25.230  -9.539  33.413  1.00  0.00     0.149 A 
HETATM   28  C22 UNL     1     -25.423 -10.266  32.264  1.00  0.00     0.045 A 
HETATM   29  C23 UNL     1     -24.627 -11.392  32.337  1.00  0.00     0.027 A 
HETATM   30  C24 UNL     1     -23.979 -11.286  33.556  1.00  0.00     0.143 A 
HETATM   31  O7  UNL     1     -24.361 -10.184  34.158  1.00  0.00    -0.317 OA
ENDBRANCH  25  27
ENDBRANCH  24  25
ENDBRANCH  16  24
BRANCH   1  32
HETATM   32  O3  UNL     1     -26.949  -6.011  28.734  1.00  0.00    -0.286 OA
BRANCH  32  33
HETATM   33  C2  UNL     1     -27.911  -5.358  28.075  1.00  0.00     0.406 C 
HETATM   34  O2  UNL     1     -29.039  -5.777  28.113  1.00  0.00    -0.229 OA
BRANCH  33  35
HETATM   35  O1  UNL     1     -27.625  -4.206  27.349  1.00  0.00    -0.303 OA
HETATM   36  C1  UNL     1     -27.145  -4.274  26.035  1.00  0.00     0.215 C 
ENDBRANCH  33  35
ENDBRANCH  32  33
ENDBRANCH   1  32
BRANCH   9  37
HETATM   37  O4  UNL     1     -22.021  -8.936  27.782  1.00  0.00    -0.390 OA
ATOM     38  H4  UNL     1     -21.425  -9.206  27.094  1.00  0.00     0.210 HD
ENDBRANCH   9  37
BRANCH  10  39
HETATM   39  N1  UNL     1     -22.372  -9.066  25.359  1.00  0.00    -0.383 N 
ATOM     40  H1  UNL     1     -21.668  -8.361  25.577  1.00  0.00     0.160 HD
BRANCH  39  41
HETATM   41  C12 UNL     1     -22.136 -10.028  24.340  1.00  0.00     0.166 C 
HETATM   42  S1  UNL     1     -22.905  -9.926  22.900  1.00  0.00    -0.075 SA
ENDBRANCH  39  41
ENDBRANCH  10  39
TORSDOF 9
ENDMDL
MODEL 3
REMARK VINA RESULT: -8.617626905      3.495      5.952
REMARK  9 active torsions:
REMARK  status: ('A' for Active; 'I' for Inactive)
REMARK    1  A    between atoms: O1_2  and  C2_3 
REMARK    2  A    between atoms: C2_3  and  O3_5 
REMARK    3  A    between atoms: O3_5  and  C3_6 
REMARK    4  A    between atoms: C10_14  and  O4_15 
REMARK    5  A    between atoms: C11_17  and  N1_18 
REMARK    6  A    between atoms: N1_18  and  C12_20 
REMARK    7  A    between atoms: C18_27  and  O5_29 
REMARK    8  A    between atoms: O5_29  and  C20_30 
REMARK    9  A    between atoms: C20_30  and  C21_32 
ROOT
HETATM    1  C3  UNL     1     -23.415  -6.302  30.304  1.00  0.00     0.085 C 
HETATM    2  C4  UNL     1     -22.924  -7.069  31.507  1.00  0.00     0.048 C 
HETATM    3  C5  UNL     1     -24.968  -6.398  30.221  1.00  0.00     0.042 C 
HETATM    4  C6  UNL     1     -25.473  -6.698  28.847  1.00  0.00    -0.027 C 
HETATM    5  C7  UNL     1     -26.973  -6.886  28.836  1.00  0.00     0.014 C 
HETATM    6  C8  UNL     1     -27.375  -7.215  30.240  1.00  0.00     0.048 C 
HETATM    7  C9  UNL     1     -27.100  -6.129  31.238  1.00  0.00     0.139 C 
HETATM    8  F1  UNL     1     -26.914  -6.835  32.436  1.00  0.00    -0.239 F 
HETATM    9  C10 UNL     1     -28.275  -5.290  31.353  1.00  0.00     0.181 C 
HETATM   10  C11 UNL     1     -28.181  -3.866  31.711  1.00  0.00     0.113 C 
HETATM   11  C13 UNL     1     -26.946  -3.223  31.188  1.00  0.00     0.028 C 
HETATM   12  C14 UNL     1     -26.130  -4.134  30.277  1.00  0.00     0.015 C 
HETATM   13  C15 UNL     1     -25.751  -5.426  30.975  1.00  0.00     0.002 C 
HETATM   14  C16 UNL     1     -25.290  -4.995  32.313  1.00  0.00     0.019 C 
HETATM   15  C17 UNL     1     -24.979  -8.109  28.446  1.00  0.00     0.049 C 
HETATM   16  C18 UNL     1     -23.581  -8.302  28.785  1.00  0.00     0.078 C 
HETATM   17  C19 UNL     1     -22.780  -9.018  27.702  1.00  0.00     0.047 C 
HETATM   18  C25 UNL     1     -22.804  -7.006  29.117  1.00  0.00     0.019 C 
HETATM   19  C26 UNL     1     -21.429  -7.555  29.314  1.00  0.00     0.021 C 
HETATM   20  C27 UNL     1     -22.733  -6.169  27.867  1.00  0.00     0.016 C 
HETATM   21  C28 UNL     1     -23.883  -6.254  26.947  1.00  0.00     0.006 C 
HETATM   22  C29 UNL     1     -25.108  -5.787  27.751  1.00  0.00    -0.010 C 
HETATM   23  C30 UNL     1     -26.190  -5.702  26.662  1.00  0.00     0.011 C 
ENDROOT
BRANCH  16  24
HETATM   24  O5  UNL     1     -23.481  -9.199  29.895  1.00  0.00    -0.304 OA
BRANCH  24  25
HETATM   25  C20 UNL     1     -24.364 -10.218  30.149  1.00  0.00     0.318 C 
HETATM   26  O6  UNL     1     -24.802 -10.892  29.208  1.00  0.00    -0.257 OA
BRANCH  25  27
HETATM   27  C21 UNL     1     -24.799 -10.528  31.510  1.00  0.00     0.149 A 
HETATM   28  C22 UNL     1     -25.337  -9.604  32.372  1.00  0.00     0.045 A 
HETATM   29  C23 UNL     1     -25.627 -10.252  33.557  1.00  0.00     0.027 A 
HETATM   30  C24 UNL     1     -25.240 -11.563  33.345  1.00  0.00     0.143 A 
HETATM   31  O7  UNL     1     -24.757 -11.685  32.131  1.00  0.00    -0.317 OA
ENDBRANCH  25  27
ENDBRANCH  24  25
ENDBRANCH  16  24
BRANCH   1  32
HETATM   32  O3  UNL     1     -23.250  -4.962  30.311  1.00  0.00    -0.286 OA
BRANCH  32  33
HETATM   33  C2  UNL     1     -22.353  -4.061  30.723  1.00  0.00     0.406 C 
HETATM   34  O2  UNL     1     -21.207  -4.167  30.370  1.00  0.00    -0.229 OA
BRANCH  33  35
HETATM   35  O1  UNL     1     -22.728  -3.007  31.550  1.00  0.00    -0.303 OA
HETATM   36  C1  UNL     1     -23.294  -1.837  31.027  1.00  0.00     0.215 C 
ENDBRANCH  33  35
ENDBRANCH  32  33
ENDBRANCH   1  32
BRANCH   9  37
HETATM   37  O4  UNL     1     -29.040  -5.404  30.164  1.00  0.00    -0.390 OA
ATOM     38  H4  UNL     1     -28.824  -6.224  29.736  1.00  0.00     0.210 HD
ENDBRANCH   9  37
BRANCH  10  39
HETATM   39  N1  UNL     1     -29.399  -3.220  31.218  1.00  0.00    -0.383 N 
ATOM     40  H1  UNL     1     -30.253  -3.761  31.085  1.00  0.00     0.160 HD
BRANCH  39  41
HETATM   41  C12 UNL     1     -29.375  -1.829  30.926  1.00  0.00     0.166 C 
HETATM   42  S1  UNL     1     -29.693  -1.284  29.417  1.00  0.00    -0.075 SA
ENDBRANCH  39  41
ENDBRANCH  10  39
TORSDOF 9
ENDMDL
MODEL 4
REMARK VINA RESULT: -8.450076905      1.546      2.022
REMARK  9 active torsions:
REMARK  status: ('A' for Active; 'I' for Inactive)
REMARK    1  A    between atoms: O1_2  and  C2_3 
REMARK    2  A    between atoms: C2_3  and  O3_5 
REMARK    3  A    between atoms: O3_5  and  C3_6 
REMARK    4  A    between atoms: C10_14  and  O4_15 
REMARK    5  A    between atoms: C11_17  and  N1_18 
REMARK    6  A    between atoms: N1_18  and  C12_20 
REMARK    7  A    between atoms: C18_27  and  O5_29 
REMARK    8  A    between atoms: O5_29  and  C20_30 
REMARK    9  A    between atoms: C20_30  and  C21_32 
ROOT
HETATM    1  C3  UNL     1     -26.204  -5.963  28.632  1.00  0.00     0.085 C 
HETATM    2  C4  UNL     1     -27.457  -6.662  29.098  1.00  0.00     0.048 C 
HETATM    3  C5  UNL     1     -24.995  -6.943  28.721  1.00  0.00     0.042 C 
HETATM    4  C6  UNL     1     -23.776  -6.329  29.332  1.00  0.00    -0.027 C 
HETATM    5  C7  UNL     1     -22.667  -7.344  29.493  1.00  0.00     0.014 C 
HETATM    6  C8  UNL     1     -23.313  -8.693  29.471  1.00  0.00     0.048 C 
HETATM    7  C9  UNL     1     -24.003  -9.035  28.183  1.00  0.00     0.139 C 
HETATM    8  F1  UNL     1     -25.014  -9.920  28.586  1.00  0.00    -0.239 F 
HETATM    9  C10 UNL     1     -23.070  -9.732  27.322  1.00  0.00     0.181 C 
HETATM   10  C11 UNL     1     -23.163  -9.660  25.856  1.00  0.00     0.113 C 
HETATM   11  C13 UNL     1     -23.664  -8.345  25.375  1.00  0.00     0.028 C 
HETATM   12  C14 UNL     1     -23.826  -7.317  26.490  1.00  0.00     0.015 C 
HETATM   13  C15 UNL     1     -24.748  -7.822  27.585  1.00  0.00     0.002 C 
HETATM   14  C16 UNL     1     -25.891  -8.413  26.855  1.00  0.00     0.019 C 
HETATM   15  C17 UNL     1     -24.096  -5.980  30.805  1.00  0.00     0.049 C 
HETATM   16  C18 UNL     1     -25.395  -5.345  30.934  1.00  0.00     0.078 C 
HETATM   17  C19 UNL     1     -25.407  -4.164  31.900  1.00  0.00     0.047 C 
HETATM   18  C25 UNL     1     -26.005  -4.830  29.609  1.00  0.00     0.019 C 
HETATM   19  C26 UNL     1     -27.247  -4.173  30.116  1.00  0.00     0.021 C 
HETATM   20  C27 UNL     1     -25.135  -3.713  29.095  1.00  0.00     0.016 C 
HETATM   21  C28 UNL     1     -23.691  -3.815  29.379  1.00  0.00     0.006 C 
HETATM   22  C29 UNL     1     -23.216  -5.117  28.714  1.00  0.00    -0.010 C 
HETATM   23  C30 UNL     1     -21.690  -5.019  28.874  1.00  0.00     0.011 C 
ENDROOT
BRANCH  16  24
HETATM   24  O5  UNL     1     -26.312  -6.259  31.541  1.00  0.00    -0.304 OA
BRANCH  24  25
HETATM   25  C20 UNL     1     -26.137  -6.824  32.779  1.00  0.00     0.318 C 
HETATM   26  O6  UNL     1     -26.566  -6.238  33.782  1.00  0.00    -0.257 OA
BRANCH  25  27
HETATM   27  C21 UNL     1     -25.455  -8.106  32.940  1.00  0.00     0.149 A 
HETATM   28  C22 UNL     1     -25.633  -9.181  32.104  1.00  0.00     0.045 A 
HETATM   29  C23 UNL     1     -24.833 -10.209  32.562  1.00  0.00     0.027 A 
HETATM   30  C24 UNL     1     -24.198  -9.691  33.677  1.00  0.00     0.143 A 
HETATM   31  O7  UNL     1     -24.590  -8.454  33.867  1.00  0.00    -0.317 OA
ENDBRANCH  25  27
ENDBRANCH  24  25
ENDBRANCH  16  24
BRANCH   1  32
HETATM   32  O3  UNL     1     -26.138  -5.606  27.332  1.00  0.00    -0.286 OA
BRANCH  32  33
HETATM   33  C2  UNL     1     -26.864  -4.931  26.436  1.00  0.00     0.406 C 
HETATM   34  O2  UNL     1     -28.014  -4.671  26.685  1.00  0.00    -0.229 OA
BRANCH  33  35
HETATM   35  O1  UNL     1     -26.310  -4.527  25.226  1.00  0.00    -0.303 OA
HETATM   36  C1  UNL     1     -26.742  -3.362  24.579  1.00  0.00     0.215 C 
ENDBRANCH  33  35
ENDBRANCH  32  33
ENDBRANCH   1  32
BRANCH   9  37
HETATM   37  O4  UNL     1     -21.747  -9.390  27.704  1.00  0.00    -0.390 OA
ATOM     38  H4  UNL     1     -21.137  -9.783  27.091  1.00  0.00     0.210 HD
ENDBRANCH   9  37
BRANCH  10  39
HETATM   39  N1  UNL     1     -21.835  -9.980  25.326  1.00  0.00    -0.383 N 
ATOM     40  H1  UNL     1     -21.086 -10.273  25.953  1.00  0.00     0.160 HD
BRANCH  39  41
HETATM   41  C12 UNL     1     -21.605  -9.875  23.928  1.00  0.00     0.166 C 
HETATM   42  S1  UNL     1     -20.401  -8.933  23.347  1.00  0.00    -0.075 SA
ENDBRANCH  39  41
ENDBRANCH  10  39
TORSDOF 9
ENDMDL
MODEL 5
REMARK VINA RESULT: -8.339835566      3.336      6.376
REMARK  9 active torsions:
REMARK  status: ('A' for Active; 'I' for Inactive)
REMARK    1  A    between atoms: O1_2  and  C2_3 
REMARK    2  A    between atoms: C2_3  and  O3_5 
REMARK    3  A    between atoms: O3_5  and  C3_6 
REMARK    4  A    between atoms: C10_14  and  O4_15 
REMARK    5  A    between atoms: C11_17  and  N1_18 
REMARK    6  A    between atoms: N1_18  and  C12_20 
REMARK    7  A    between atoms: C18_27  and  O5_29 
REMARK    8  A    between atoms: O5_29  and  C20_30 
REMARK    9  A    between atoms: C20_30  and  C21_32 
ROOT
HETATM    1  C3  UNL     1     -26.237  -6.024  27.871  1.00  0.00     0.085 C 
HETATM    2  C4  UNL     1     -27.714  -5.716  27.842  1.00  0.00     0.048 C 
HETATM    3  C5  UNL     1     -25.676  -5.761  29.301  1.00  0.00     0.042 C 
HETATM    4  C6  UNL     1     -24.387  -5.004  29.305  1.00  0.00    -0.027 C 
HETATM    5  C7  UNL     1     -23.938  -4.682  30.711  1.00  0.00     0.014 C 
HETATM    6  C8  UNL     1     -25.153  -4.767  31.580  1.00  0.00     0.048 C 
HETATM    7  C9  UNL     1     -25.779  -6.129  31.647  1.00  0.00     0.139 C 
HETATM    8  F1  UNL     1     -27.130  -5.849  31.902  1.00  0.00    -0.239 F 
HETATM    9  C10 UNL     1     -25.218  -6.848  32.773  1.00  0.00     0.181 C 
HETATM   10  C11 UNL     1     -25.107  -8.315  32.780  1.00  0.00     0.113 C 
HETATM   11  C13 UNL     1     -24.848  -8.878  31.429  1.00  0.00     0.028 C 
HETATM   12  C14 UNL     1     -24.607  -7.811  30.366  1.00  0.00     0.015 C 
HETATM   13  C15 UNL     1     -25.769  -6.840  30.277  1.00  0.00     0.002 C 
HETATM   14  C16 UNL     1     -26.969  -7.705  30.299  1.00  0.00     0.019 C 
HETATM   15  C17 UNL     1     -24.652  -3.593  28.731  1.00  0.00     0.049 C 
HETATM   16  C18 UNL     1     -25.481  -3.646  27.540  1.00  0.00     0.078 C 
HETATM   17  C19 UNL     1     -25.020  -2.709  26.428  1.00  0.00     0.047 C 
HETATM   18  C25 UNL     1     -25.617  -5.048  26.901  1.00  0.00     0.019 C 
HETATM   19  C26 UNL     1     -26.427  -4.720  25.690  1.00  0.00     0.021 C 
HETATM   20  C27 UNL     1     -24.263  -5.461  26.385  1.00  0.00     0.016 C 
HETATM   21  C28 UNL     1     -23.092  -4.988  27.147  1.00  0.00     0.006 C 
HETATM   22  C29 UNL     1     -23.244  -5.563  28.564  1.00  0.00    -0.010 C 
HETATM   23  C30 UNL     1     -21.891  -5.205  29.201  1.00  0.00     0.011 C 
ENDROOT
BRANCH  16  24
HETATM   24  O5  UNL     1     -26.787  -3.150  27.849  1.00  0.00    -0.304 OA
BRANCH  24  25
HETATM   25  C20 UNL     1     -27.033  -2.057  28.639  1.00  0.00     0.318 C 
HETATM   26  O6  UNL     1     -26.838  -0.921  28.186  1.00  0.00    -0.257 OA
BRANCH  25  27
HETATM   27  C21 UNL     1     -27.523  -2.202  30.009  1.00  0.00     0.149 A 
HETATM   28  C22 UNL     1     -28.377  -3.197  30.417  1.00  0.00     0.045 A 
HETATM   29  C23 UNL     1     -28.620  -3.018  31.765  1.00  0.00     0.027 A 
HETATM   30  C24 UNL     1     -27.883  -1.899  32.110  1.00  0.00     0.143 A 
HETATM   31  O7  UNL     1     -27.253  -1.448  31.051  1.00  0.00    -0.317 OA
ENDBRANCH  25  27
ENDBRANCH  24  25
ENDBRANCH  16  24
BRANCH   1  32
HETATM   32  O3  UNL     1     -25.866  -7.309  27.692  1.00  0.00    -0.286 OA
BRANCH  32  33
HETATM   33  C2  UNL     1     -25.672  -8.171  26.689  1.00  0.00     0.406 C 
HETATM   34  O2  UNL     1     -26.501  -8.258  25.820  1.00  0.00    -0.229 OA
BRANCH  33  35
HETATM   35  O1  UNL     1     -24.531  -8.965  26.640  1.00  0.00    -0.303 OA
HETATM   36  C1  UNL     1     -23.733  -9.023  25.490  1.00  0.00     0.215 C 
ENDBRANCH  33  35
ENDBRANCH  32  33
ENDBRANCH   1  32
BRANCH   9  37
HETATM   37  O4  UNL     1     -23.946  -6.300  33.081  1.00  0.00    -0.390 OA
ATOM     38  H4  UNL     1     -23.480  -6.127  32.272  1.00  0.00     0.210 HD
ENDBRANCH   9  37
BRANCH  10  39
HETATM   39  N1  UNL     1     -24.055  -8.659  33.740  1.00  0.00    -0.383 N 
ATOM     40  H1  UNL     1     -23.346  -7.973  33.997  1.00  0.00     0.160 HD
BRANCH  39  41
HETATM   41  C12 UNL     1     -24.035  -9.962  34.307  1.00  0.00     0.166 C 
HETATM   42  S1  UNL     1     -24.744 -10.257  35.751  1.00  0.00    -0.075 SA
ENDBRANCH  39  41
ENDBRANCH  10  39
TORSDOF 9
ENDMDL
