MODEL 1
REMARK VINA RESULT: -6.283174129      0.000      0.000
REMARK  1 active torsions:
REMARK  status: ('A' for Active; 'I' for Inactive)
REMARK    1  A    between atoms: C6_7  and  C7_8 
ROOT
HETATM    1  C7  UNL     1      33.487   2.783  57.536  1.00  0.00     0.368 C 
HETATM    2  O1  UNL     1      33.455   3.332  56.246  1.00  0.00    -0.197 OA
HETATM    3  O2  UNL     1      32.333   3.928  55.987  1.00  0.00    -0.195 OA
HETATM    4  C8  UNL     1      31.211   3.150  56.294  1.00  0.00     0.229 C 
HETATM    5  C9  UNL     1      30.501   3.831  57.431  1.00  0.00     0.074 C 
HETATM    6  C10 UNL     1      29.029   3.987  57.207  1.00  0.00     0.006 C 
HETATM    7  C11 UNL     1      28.525   2.642  56.682  1.00  0.00     0.000 C 
HETATM    8  C12 UNL     1      29.001   2.546  55.253  1.00  0.00     0.006 C 
HETATM    9  C13 UNL     1      30.385   3.057  55.043  1.00  0.00     0.074 C 
HETATM   10  O3  UNL     1      31.642   1.867  56.623  1.00  0.00    -0.195 OA
HETATM   11  O4  UNL     1      32.479   1.857  57.625  1.00  0.00    -0.197 OA
ENDROOT
BRANCH   1  12
HETATM   12  C6  UNL     1      34.845   2.206  57.713  1.00  0.00     0.019 A 
HETATM   13  C1  UNL     1      35.896   3.016  58.079  1.00  0.00     0.022 A 
HETATM   14 BR1  UNL     1      35.583   4.893  58.358  1.00  0.00    -0.050 Br
HETATM   15  C2  UNL     1      37.172   2.482  58.246  1.00  0.00     0.020 A 
HETATM   16  C3  UNL     1      37.426   1.143  58.052  1.00  0.00     0.001 A 
HETATM   17  C4  UNL     1      36.364   0.350  57.687  1.00  0.00     0.001 A 
HETATM   18  C5  UNL     1      35.086   0.862  57.516  1.00  0.00     0.013 A 
ENDBRANCH   1  12
TORSDOF 1
ENDMDL
MODEL 2
REMARK VINA RESULT: -6.234089724      1.627      2.711
REMARK  1 active torsions:
REMARK  status: ('A' for Active; 'I' for Inactive)
REMARK    1  A    between atoms: C6_7  and  C7_8 
ROOT
HETATM    1  C7  UNL     1      33.787   3.082  57.335  1.00  0.00     0.368 C 
HETATM    2  O1  UNL     1      32.912   3.110  58.431  1.00  0.00    -0.197 OA
HETATM    3  O2  UNL     1      31.787   2.514  58.184  1.00  0.00    -0.195 OA
HETATM    4  C8  UNL     1      31.196   2.925  56.984  1.00  0.00     0.229 C 
HETATM    5  C9  UNL     1      31.219   1.743  56.055  1.00  0.00     0.074 C 
HETATM    6  C10 UNL     1      29.902   1.477  55.395  1.00  0.00     0.006 C 
HETATM    7  C11 UNL     1      29.382   2.830  54.905  1.00  0.00     0.000 C 
HETATM    8  C12 UNL     1      28.916   3.569  56.135  1.00  0.00     0.006 C 
HETATM    9  C13 UNL     1      29.810   3.398  57.315  1.00  0.00     0.074 C 
HETATM   10  O3  UNL     1      31.916   4.010  56.488  1.00  0.00    -0.195 OA
HETATM   11  O4  UNL     1      33.177   3.733  56.293  1.00  0.00    -0.197 OA
ENDROOT
BRANCH   1  12
HETATM   12  C6  UNL     1      35.045   3.730  57.788  1.00  0.00     0.019 A 
HETATM   13  C1  UNL     1      36.121   2.959  58.163  1.00  0.00     0.022 A 
HETATM   14 BR1  UNL     1      35.973   1.042  58.092  1.00  0.00    -0.050 Br
HETATM   15  C2  UNL     1      37.305   3.558  58.589  1.00  0.00     0.020 A 
HETATM   16  C3  UNL     1      37.440   4.927  58.650  1.00  0.00     0.001 A 
HETATM   17  C4  UNL     1      36.354   5.681  58.271  1.00  0.00     0.001 A 
HETATM   18  C5  UNL     1      35.167   5.103  57.844  1.00  0.00     0.013 A 
ENDBRANCH   1  12
TORSDOF 1
ENDMDL
MODEL 3
REMARK VINA RESULT: -6.196645241      2.063      6.247
REMARK  1 active torsions:
REMARK  status: ('A' for Active; 'I' for Inactive)
REMARK    1  A    between atoms: C6_7  and  C7_8 
ROOT
HETATM    1  C7  UNL     1      32.595   1.987  56.415  1.00  0.00     0.368 C 
HETATM    2  O1  UNL     1      33.207   3.247  56.350  1.00  0.00    -0.197 OA
HETATM    3  O2  UNL     1      34.502   3.172  56.380  1.00  0.00    -0.195 OA
HETATM    4  C8  UNL     1      34.984   2.366  57.418  1.00  0.00     0.229 C 
HETATM    5  C9  UNL     1      35.631   1.168  56.780  1.00  0.00     0.074 C 
HETATM    6  C10 UNL     1      36.994   0.867  57.323  1.00  0.00     0.006 C 
HETATM    7  C11 UNL     1      36.886   0.963  58.845  1.00  0.00     0.000 C 
HETATM    8  C12 UNL     1      36.793   2.434  59.166  1.00  0.00     0.006 C 
HETATM    9  C13 UNL     1      35.937   3.204  58.220  1.00  0.00     0.074 C 
HETATM   10  O3  UNL     1      33.914   2.022  58.241  1.00  0.00    -0.195 OA
HETATM   11  O4  UNL     1      32.961   1.400  57.599  1.00  0.00    -0.197 OA
ENDROOT
BRANCH   1  12
HETATM   12  C6  UNL     1      31.133   2.226  56.296  1.00  0.00     0.019 A 
HETATM   13  C1  UNL     1      30.309   1.237  55.810  1.00  0.00     0.022 A 
HETATM   14 BR1  UNL     1      31.074  -0.451  55.291  1.00  0.00    -0.050 Br
HETATM   15  C2  UNL     1      28.937   1.454  55.695  1.00  0.00     0.020 A 
HETATM   16  C3  UNL     1      28.362   2.651  56.058  1.00  0.00     0.001 A 
HETATM   17  C4  UNL     1      29.201   3.627  56.542  1.00  0.00     0.001 A 
HETATM   18  C5  UNL     1      30.569   3.431  56.664  1.00  0.00     0.013 A 
ENDBRANCH   1  12
TORSDOF 1
ENDMDL
MODEL 4
REMARK VINA RESULT: -6.151615438      2.690      6.267
REMARK  1 active torsions:
REMARK  status: ('A' for Active; 'I' for Inactive)
REMARK    1  A    between atoms: C6_7  and  C7_8 
ROOT
HETATM    1  C7  UNL     1      32.346   1.146  55.838  1.00  0.00     0.368 C 
HETATM    2  O1  UNL     1      32.541   0.446  57.037  1.00  0.00    -0.197 OA
HETATM    3  O2  UNL     1      33.709  -0.114  57.102  1.00  0.00    -0.195 OA
HETATM    4  C8  UNL     1      34.029  -0.857  55.959  1.00  0.00     0.229 C 
HETATM    5  C9  UNL     1      35.179  -0.157  55.288  1.00  0.00     0.074 C 
HETATM    6  C10 UNL     1      36.303  -1.075  54.921  1.00  0.00     0.006 C 
HETATM    7  C11 UNL     1      35.665  -2.303  54.270  1.00  0.00     0.000 C 
HETATM    8  C12 UNL     1      35.036  -3.092  55.392  1.00  0.00     0.006 C 
HETATM    9  C13 UNL     1      34.361  -2.248  56.417  1.00  0.00     0.074 C 
HETATM   10  O3  UNL     1      32.898  -0.927  55.149  1.00  0.00    -0.195 OA
HETATM   11  O4  UNL     1      32.449   0.250  54.805  1.00  0.00    -0.197 OA
ENDROOT
BRANCH   1  12
HETATM   12  C6  UNL     1      31.009   1.787  55.940  1.00  0.00     0.019 A 
HETATM   13  C1  UNL     1      30.884   3.036  56.505  1.00  0.00     0.022 A 
HETATM   14 BR1  UNL     1      32.456   3.934  57.154  1.00  0.00    -0.050 Br
HETATM   15  C2  UNL     1      29.634   3.643  56.604  1.00  0.00     0.020 A 
HETATM   16  C3  UNL     1      28.492   3.025  56.148  1.00  0.00     0.001 A 
HETATM   17  C4  UNL     1      28.637   1.778  55.587  1.00  0.00     0.001 A 
HETATM   18  C5  UNL     1      29.872   1.156  55.478  1.00  0.00     0.013 A 
ENDBRANCH   1  12
TORSDOF 1
ENDMDL
MODEL 5
REMARK VINA RESULT: -6.069644469      1.884      2.886
REMARK  1 active torsions:
REMARK  status: ('A' for Active; 'I' for Inactive)
REMARK    1  A    between atoms: C6_7  and  C7_8 
ROOT
HETATM    1  C7  UNL     1      34.895   1.506  57.328  1.00  0.00     0.368 C 
HETATM    2  O1  UNL     1      34.189   1.667  58.529  1.00  0.00    -0.197 OA
HETATM    3  O2  UNL     1      32.910   1.511  58.378  1.00  0.00    -0.195 OA
HETATM    4  C8  UNL     1      32.385   2.255  57.315  1.00  0.00     0.229 C 
HETATM    5  C9  UNL     1      31.916   1.270  56.279  1.00  0.00     0.074 C 
HETATM    6  C10 UNL     1      30.532   1.544  55.780  1.00  0.00     0.006 C 
HETATM    7  C11 UNL     1      30.461   3.046  55.501  1.00  0.00     0.000 C 
HETATM    8  C12 UNL     1      30.393   3.719  56.849  1.00  0.00     0.006 C 
HETATM    9  C13 UNL     1      31.281   3.105  57.875  1.00  0.00     0.074 C 
HETATM   10  O3  UNL     1      33.381   3.102  56.836  1.00  0.00    -0.195 OA
HETATM   11  O4  UNL     1      34.449   2.458  56.446  1.00  0.00    -0.197 OA
ENDROOT
BRANCH   1  12
HETATM   12  C6  UNL     1      36.335   1.638  57.668  1.00  0.00     0.019 A 
HETATM   13  C1  UNL     1      37.264   0.823  57.063  1.00  0.00     0.022 A 
HETATM   14 BR1  UNL     1      36.674  -0.480  55.777  1.00  0.00    -0.050 Br
HETATM   15  C2  UNL     1      38.616   0.940  57.377  1.00  0.00     0.020 A 
HETATM   16  C3  UNL     1      39.068   1.863  58.294  1.00  0.00     0.001 A 
HETATM   17  C4  UNL     1      38.125   2.668  58.888  1.00  0.00     0.001 A 
HETATM   18  C5  UNL     1      36.774   2.567  58.589  1.00  0.00     0.013 A 
ENDBRANCH   1  12
TORSDOF 1
ENDMDL
