MODEL 1
REMARK VINA RESULT: -5.746405147      0.000      0.000
REMARK  5 active torsions:
REMARK  status: ('A' for Active; 'I' for Inactive)
REMARK    1  A    between atoms: N2_7  and  C4_8 
REMARK    2  A    between atoms: C10_15  and  C11_16 
REMARK    3  A    between atoms: C11_16  and  N3_17 
REMARK    4  A    between atoms: N3_17  and  C12_20 
REMARK    5  A    between atoms: C12_20  and  C13_21 
ROOT
HETATM    1  C1  UNL     1      32.328  -1.882  55.176  1.00  0.00     0.070 C 
HETATM    2  C2  UNL     1      33.232  -1.855  54.024  1.00  0.00     0.032 A 
HETATM    3  N1  UNL     1      33.319  -2.798  53.090  1.00  0.00    -0.335 N 
ATOM      4  H1  UNL     1      32.771  -3.658  53.056  1.00  0.00     0.168 HD
HETATM    5  C3  UNL     1      34.248  -2.426  52.205  1.00  0.00     0.179 A 
HETATM    6  S1  UNL     1      34.648  -3.309  50.911  1.00  0.00    -0.040 SA
HETATM    7  N2  UNL     1      34.793  -1.222  52.543  1.00  0.00    -0.318 N 
HETATM    8  C10 UNL     1      34.180  -0.849  53.664  1.00  0.00     0.062 A 
ENDROOT
BRANCH   8   9
HETATM    9  C11 UNL     1      34.314   0.335  54.536  1.00  0.00     0.291 C 
BRANCH   9  10
HETATM   10  N3  UNL     1      33.594   1.498  54.194  1.00  0.00    -0.061 N 
ATOM     11  H32 UNL     1      34.116   2.103  53.559  1.00  0.00     0.277 HD
ATOM     12  H31 UNL     1      32.802   1.295  53.583  1.00  0.00     0.277 HD
BRANCH  10  13
HETATM   13  C12 UNL     1      33.180   2.207  55.430  1.00  0.00     0.349 C 
BRANCH  13  14
HETATM   14  C13 UNL     1      32.800   3.634  55.073  1.00  0.00     0.411 C 
HETATM   15  F1  UNL     1      31.804   3.666  54.114  1.00  0.00    -0.169 F 
HETATM   16  F2  UNL     1      33.886   4.333  54.614  1.00  0.00    -0.169 F 
HETATM   17  F3  UNL     1      32.315   4.314  56.180  1.00  0.00    -0.169 F 
ENDBRANCH  13  14
ENDBRANCH  10  13
ENDBRANCH   9  10
ENDBRANCH   8   9
BRANCH   7  18
HETATM   18  C4  UNL     1      35.810  -0.587  51.797  1.00  0.00     0.111 C 
HETATM   19  C5  UNL     1      35.253   0.450  50.806  1.00  0.00     0.027 C 
HETATM   20  C6  UNL     1      36.387   0.687  49.797  1.00  0.00     0.002 C 
HETATM   21  C7  UNL     1      37.475   1.396  50.569  1.00  0.00     0.002 C 
HETATM   22  C8  UNL     1      37.205   1.490  52.038  1.00  0.00     0.022 C 
HETATM   23  C9  UNL     1      36.818   0.164  52.659  1.00  0.00     0.105 C 
HETATM   24 CL1  UNL     1      38.365  -0.759  52.757  1.00  0.00    -0.123 Cl
ENDBRANCH   7  18
TORSDOF 5
ENDMDL
MODEL 2
REMARK VINA RESULT: -5.399852002      3.064      4.804
REMARK  5 active torsions:
REMARK  status: ('A' for Active; 'I' for Inactive)
REMARK    1  A    between atoms: N2_7  and  C4_8 
REMARK    2  A    between atoms: C10_15  and  C11_16 
REMARK    3  A    between atoms: C11_16  and  N3_17 
REMARK    4  A    between atoms: N3_17  and  C12_20 
REMARK    5  A    between atoms: C12_20  and  C13_21 
ROOT
HETATM    1  C1  UNL     1      34.506   4.383  54.810  1.00  0.00     0.070 C 
HETATM    2  C2  UNL     1      34.949   2.988  54.733  1.00  0.00     0.032 A 
HETATM    3  N1  UNL     1      36.160   2.584  54.359  1.00  0.00    -0.335 N 
ATOM      4  H1  UNL     1      36.932   3.189  54.078  1.00  0.00     0.168 HD
HETATM    5  C3  UNL     1      36.190   1.250  54.415  1.00  0.00     0.179 A 
HETATM    6  S1  UNL     1      37.496   0.374  54.036  1.00  0.00    -0.040 SA
HETATM    7  N2  UNL     1      34.992   0.749  54.829  1.00  0.00    -0.318 N 
HETATM    8  C10 UNL     1      34.208   1.805  55.033  1.00  0.00     0.062 A 
ENDROOT
BRANCH   8   9
HETATM    9  C11 UNL     1      32.806   1.945  55.473  1.00  0.00     0.291 C 
BRANCH   9  10
HETATM   10  N3  UNL     1      31.786   1.728  54.523  1.00  0.00    -0.061 N 
ATOM     11  H32 UNL     1      32.143   1.310  53.663  1.00  0.00     0.277 HD
ATOM     12  H31 UNL     1      31.156   0.974  54.800  1.00  0.00     0.277 HD
BRANCH  10  13
HETATM   13  C12 UNL     1      31.063   2.999  54.271  1.00  0.00     0.349 C 
BRANCH  13  14
HETATM   14  C13 UNL     1      29.732   2.958  55.002  1.00  0.00     0.411 C 
HETATM   15  F1  UNL     1      29.254   1.665  55.109  1.00  0.00    -0.169 F 
HETATM   16  F2  UNL     1      28.796   3.731  54.363  1.00  0.00    -0.169 F 
HETATM   17  F3  UNL     1      29.855   3.450  56.292  1.00  0.00    -0.169 F 
ENDBRANCH  13  14
ENDBRANCH  10  13
ENDBRANCH   9  10
ENDBRANCH   8   9
BRANCH   7  18
HETATM   18  C4  UNL     1      34.728  -0.632  54.969  1.00  0.00     0.111 C 
HETATM   19  C5  UNL     1      34.120  -0.979  56.338  1.00  0.00     0.027 C 
HETATM   20  C6  UNL     1      34.329  -2.494  56.495  1.00  0.00     0.002 C 
HETATM   21  C7  UNL     1      33.426  -3.136  55.467  1.00  0.00     0.002 C 
HETATM   22  C8  UNL     1      32.773  -2.154  54.545  1.00  0.00     0.022 C 
HETATM   23  C9  UNL     1      33.749  -1.171  53.932  1.00  0.00     0.105 C 
HETATM   24 CL1  UNL     1      34.629  -2.128  52.681  1.00  0.00    -0.123 Cl
ENDBRANCH   7  18
TORSDOF 5
ENDMDL
MODEL 3
REMARK VINA RESULT: -5.334956350      0.566      1.008
REMARK  5 active torsions:
REMARK  status: ('A' for Active; 'I' for Inactive)
REMARK    1  A    between atoms: N2_7  and  C4_8 
REMARK    2  A    between atoms: C10_15  and  C11_16 
REMARK    3  A    between atoms: C11_16  and  N3_17 
REMARK    4  A    between atoms: N3_17  and  C12_20 
REMARK    5  A    between atoms: C12_20  and  C13_21 
ROOT
HETATM    1  C1  UNL     1      33.152  -1.595  55.880  1.00  0.00     0.070 C 
HETATM    2  C2  UNL     1      33.904  -1.700  54.626  1.00  0.00     0.032 A 
HETATM    3  N1  UNL     1      34.006  -2.795  53.879  1.00  0.00    -0.335 N 
ATOM      4  H1  UNL     1      33.578  -3.699  54.081  1.00  0.00     0.168 HD
HETATM    5  C3  UNL     1      34.766  -2.508  52.819  1.00  0.00     0.179 A 
HETATM    6  S1  UNL     1      35.126  -3.583  51.666  1.00  0.00    -0.040 SA
HETATM    7  N2  UNL     1      35.180  -1.210  52.850  1.00  0.00    -0.318 N 
HETATM    8  C10 UNL     1      34.659  -0.689  53.957  1.00  0.00     0.062 A 
ENDROOT
BRANCH   8   9
HETATM    9  C11 UNL     1      34.735   0.653  54.569  1.00  0.00     0.291 C 
BRANCH   9  10
HETATM   10  N3  UNL     1      33.780   1.616  54.181  1.00  0.00    -0.061 N 
ATOM     11  H32 UNL     1      34.181   2.333  53.576  1.00  0.00     0.277 HD
ATOM     12  H31 UNL     1      33.096   1.237  53.525  1.00  0.00     0.277 HD
BRANCH  10  13
HETATM   13  C12 UNL     1      33.139   2.194  55.388  1.00  0.00     0.349 C 
BRANCH  13  14
HETATM   14  C13 UNL     1      32.797   3.648  55.112  1.00  0.00     0.411 C 
HETATM   15  F1  UNL     1      32.322   4.280  56.246  1.00  0.00    -0.169 F 
HETATM   16  F2  UNL     1      31.861   3.752  54.115  1.00  0.00    -0.169 F 
HETATM   17  F3  UNL     1      33.915   4.354  54.696  1.00  0.00    -0.169 F 
ENDBRANCH  13  14
ENDBRANCH  10  13
ENDBRANCH   9  10
ENDBRANCH   8   9
BRANCH   7  18
HETATM   18  C4  UNL     1      36.009  -0.629  51.863  1.00  0.00     0.111 C 
HETATM   19  C5  UNL     1      35.241   0.336  50.943  1.00  0.00     0.027 C 
HETATM   20  C6  UNL     1      36.133   0.500  49.703  1.00  0.00     0.002 C 
HETATM   21  C7  UNL     1      37.350   1.261  50.177  1.00  0.00     0.002 C 
HETATM   22  C8  UNL     1      37.394   1.458  51.660  1.00  0.00     0.022 C 
HETATM   23  C9  UNL     1      37.165   0.179  52.439  1.00  0.00     0.105 C 
HETATM   24 CL1  UNL     1      38.711  -0.736  52.272  1.00  0.00    -0.123 Cl
ENDBRANCH   7  18
TORSDOF 5
ENDMDL
MODEL 4
REMARK VINA RESULT: -5.283872754      2.332      3.072
REMARK  5 active torsions:
REMARK  status: ('A' for Active; 'I' for Inactive)
REMARK    1  A    between atoms: N2_7  and  C4_8 
REMARK    2  A    between atoms: C10_15  and  C11_16 
REMARK    3  A    between atoms: C11_16  and  N3_17 
REMARK    4  A    between atoms: N3_17  and  C12_20 
REMARK    5  A    between atoms: C12_20  and  C13_21 
ROOT
HETATM    1  C1  UNL     1      34.309   0.845  57.407  1.00  0.00     0.070 C 
HETATM    2  C2  UNL     1      35.218   0.467  56.321  1.00  0.00     0.032 A 
HETATM    3  N1  UNL     1      36.535   0.318  56.436  1.00  0.00    -0.335 N 
ATOM      4  H1  UNL     1      37.079   0.447  57.289  1.00  0.00     0.168 HD
HETATM    5  C3  UNL     1      37.021  -0.030  55.242  1.00  0.00     0.179 A 
HETATM    6  S1  UNL     1      38.591  -0.308  54.967  1.00  0.00    -0.040 SA
HETATM    7  N2  UNL     1      36.027  -0.116  54.313  1.00  0.00    -0.318 N 
HETATM    8  C10 UNL     1      34.902   0.186  54.957  1.00  0.00     0.062 A 
ENDROOT
BRANCH   8   9
HETATM    9  C11 UNL     1      33.492   0.282  54.528  1.00  0.00     0.291 C 
BRANCH   9  10
HETATM   10  N3  UNL     1      32.991   1.552  54.175  1.00  0.00    -0.061 N 
ATOM     11  H32 UNL     1      33.569   2.310  54.539  1.00  0.00     0.277 HD
ATOM     12  H31 UNL     1      33.104   1.748  53.180  1.00  0.00     0.277 HD
BRANCH  10  13
HETATM   13  C12 UNL     1      31.576   1.665  54.612  1.00  0.00     0.349 C 
BRANCH  13  14
HETATM   14  C13 UNL     1      31.134   3.111  54.468  1.00  0.00     0.411 C 
HETATM   15  F1  UNL     1      30.206   3.258  53.454  1.00  0.00    -0.169 F 
HETATM   16  F2  UNL     1      32.204   3.931  54.219  1.00  0.00    -0.169 F 
HETATM   17  F3  UNL     1      30.534   3.567  55.632  1.00  0.00    -0.169 F 
ENDBRANCH  13  14
ENDBRANCH  10  13
ENDBRANCH   9  10
ENDBRANCH   8   9
BRANCH   7  18
HETATM   18  C4  UNL     1      36.248  -0.452  52.959  1.00  0.00     0.111 C 
HETATM   19  C5  UNL     1      35.413  -1.664  52.510  1.00  0.00     0.027 C 
HETATM   20  C6  UNL     1      36.094  -2.163  51.225  1.00  0.00     0.002 C 
HETATM   21  C7  UNL     1      35.848  -1.086  50.193  1.00  0.00     0.002 C 
HETATM   22  C8  UNL     1      35.206   0.145  50.751  1.00  0.00     0.022 C 
HETATM   23  C9  UNL     1      35.901   0.672  51.989  1.00  0.00     0.105 C 
HETATM   24 CL1  UNL     1      37.407   1.446  51.368  1.00  0.00    -0.123 Cl
ENDBRANCH   7  18
TORSDOF 5
ENDMDL
MODEL 5
REMARK VINA RESULT: -5.102749011      2.929      4.827
REMARK  5 active torsions:
REMARK  status: ('A' for Active; 'I' for Inactive)
REMARK    1  A    between atoms: N2_7  and  C4_8 
REMARK    2  A    between atoms: C10_15  and  C11_16 
REMARK    3  A    between atoms: C11_16  and  N3_17 
REMARK    4  A    between atoms: N3_17  and  C12_20 
REMARK    5  A    between atoms: C12_20  and  C13_21 
ROOT
HETATM    1  C1  UNL     1      35.770   3.095  54.525  1.00  0.00     0.070 C 
HETATM    2  C2  UNL     1      35.726   1.631  54.542  1.00  0.00     0.032 A 
HETATM    3  N1  UNL     1      36.706   0.826  54.143  1.00  0.00    -0.335 N 
ATOM      4  H1  UNL     1      37.611   1.122  53.775  1.00  0.00     0.168 HD
HETATM    5  C3  UNL     1      36.303  -0.437  54.306  1.00  0.00     0.179 A 
HETATM    6  S1  UNL     1      37.218  -1.718  53.936  1.00  0.00    -0.040 SA
HETATM    7  N2  UNL     1      35.041  -0.486  54.819  1.00  0.00    -0.318 N 
HETATM    8  C10 UNL     1      34.663   0.780  54.974  1.00  0.00     0.062 A 
ENDROOT
BRANCH   8   9
HETATM    9  C11 UNL     1      33.420   1.405  55.470  1.00  0.00     0.291 C 
BRANCH   9  10
HETATM   10  N3  UNL     1      32.342   1.545  54.572  1.00  0.00    -0.061 N 
ATOM     11  H32 UNL     1      32.581   1.230  53.631  1.00  0.00     0.277 HD
ATOM     12  H31 UNL     1      31.593   0.879  54.763  1.00  0.00     0.277 HD
BRANCH  10  13
HETATM   13  C12 UNL     1      31.862   2.949  54.588  1.00  0.00     0.349 C 
BRANCH  13  14
HETATM   14  C13 UNL     1      30.343   2.947  54.555  1.00  0.00     0.411 C 
HETATM   15  F1  UNL     1      29.818   3.930  55.374  1.00  0.00    -0.169 F 
HETATM   16  F2  UNL     1      29.843   1.730  54.938  1.00  0.00    -0.169 F 
HETATM   17  F3  UNL     1      29.872   3.196  53.274  1.00  0.00    -0.169 F 
ENDBRANCH  13  14
ENDBRANCH  10  13
ENDBRANCH   9  10
ENDBRANCH   8   9
BRANCH   7  18
HETATM   18  C4  UNL     1      34.350  -1.690  55.085  1.00  0.00     0.111 C 
HETATM   19  C5  UNL     1      33.857  -1.776  56.539  1.00  0.00     0.027 C 
HETATM   20  C6  UNL     1      33.564  -3.267  56.773  1.00  0.00     0.002 C 
HETATM   21  C7  UNL     1      32.365  -3.585  55.910  1.00  0.00     0.002 C 
HETATM   22  C8  UNL     1      31.959  -2.461  55.009  1.00  0.00     0.022 C 
HETATM   23  C9  UNL     1      33.114  -1.886  54.215  1.00  0.00     0.105 C 
HETATM   24 CL1  UNL     1      33.440  -3.115  52.935  1.00  0.00    -0.123 Cl
ENDBRANCH   7  18
TORSDOF 5
ENDMDL
