MODEL 1
REMARK VINA RESULT: -6.201047917      0.000      0.000
REMARK  4 active torsions:
REMARK  status: ('A' for Active; 'I' for Inactive)
REMARK    1  A    between atoms: C7_11  and  C8_12 
REMARK    2  A    between atoms: C7_11  and  C9_15 
REMARK    3  A    between atoms: C8_12  and  O5_13 
REMARK    4  A    between atoms: C9_15  and  O6_16 
ROOT
HETATM    1  O1  UNL     1      -1.692   1.117  11.469  1.00  0.00    -0.262 OA
HETATM    2  C1  UNL     1      -2.862   1.567  11.749  1.00  0.00     0.298 C 
HETATM    3  O2  UNL     1      -3.217   2.817  12.040  1.00  0.00    -0.315 OA
HETATM    4  C2  UNL     1      -3.195   3.808  12.932  1.00  0.00     0.206 C 
HETATM    5  C3  UNL     1      -4.484   4.469  13.304  1.00  0.00    -0.002 C 
HETATM    6  C4  UNL     1      -5.312   3.980  14.222  1.00  0.00    -0.003 C 
HETATM    7  C5  UNL     1      -4.977   2.702  14.945  1.00  0.00     0.197 C 
HETATM    8  O3  UNL     1      -5.340   1.650  14.107  1.00  0.00    -0.363 OA
HETATM    9  C6  UNL     1      -4.432   0.650  14.034  1.00  0.00     0.340 C 
HETATM   10  O4  UNL     1      -4.245  -0.017  12.916  1.00  0.00    -0.341 OA
HETATM   11  C7  UNL     1      -3.916   0.496  11.726  1.00  0.00     0.192 C 
ENDROOT
BRANCH  11  12
HETATM   12  C8  UNL     1      -5.066   0.873  10.827  1.00  0.00     0.215 C 
BRANCH  12  13
HETATM   13  O5  UNL     1      -5.816   1.931  11.205  1.00  0.00    -0.397 OA
ATOM     14  H5  UNL     1      -6.684   1.743  11.542  1.00  0.00     0.209 HD
ENDBRANCH  12  13
ENDBRANCH  11  12
BRANCH  11  15
HETATM   15  C9  UNL     1      -3.387  -0.763  10.981  1.00  0.00     0.215 C 
BRANCH  15  16
HETATM   16  O6  UNL     1      -3.431  -0.455   9.626  1.00  0.00    -0.397 OA
ATOM     17  H6  UNL     1      -4.346  -0.507   9.373  1.00  0.00     0.209 HD
ENDBRANCH  15  16
ENDBRANCH  11  15
TORSDOF 4
ENDMDL
MODEL 2
REMARK VINA RESULT: -6.001698105      1.151      1.242
REMARK  4 active torsions:
REMARK  status: ('A' for Active; 'I' for Inactive)
REMARK    1  A    between atoms: C7_11  and  C8_12 
REMARK    2  A    between atoms: C7_11  and  C9_15 
REMARK    3  A    between atoms: C8_12  and  O5_13 
REMARK    4  A    between atoms: C9_15  and  O6_16 
ROOT
HETATM    1  O1  UNL     1      -1.858   2.564  11.922  1.00  0.00    -0.262 OA
HETATM    2  C1  UNL     1      -3.113   2.766  12.105  1.00  0.00     0.298 C 
HETATM    3  O2  UNL     1      -3.754   3.928  12.212  1.00  0.00    -0.315 OA
HETATM    4  C2  UNL     1      -4.005   5.004  12.960  1.00  0.00     0.206 C 
HETATM    5  C3  UNL     1      -5.427   5.395  13.203  1.00  0.00    -0.002 C 
HETATM    6  C4  UNL     1      -6.177   4.850  14.157  1.00  0.00    -0.003 C 
HETATM    7  C5  UNL     1      -5.608   3.785  15.056  1.00  0.00     0.197 C 
HETATM    8  O3  UNL     1      -5.679   2.580  14.361  1.00  0.00    -0.363 OA
HETATM    9  C6  UNL     1      -4.569   1.813  14.450  1.00  0.00     0.340 C 
HETATM   10  O4  UNL     1      -4.174   1.069  13.440  1.00  0.00    -0.341 OA
HETATM   11  C7  UNL     1      -3.899   1.488  12.201  1.00  0.00     0.192 C 
ENDROOT
BRANCH  11  12
HETATM   12  C8  UNL     1      -5.050   1.476  11.227  1.00  0.00     0.215 C 
BRANCH  12  13
HETATM   13  O5  UNL     1      -5.025   2.397  10.240  1.00  0.00    -0.397 OA
ATOM     14  H5  UNL     1      -4.361   2.290   9.569  1.00  0.00     0.209 HD
ENDBRANCH  12  13
ENDBRANCH  11  12
BRANCH  11  15
HETATM   15  C9  UNL     1      -3.061   0.300  11.649  1.00  0.00     0.215 C 
BRANCH  15  16
HETATM   16  O6  UNL     1      -3.006   0.474  10.271  1.00  0.00    -0.397 OA
ATOM     17  H6  UNL     1      -3.838   0.859  10.020  1.00  0.00     0.209 HD
ENDBRANCH  15  16
ENDBRANCH  11  15
TORSDOF 4
ENDMDL
MODEL 3
REMARK VINA RESULT: -5.806035058      1.919      3.588
REMARK  4 active torsions:
REMARK  status: ('A' for Active; 'I' for Inactive)
REMARK    1  A    between atoms: C7_11  and  C8_12 
REMARK    2  A    between atoms: C7_11  and  C9_15 
REMARK    3  A    between atoms: C8_12  and  O5_13 
REMARK    4  A    between atoms: C9_15  and  O6_16 
ROOT
HETATM    1  O1  UNL     1      -4.182   1.100  11.769  1.00  0.00    -0.262 OA
HETATM    2  C1  UNL     1      -4.117   1.704  12.901  1.00  0.00     0.298 C 
HETATM    3  O2  UNL     1      -3.987   1.170  14.113  1.00  0.00    -0.315 OA
HETATM    4  C2  UNL     1      -4.564   0.486  15.103  1.00  0.00     0.206 C 
HETATM    5  C3  UNL     1      -4.507   1.043  16.490  1.00  0.00    -0.002 C 
HETATM    6  C4  UNL     1      -5.363   1.956  16.941  1.00  0.00    -0.003 C 
HETATM    7  C5  UNL     1      -6.454   2.482  16.048  1.00  0.00     0.197 C 
HETATM    8  O3  UNL     1      -5.886   3.465  15.241  1.00  0.00    -0.363 OA
HETATM    9  C6  UNL     1      -6.250   3.406  13.940  1.00  0.00     0.340 C 
HETATM   10  O4  UNL     1      -5.409   3.731  12.983  1.00  0.00    -0.341 OA
HETATM   11  C7  UNL     1      -4.202   3.199  12.767  1.00  0.00     0.192 C 
ENDROOT
BRANCH  11  12
HETATM   12  C8  UNL     1      -3.045   3.880  13.454  1.00  0.00     0.215 C 
BRANCH  12  13
HETATM   13  O5  UNL     1      -2.967   3.747  14.795  1.00  0.00    -0.397 OA
ATOM     14  H5  UNL     1      -3.567   3.134  15.201  1.00  0.00     0.209 HD
ENDBRANCH  12  13
ENDBRANCH  11  12
BRANCH  11  15
HETATM   15  C9  UNL     1      -3.935   3.622  11.294  1.00  0.00     0.215 C 
BRANCH  15  16
HETATM   16  O6  UNL     1      -5.108   3.353  10.597  1.00  0.00    -0.397 OA
ATOM     17  H6  UNL     1      -4.977   3.695   9.720  1.00  0.00     0.209 HD
ENDBRANCH  15  16
ENDBRANCH  11  15
TORSDOF 4
ENDMDL
MODEL 4
REMARK VINA RESULT: -5.634152299      1.467      2.923
REMARK  4 active torsions:
REMARK  status: ('A' for Active; 'I' for Inactive)
REMARK    1  A    between atoms: C7_11  and  C8_12 
REMARK    2  A    between atoms: C7_11  and  C9_15 
REMARK    3  A    between atoms: C8_12  and  O5_13 
REMARK    4  A    between atoms: C9_15  and  O6_16 
ROOT
HETATM    1  O1  UNL     1      -4.731   0.207  12.710  1.00  0.00    -0.262 OA
HETATM    2  C1  UNL     1      -3.942   1.217  12.615  1.00  0.00     0.298 C 
HETATM    3  O2  UNL     1      -3.628   2.109  13.551  1.00  0.00    -0.315 OA
HETATM    4  C2  UNL     1      -4.025   3.153  14.281  1.00  0.00     0.206 C 
HETATM    5  C3  UNL     1      -3.167   4.376  14.313  1.00  0.00    -0.002 C 
HETATM    6  C4  UNL     1      -3.211   5.319  13.376  1.00  0.00    -0.003 C 
HETATM    7  C5  UNL     1      -4.154   5.187  12.209  1.00  0.00     0.197 C 
HETATM    8  O3  UNL     1      -3.545   4.343  11.283  1.00  0.00    -0.363 OA
HETATM    9  C6  UNL     1      -4.366   3.415  10.741  1.00  0.00     0.340 C 
HETATM   10  O4  UNL     1      -3.925   2.217  10.428  1.00  0.00    -0.341 OA
HETATM   11  C7  UNL     1      -3.329   1.347  11.248  1.00  0.00     0.192 C 
ENDROOT
BRANCH  11  12
HETATM   12  C8  UNL     1      -1.826   1.431  11.325  1.00  0.00     0.215 C 
BRANCH  12  13
HETATM   13  O5  UNL     1      -1.305   2.518  11.934  1.00  0.00    -0.397 OA
ATOM     14  H5  UNL     1      -0.472   2.404  12.376  1.00  0.00     0.209 HD
ENDBRANCH  12  13
ENDBRANCH  11  12
BRANCH  11  15
HETATM   15  C9  UNL     1      -3.489   0.016  10.459  1.00  0.00     0.215 C 
BRANCH  15  16
HETATM   16  O6  UNL     1      -4.689   0.122   9.764  1.00  0.00    -0.397 OA
ATOM     17  H6  UNL     1      -5.350   0.341  10.411  1.00  0.00     0.209 HD
ENDBRANCH  15  16
ENDBRANCH  11  15
TORSDOF 4
ENDMDL
MODEL 5
REMARK VINA RESULT: -5.562149792      2.444      3.934
REMARK  4 active torsions:
REMARK  status: ('A' for Active; 'I' for Inactive)
REMARK    1  A    between atoms: C7_11  and  C8_12 
REMARK    2  A    between atoms: C7_11  and  C9_15 
REMARK    3  A    between atoms: C8_12  and  O5_13 
REMARK    4  A    between atoms: C9_15  and  O6_16 
ROOT
HETATM    1  O1  UNL     1      -4.514   0.839  13.311  1.00  0.00    -0.262 OA
HETATM    2  C1  UNL     1      -4.787   2.067  13.571  1.00  0.00     0.298 C 
HETATM    3  O2  UNL     1      -5.034   3.056  12.715  1.00  0.00    -0.315 OA
HETATM    4  C2  UNL     1      -4.539   3.903  11.810  1.00  0.00     0.206 C 
HETATM    5  C3  UNL     1      -4.834   5.362  11.955  1.00  0.00    -0.002 C 
HETATM    6  C4  UNL     1      -4.133   6.170  12.745  1.00  0.00    -0.003 C 
HETATM    7  C5  UNL     1      -2.981   5.632  13.552  1.00  0.00     0.197 C 
HETATM    8  O3  UNL     1      -3.519   5.041  14.692  1.00  0.00    -0.363 OA
HETATM    9  C6  UNL     1      -2.976   3.845  15.015  1.00  0.00     0.340 C 
HETATM   10  O4  UNL     1      -3.704   2.892  15.554  1.00  0.00    -0.341 OA
HETATM   11  C7  UNL     1      -4.818   2.355  15.046  1.00  0.00     0.192 C 
ENDROOT
BRANCH  11  12
HETATM   12  C8  UNL     1      -6.114   3.010  15.452  1.00  0.00     0.215 C 
BRANCH  12  13
HETATM   13  O5  UNL     1      -6.357   4.242  14.957  1.00  0.00    -0.397 OA
ATOM     14  H5  UNL     1      -6.062   4.415  14.071  1.00  0.00     0.209 HD
ENDBRANCH  12  13
ENDBRANCH  11  12
BRANCH  11  15
HETATM   15  C9  UNL     1      -4.918   1.027  15.850  1.00  0.00     0.215 C 
BRANCH  15  16
HETATM   16  O6  UNL     1      -3.624   0.728  16.262  1.00  0.00    -0.397 OA
ATOM     17  H6  UNL     1      -3.609   0.862  17.202  1.00  0.00     0.209 HD
ENDBRANCH  15  16
ENDBRANCH  11  15
TORSDOF 4
ENDMDL
