MODEL 1
REMARK VINA RESULT: -8.190869629      0.000      0.000
REMARK  16 active torsions:
REMARK  status: ('A' for Active; 'I' for Inactive)
REMARK    1  A    between atoms: C2_2  and  O1_3 
REMARK    2  A    between atoms: C2_2  and  N1_5 
REMARK    3  A    between atoms: C2_2  and  C8_22 
REMARK    4  A    between atoms: N1_5  and  C3_8 
REMARK    5  A    between atoms: C3_8  and  C4_9 
REMARK    6  A    between atoms: C4_9  and  C5_10 
REMARK    7  A    between atoms: N3_13  and  C6_14 
REMARK    8  A    between atoms: C6_14  and  C7_15 
REMARK    9  A    between atoms: C7_15  and  N4_16 
REMARK   10  A    between atoms: C10_28  and  C11_29 
REMARK   11  A    between atoms: C11_29  and  O2_30 
REMARK   12  A    between atoms: C11_29  and  C12_32 
REMARK   13  A    between atoms: C12_32  and  O3_33 
REMARK   14  A    between atoms: C15_41  and  O4_42 
REMARK   15  A    between atoms: C18_47  and  O5_48 
REMARK   16  A    between atoms: C20_52  and  O7_53 
ROOT
HETATM    1  C8  UNL     1      19.031  48.763  -9.047  1.00  0.00     0.123 C 
HETATM    2  N6  UNL     1      18.679  49.941  -9.477  1.00  0.00    -0.280 N 
ATOM      3  H6  UNL     1      18.711  49.986 -10.496  1.00  0.00     0.184 HD
HETATM    4  N7  UNL     1      18.280  51.131  -8.944  1.00  0.00    -0.011 NA
HETATM    5  N8  UNL     1      17.274  50.989  -7.980  1.00  0.00    -0.198 N 
HETATM    6  C9  UNL     1      16.356  50.046  -8.234  1.00  0.00     0.113 A 
HETATM    7  C10 UNL     1      16.018  49.512  -9.476  1.00  0.00     0.073 C 
HETATM    8  N9  UNL     1      16.422  48.149  -9.751  1.00  0.00    -0.339 N 
ATOM      9  H9  UNL     1      16.333  47.711 -10.668  1.00  0.00     0.167 HD
HETATM   10  C13 UNL     1      16.956  47.487  -8.620  1.00  0.00     0.143 C 
HETATM   11  N10 UNL     1      16.273  46.798  -7.694  1.00  0.00    -0.324 N 
ATOM     12  H10 UNL     1      16.480  45.801  -7.634  1.00  0.00     0.169 HD
HETATM   13  C14 UNL     1      15.300  47.286  -6.792  1.00  0.00     0.149 A 
HETATM   14  C15 UNL     1      14.361  47.019  -5.897  1.00  0.00     0.126 A 
HETATM   15  C16 UNL     1      14.098  48.369  -5.577  1.00  0.00     0.139 A 
HETATM   16  N11 UNL     1      14.993  48.695  -6.429  1.00  0.00    -0.298 N 
HETATM   17  C17 UNL     1      15.693  49.773  -6.938  1.00  0.00     0.110 A 
HETATM   18  C18 UNL     1      16.246  50.620  -6.003  1.00  0.00     0.166 A 
HETATM   19  C19 UNL     1      17.221  51.348  -6.700  1.00  0.00     0.301 A 
HETATM   20  O6  UNL     1      17.922  52.218  -6.132  1.00  0.00    -0.263 OA
HETATM   21  C20 UNL     1      18.260  47.725  -8.454  1.00  0.00     0.139 C 
ENDROOT
BRANCH   1  22
HETATM   22  C2  UNL     1      20.488  48.277  -9.173  1.00  0.00     0.267 C 
HETATM   23  C1  UNL     1      21.331  49.238  -9.943  1.00  0.00     0.086 C 
BRANCH  22  24
HETATM   24  O1  UNL     1      21.057  48.138  -7.909  1.00  0.00    -0.360 OA
ATOM     25  H1  UNL     1      20.970  47.228  -7.654  1.00  0.00     0.213 HD
ENDBRANCH  22  24
BRANCH  22  26
HETATM   26  N1  UNL     1      20.560  47.004  -9.826  1.00  0.00    -0.037 N 
ATOM     27  H12 UNL     1      21.320  46.448  -9.434  1.00  0.00     0.281 HD
ATOM     28  H11 UNL     1      19.763  46.425  -9.561  1.00  0.00     0.281 HD
BRANCH  26  29
HETATM   29  C3  UNL     1      20.674  47.065 -11.242  1.00  0.00     0.244 C 
BRANCH  29  30
HETATM   30  C4  UNL     1      20.741  45.610 -11.723  1.00  0.00     0.107 C 
BRANCH  30  31
HETATM   31  C5  UNL     1      22.115  45.273 -12.099  1.00  0.00     0.114 A 
HETATM   32  N2  UNL     1      23.057  45.794 -12.907  1.00  0.00    -0.271 N 
HETATM   33  N3  UNL     1      23.895  44.829 -12.583  1.00  0.00    -0.230 N 
ATOM     34  H2  UNL     1      23.103  46.606 -13.523  1.00  0.00     0.190 HD
HETATM   35  N5  UNL     1      22.971  44.307 -11.782  1.00  0.00    -0.271 N 
ATOM     36  H5  UNL     1      22.934  43.492 -11.170  1.00  0.00     0.190 HD
BRANCH  33  37
HETATM   37  C6  UNL     1      25.253  44.457 -12.923  1.00  0.00     0.196 C 
BRANCH  37  38
HETATM   38  C7  UNL     1      26.109  45.704 -12.908  1.00  0.00     0.253 C 
BRANCH  38  39
HETATM   39  N4  UNL     1      26.450  46.047 -14.288  1.00  0.00    -0.078 N 
ATOM     40  H43 UNL     1      26.026  45.414 -14.966  1.00  0.00     0.274 HD
ATOM     41  H42 UNL     1      25.999  46.907 -14.600  1.00  0.00     0.274 HD
ATOM     42  H41 UNL     1      27.465  46.086 -14.369  1.00  0.00     0.274 HD
ENDBRANCH  38  39
ENDBRANCH  37  38
ENDBRANCH  33  37
ENDBRANCH  30  31
ENDBRANCH  29  30
ENDBRANCH  26  29
ENDBRANCH  22  26
ENDBRANCH   1  22
BRANCH  21  43
HETATM   43  O7  UNL     1      18.937  46.854  -7.595  1.00  0.00    -0.355 OA
ATOM     44  H7  UNL     1      18.583  45.976  -7.513  1.00  0.00     0.218 HD
ENDBRANCH  21  43
BRANCH   7  45
HETATM   45  C11 UNL     1      15.249  50.094 -10.571  1.00  0.00     0.193 C 
BRANCH  45  46
HETATM   46  O2  UNL     1      15.188  51.469 -10.631  1.00  0.00    -0.387 OA
ATOM     47  H2  UNL     1      15.119  51.935  -9.806  1.00  0.00     0.210 HD
ENDBRANCH  45  46
BRANCH  45  48
HETATM   48  C12 UNL     1      15.975  49.681 -11.865  1.00  0.00     0.202 C 
BRANCH  48  49
HETATM   49  O3  UNL     1      17.221  50.244 -11.924  1.00  0.00    -0.398 OA
ATOM     50  H3  UNL     1      17.596  50.144 -12.791  1.00  0.00     0.209 HD
ENDBRANCH  48  49
ENDBRANCH  45  48
ENDBRANCH   7  45
BRANCH  18  51
HETATM   51  O5  UNL     1      15.837  50.644  -4.702  1.00  0.00    -0.354 OA
ATOM     52  H5  UNL     1      16.296  50.178  -4.014  1.00  0.00     0.218 HD
ENDBRANCH  18  51
BRANCH  14  53
HETATM   53  O4  UNL     1      13.830  45.831  -5.442  1.00  0.00    -0.356 OA
ATOM     54  H4  UNL     1      13.780  45.448  -4.574  1.00  0.00     0.218 HD
ENDBRANCH  14  53
TORSDOF 16
ENDMDL
MODEL 2
REMARK VINA RESULT: -7.827415791      3.052      5.635
REMARK  16 active torsions:
REMARK  status: ('A' for Active; 'I' for Inactive)
REMARK    1  A    between atoms: C2_2  and  O1_3 
REMARK    2  A    between atoms: C2_2  and  N1_5 
REMARK    3  A    between atoms: C2_2  and  C8_22 
REMARK    4  A    between atoms: N1_5  and  C3_8 
REMARK    5  A    between atoms: C3_8  and  C4_9 
REMARK    6  A    between atoms: C4_9  and  C5_10 
REMARK    7  A    between atoms: N3_13  and  C6_14 
REMARK    8  A    between atoms: C6_14  and  C7_15 
REMARK    9  A    between atoms: C7_15  and  N4_16 
REMARK   10  A    between atoms: C10_28  and  C11_29 
REMARK   11  A    between atoms: C11_29  and  O2_30 
REMARK   12  A    between atoms: C11_29  and  C12_32 
REMARK   13  A    between atoms: C12_32  and  O3_33 
REMARK   14  A    between atoms: C15_41  and  O4_42 
REMARK   15  A    between atoms: C18_47  and  O5_48 
REMARK   16  A    between atoms: C20_52  and  O7_53 
ROOT
HETATM    1  C8  UNL     1      17.674  47.059  -4.503  1.00  0.00     0.123 C 
HETATM    2  N6  UNL     1      16.877  46.584  -5.418  1.00  0.00    -0.280 N 
ATOM      3  H6  UNL     1      16.132  46.024  -5.004  1.00  0.00     0.184 HD
HETATM    4  N7  UNL     1      16.763  46.630  -6.777  1.00  0.00    -0.011 NA
HETATM    5  N8  UNL     1      16.870  47.927  -7.292  1.00  0.00    -0.198 N 
HETATM    6  C9  UNL     1      16.301  48.892  -6.556  1.00  0.00     0.113 A 
HETATM    7  C10 UNL     1      15.280  48.747  -5.619  1.00  0.00     0.073 C 
HETATM    8  N9  UNL     1      15.626  48.905  -4.222  1.00  0.00    -0.339 N 
ATOM      9  H9  UNL     1      14.984  48.698  -3.457  1.00  0.00     0.167 HD
HETATM   10  C13 UNL     1      16.946  49.374  -4.025  1.00  0.00     0.143 C 
HETATM   11  N10 UNL     1      17.348  50.653  -3.977  1.00  0.00    -0.324 N 
ATOM     12  H10 UNL     1      17.739  50.967  -3.089  1.00  0.00     0.169 HD
HETATM   13  C14 UNL     1      17.294  51.618  -5.008  1.00  0.00     0.149 A 
HETATM   14  C15 UNL     1      17.419  52.886  -5.371  1.00  0.00     0.126 A 
HETATM   15  C16 UNL     1      17.198  52.651  -6.746  1.00  0.00     0.139 A 
HETATM   16  N11 UNL     1      17.064  51.412  -6.463  1.00  0.00    -0.298 N 
HETATM   17  C17 UNL     1      16.899  50.161  -7.030  1.00  0.00     0.110 A 
HETATM   18  C18 UNL     1      17.761  49.855  -8.059  1.00  0.00     0.166 A 
HETATM   19  C19 UNL     1      17.707  48.458  -8.178  1.00  0.00     0.301 A 
HETATM   20  O6  UNL     1      18.387  47.846  -9.035  1.00  0.00    -0.263 OA
HETATM   21  C20 UNL     1      17.847  48.387  -4.024  1.00  0.00     0.139 C 
ENDROOT
BRANCH   1  22
HETATM   22  C2  UNL     1      18.611  46.127  -3.709  1.00  0.00     0.267 C 
HETATM   23  C1  UNL     1      18.206  46.019  -2.277  1.00  0.00     0.086 C 
BRANCH  22  24
HETATM   24  O1  UNL     1      18.582  44.845  -4.251  1.00  0.00    -0.360 OA
ATOM     25  H1  UNL     1      19.480  44.547  -4.330  1.00  0.00     0.213 HD
ENDBRANCH  22  24
BRANCH  22  26
HETATM   26  N1  UNL     1      19.967  46.589  -3.752  1.00  0.00    -0.037 N 
ATOM     27  H12 UNL     1      19.995  47.580  -3.993  1.00  0.00     0.281 HD
ATOM     28  H11 UNL     1      20.358  46.624  -2.811  1.00  0.00     0.281 HD
BRANCH  26  29
HETATM   29  C3  UNL     1      20.822  45.848  -4.614  1.00  0.00     0.244 C 
BRANCH  29  30
HETATM   30  C4  UNL     1      21.111  46.765  -5.810  1.00  0.00     0.107 C 
BRANCH  30  31
HETATM   31  C5  UNL     1      20.649  46.130  -7.046  1.00  0.00     0.114 A 
HETATM   32  N2  UNL     1      21.060  46.080  -8.325  1.00  0.00    -0.271 N 
HETATM   33  N3  UNL     1      20.042  45.305  -8.642  1.00  0.00    -0.230 N 
ATOM     34  H2  UNL     1      21.844  46.480  -8.842  1.00  0.00     0.190 HD
HETATM   35  N5  UNL     1      19.627  45.349  -7.380  1.00  0.00    -0.271 N 
ATOM     36  H5  UNL     1      18.840  44.945  -6.872  1.00  0.00     0.190 HD
BRANCH  33  37
HETATM   37  C6  UNL     1      19.547  44.655  -9.838  1.00  0.00     0.196 C 
BRANCH  37  38
HETATM   38  C7  UNL     1      20.451  43.485 -10.157  1.00  0.00     0.253 C 
BRANCH  38  39
HETATM   39  N4  UNL     1      20.721  43.487 -11.594  1.00  0.00    -0.078 N 
ATOM     40  H43 UNL     1      21.622  43.908 -11.822  1.00  0.00     0.274 HD
ATOM     41  H42 UNL     1      20.908  42.553 -11.958  1.00  0.00     0.274 HD
ATOM     42  H41 UNL     1      19.943  43.944 -12.068  1.00  0.00     0.274 HD
ENDBRANCH  38  39
ENDBRANCH  37  38
ENDBRANCH  33  37
ENDBRANCH  30  31
ENDBRANCH  29  30
ENDBRANCH  26  29
ENDBRANCH  22  26
ENDBRANCH   1  22
BRANCH  21  43
HETATM   43  O7  UNL     1      19.102  48.703  -3.494  1.00  0.00    -0.355 OA
ATOM     44  H7  UNL     1      19.127  49.396  -2.844  1.00  0.00     0.218 HD
ENDBRANCH  21  43
BRANCH   7  45
HETATM   45  C11 UNL     1      13.854  48.506  -5.813  1.00  0.00     0.193 C 
BRANCH  45  46
HETATM   46  O2  UNL     1      13.458  48.056  -7.054  1.00  0.00    -0.387 OA
ATOM     47  H2  UNL     1      14.139  47.743  -7.637  1.00  0.00     0.210 HD
ENDBRANCH  45  46
BRANCH  45  48
HETATM   48  C12 UNL     1      13.483  47.362  -4.849  1.00  0.00     0.202 C 
BRANCH  48  49
HETATM   49  O3  UNL     1      14.051  46.184  -5.252  1.00  0.00    -0.398 OA
ATOM     50  H3  UNL     1      13.436  45.669  -5.761  1.00  0.00     0.209 HD
ENDBRANCH  48  49
ENDBRANCH  45  48
ENDBRANCH   7  45
BRANCH  18  51
HETATM   51  O5  UNL     1      18.462  50.808  -8.738  1.00  0.00    -0.354 OA
ATOM     52  H5  UNL     1      18.105  51.669  -8.924  1.00  0.00     0.218 HD
ENDBRANCH  18  51
BRANCH  14  53
HETATM   53  O4  UNL     1      17.674  54.032  -4.648  1.00  0.00    -0.356 OA
ATOM     54  H4  UNL     1      18.071  54.860  -4.889  1.00  0.00     0.218 HD
ENDBRANCH  14  53
TORSDOF 16
ENDMDL
MODEL 3
REMARK VINA RESULT: -7.617662369      3.051      5.231
REMARK  16 active torsions:
REMARK  status: ('A' for Active; 'I' for Inactive)
REMARK    1  A    between atoms: C2_2  and  O1_3 
REMARK    2  A    between atoms: C2_2  and  N1_5 
REMARK    3  A    between atoms: C2_2  and  C8_22 
REMARK    4  A    between atoms: N1_5  and  C3_8 
REMARK    5  A    between atoms: C3_8  and  C4_9 
REMARK    6  A    between atoms: C4_9  and  C5_10 
REMARK    7  A    between atoms: N3_13  and  C6_14 
REMARK    8  A    between atoms: C6_14  and  C7_15 
REMARK    9  A    between atoms: C7_15  and  N4_16 
REMARK   10  A    between atoms: C10_28  and  C11_29 
REMARK   11  A    between atoms: C11_29  and  O2_30 
REMARK   12  A    between atoms: C11_29  and  C12_32 
REMARK   13  A    between atoms: C12_32  and  O3_33 
REMARK   14  A    between atoms: C15_41  and  O4_42 
REMARK   15  A    between atoms: C18_47  and  O5_48 
REMARK   16  A    between atoms: C20_52  and  O7_53 
ROOT
HETATM    1  C8  UNL     1      18.891  46.301  -4.923  1.00  0.00     0.123 C 
HETATM    2  N6  UNL     1      18.171  45.775  -5.872  1.00  0.00    -0.280 N 
ATOM      3  H6  UNL     1      17.636  44.977  -5.529  1.00  0.00     0.184 HD
HETATM    4  N7  UNL     1      17.935  45.994  -7.197  1.00  0.00    -0.011 NA
HETATM    5  N8  UNL     1      17.656  47.335  -7.489  1.00  0.00    -0.198 N 
HETATM    6  C9  UNL     1      16.920  47.986  -6.577  1.00  0.00     0.113 A 
HETATM    7  C10 UNL     1      16.055  47.428  -5.638  1.00  0.00     0.073 C 
HETATM    8  N9  UNL     1      16.465  47.458  -4.249  1.00  0.00    -0.339 N 
ATOM      9  H9  UNL     1      15.965  46.970  -3.506  1.00  0.00     0.167 HD
HETATM   10  C13 UNL     1      17.629  48.232  -4.029  1.00  0.00     0.143 C 
HETATM   11  N10 UNL     1      17.686  49.549  -3.781  1.00  0.00    -0.324 N 
ATOM     12  H10 UNL     1      18.055  49.817  -2.868  1.00  0.00     0.169 HD
HETATM   13  C14 UNL     1      17.295  50.609  -4.630  1.00  0.00     0.149 A 
HETATM   14  C15 UNL     1      17.054  51.903  -4.777  1.00  0.00     0.126 A 
HETATM   15  C16 UNL     1      16.787  51.831  -6.161  1.00  0.00     0.139 A 
HETATM   16  N11 UNL     1      17.005  50.573  -6.088  1.00  0.00    -0.298 N 
HETATM   17  C17 UNL     1      17.125  49.427  -6.852  1.00  0.00     0.110 A 
HETATM   18  C18 UNL     1      17.947  49.526  -7.952  1.00  0.00     0.166 A 
HETATM   19  C19 UNL     1      18.248  48.202  -8.304  1.00  0.00     0.301 A 
HETATM   20  O6  UNL     1      18.989  47.936  -9.279  1.00  0.00    -0.263 OA
HETATM   21  C20 UNL     1      18.752  47.537  -4.232  1.00  0.00     0.139 C 
ENDROOT
BRANCH   1  22
HETATM   22  C2  UNL     1      20.102  45.549  -4.337  1.00  0.00     0.267 C 
HETATM   23  C1  UNL     1      21.396  46.156  -4.766  1.00  0.00     0.086 C 
BRANCH  22  24
HETATM   24  O1  UNL     1      20.061  45.588  -2.946  1.00  0.00    -0.360 OA
ATOM     25  H1  UNL     1      19.593  44.816  -2.651  1.00  0.00     0.213 HD
ENDBRANCH  22  24
BRANCH  22  26
HETATM   26  N1  UNL     1      20.105  44.172  -4.735  1.00  0.00    -0.037 N 
ATOM     27  H12 UNL     1      20.084  43.567  -3.915  1.00  0.00     0.281 HD
ATOM     28  H11 UNL     1      19.212  43.925  -5.161  1.00  0.00     0.281 HD
BRANCH  26  29
HETATM   29  C3  UNL     1      21.178  43.802  -5.593  1.00  0.00     0.244 C 
BRANCH  29  30
HETATM   30  C4  UNL     1      20.527  43.316  -6.895  1.00  0.00     0.107 C 
BRANCH  30  31
HETATM   31  C5  UNL     1      20.978  44.144  -8.015  1.00  0.00     0.114 A 
HETATM   32  N2  UNL     1      20.798  45.414  -8.419  1.00  0.00    -0.271 N 
HETATM   33  N3  UNL     1      21.566  45.209  -9.470  1.00  0.00    -0.230 N 
ATOM     34  H2  UNL     1      20.276  46.214  -8.059  1.00  0.00     0.190 HD
HETATM   35  N5  UNL     1      21.751  43.952  -9.079  1.00  0.00    -0.271 N 
ATOM     36  H5  UNL     1      22.274  43.158  -9.448  1.00  0.00     0.190 HD
BRANCH  33  37
HETATM   37  C6  UNL     1      22.041  45.988 -10.595  1.00  0.00     0.196 C 
BRANCH  37  38
HETATM   38  C7  UNL     1      21.130  45.732 -11.774  1.00  0.00     0.253 C 
BRANCH  38  39
HETATM   39  N4  UNL     1      20.190  46.846 -11.884  1.00  0.00    -0.078 N 
ATOM     40  H43 UNL     1      19.216  46.541 -11.856  1.00  0.00     0.274 HD
ATOM     41  H42 UNL     1      20.176  47.431 -11.049  1.00  0.00     0.274 HD
ATOM     42  H41 UNL     1      20.411  47.373 -12.728  1.00  0.00     0.274 HD
ENDBRANCH  38  39
ENDBRANCH  37  38
ENDBRANCH  33  37
ENDBRANCH  30  31
ENDBRANCH  29  30
ENDBRANCH  26  29
ENDBRANCH  22  26
ENDBRANCH   1  22
BRANCH  21  43
HETATM   43  O7  UNL     1      19.922  48.097  -3.707  1.00  0.00    -0.355 OA
ATOM     44  H7  UNL     1      19.842  48.546  -2.874  1.00  0.00     0.218 HD
ENDBRANCH  21  43
BRANCH   7  45
HETATM   45  C11 UNL     1      14.730  46.842  -5.812  1.00  0.00     0.193 C 
BRANCH  45  46
HETATM   46  O2  UNL     1      14.616  45.482  -5.621  1.00  0.00    -0.387 OA
ATOM     47  H2  UNL     1      15.253  45.072  -5.048  1.00  0.00     0.210 HD
ENDBRANCH  45  46
BRANCH  45  48
HETATM   48  C12 UNL     1      13.844  47.463  -4.715  1.00  0.00     0.202 C 
BRANCH  48  49
HETATM   49  O3  UNL     1      12.844  48.218  -5.267  1.00  0.00    -0.398 OA
ATOM     50  H3  UNL     1      11.992  47.902  -4.991  1.00  0.00     0.209 HD
ENDBRANCH  48  49
ENDBRANCH  45  48
ENDBRANCH   7  45
BRANCH  18  51
HETATM   51  O5  UNL     1      18.315  50.726  -8.487  1.00  0.00    -0.354 OA
ATOM     52  H5  UNL     1      19.108  50.836  -8.998  1.00  0.00     0.218 HD
ENDBRANCH  18  51
BRANCH  14  53
HETATM   53  O4  UNL     1      17.062  52.951  -3.880  1.00  0.00    -0.356 OA
ATOM     54  H4  UNL     1      16.652  53.807  -3.900  1.00  0.00     0.218 HD
ENDBRANCH  14  53
TORSDOF 16
ENDMDL
MODEL 4
REMARK VINA RESULT: -7.602630230      2.201      3.725
REMARK  16 active torsions:
REMARK  status: ('A' for Active; 'I' for Inactive)
REMARK    1  A    between atoms: C2_2  and  O1_3 
REMARK    2  A    between atoms: C2_2  and  N1_5 
REMARK    3  A    between atoms: C2_2  and  C8_22 
REMARK    4  A    between atoms: N1_5  and  C3_8 
REMARK    5  A    between atoms: C3_8  and  C4_9 
REMARK    6  A    between atoms: C4_9  and  C5_10 
REMARK    7  A    between atoms: N3_13  and  C6_14 
REMARK    8  A    between atoms: C6_14  and  C7_15 
REMARK    9  A    between atoms: C7_15  and  N4_16 
REMARK   10  A    between atoms: C10_28  and  C11_29 
REMARK   11  A    between atoms: C11_29  and  O2_30 
REMARK   12  A    between atoms: C11_29  and  C12_32 
REMARK   13  A    between atoms: C12_32  and  O3_33 
REMARK   14  A    between atoms: C15_41  and  O4_42 
REMARK   15  A    between atoms: C18_47  and  O5_48 
REMARK   16  A    between atoms: C20_52  and  O7_53 
ROOT
HETATM    1  C8  UNL     1      17.310  48.094  -8.597  1.00  0.00     0.123 C 
HETATM    2  N6  UNL     1      16.095  48.550  -8.488  1.00  0.00    -0.280 N 
ATOM      3  H6  UNL     1      15.426  47.931  -8.948  1.00  0.00     0.184 HD
HETATM    4  N7  UNL     1      15.468  49.625  -7.930  1.00  0.00    -0.011 NA
HETATM    5  N8  UNL     1      15.864  49.864  -6.609  1.00  0.00    -0.198 N 
HETATM    6  C9  UNL     1      16.079  48.773  -5.861  1.00  0.00     0.113 A 
HETATM    7  C10 UNL     1      15.561  47.495  -6.066  1.00  0.00     0.073 C 
HETATM    8  N9  UNL     1      16.475  46.466  -6.515  1.00  0.00    -0.339 N 
ATOM      9  H9  UNL     1      16.174  45.538  -6.810  1.00  0.00     0.167 HD
HETATM   10  C13 UNL     1      17.828  46.881  -6.505  1.00  0.00     0.143 C 
HETATM   11  N10 UNL     1      18.687  46.799  -5.478  1.00  0.00    -0.324 N 
ATOM     12  H10 UNL     1      19.495  46.191  -5.616  1.00  0.00     0.169 HD
HETATM   13  C14 UNL     1      18.610  47.454  -4.227  1.00  0.00     0.149 A 
HETATM   14  C15 UNL     1      19.070  47.579  -2.992  1.00  0.00     0.126 A 
HETATM   15  C16 UNL     1      18.238  48.668  -2.652  1.00  0.00     0.139 A 
HETATM   16  N11 UNL     1      17.749  48.599  -3.831  1.00  0.00    -0.298 N 
HETATM   17  C17 UNL     1      16.885  49.231  -4.707  1.00  0.00     0.110 A 
HETATM   18  C18 UNL     1      17.055  50.592  -4.834  1.00  0.00     0.166 A 
HETATM   19  C19 UNL     1      16.405  50.932  -6.029  1.00  0.00     0.301 A 
HETATM   20  O6  UNL     1      16.373  52.114  -6.446  1.00  0.00    -0.263 OA
HETATM   21  C20 UNL     1      18.176  47.525  -7.622  1.00  0.00     0.139 C 
ENDROOT
BRANCH   1  22
HETATM   22  C2  UNL     1      18.032  48.079  -9.959  1.00  0.00     0.267 C 
HETATM   23  C1  UNL     1      17.079  48.243 -11.096  1.00  0.00     0.086 C 
BRANCH  22  24
HETATM   24  O1  UNL     1      18.948  49.126 -10.025  1.00  0.00    -0.360 OA
ATOM     25  H1  UNL     1      18.940  49.458 -10.915  1.00  0.00     0.213 HD
ENDBRANCH  22  24
BRANCH  22  26
HETATM   26  N1  UNL     1      18.752  46.856 -10.156  1.00  0.00    -0.037 N 
ATOM     27  H12 UNL     1      19.317  46.643  -9.335  1.00  0.00     0.281 HD
ATOM     28  H11 UNL     1      18.111  46.062 -10.141  1.00  0.00     0.281 HD
BRANCH  26  29
HETATM   29  C3  UNL     1      19.553  46.819 -11.330  1.00  0.00     0.244 C 
BRANCH  29  30
HETATM   30  C4  UNL     1      20.098  45.387 -11.422  1.00  0.00     0.107 C 
BRANCH  30  31
HETATM   31  C5  UNL     1      21.515  45.418 -11.790  1.00  0.00     0.114 A 
HETATM   32  N2  UNL     1      22.297  46.170 -12.584  1.00  0.00    -0.271 N 
HETATM   33  N3  UNL     1      23.352  45.448 -12.262  1.00  0.00    -0.230 N 
ATOM     34  H2  UNL     1      22.138  46.974 -13.192  1.00  0.00     0.190 HD
HETATM   35  N5  UNL     1      22.588  44.698 -11.474  1.00  0.00    -0.271 N 
ATOM     36  H5  UNL     1      22.756  43.894 -10.870  1.00  0.00     0.190 HD
BRANCH  33  37
HETATM   37  C6  UNL     1      24.762  45.440 -12.593  1.00  0.00     0.196 C 
BRANCH  37  38
HETATM   38  C7  UNL     1      24.900  45.350 -14.096  1.00  0.00     0.253 C 
BRANCH  38  39
HETATM   39  N4  UNL     1      26.241  45.801 -14.465  1.00  0.00    -0.078 N 
ATOM     40  H43 UNL     1      26.281  46.178 -15.413  1.00  0.00     0.274 HD
ATOM     41  H42 UNL     1      26.521  46.646 -13.968  1.00  0.00     0.274 HD
ATOM     42  H41 UNL     1      26.892  45.029 -14.323  1.00  0.00     0.274 HD
ENDBRANCH  38  39
ENDBRANCH  37  38
ENDBRANCH  33  37
ENDBRANCH  30  31
ENDBRANCH  29  30
ENDBRANCH  26  29
ENDBRANCH  22  26
ENDBRANCH   1  22
BRANCH  21  43
HETATM   43  O7  UNL     1      19.550  47.655  -7.852  1.00  0.00    -0.355 OA
ATOM     44  H7  UNL     1      20.020  46.862  -8.078  1.00  0.00     0.218 HD
ENDBRANCH  21  43
BRANCH   7  45
HETATM   45  C11 UNL     1      14.213  46.982  -5.845  1.00  0.00     0.193 C 
BRANCH  45  46
HETATM   46  O2  UNL     1      14.087  45.628  -5.625  1.00  0.00    -0.387 OA
ATOM     47  H2  UNL     1      14.188  45.057  -6.378  1.00  0.00     0.210 HD
ENDBRANCH  45  46
BRANCH  45  48
HETATM   48  C12 UNL     1      13.720  47.634  -4.539  1.00  0.00     0.202 C 
BRANCH  48  49
HETATM   49  O3  UNL     1      12.385  47.929  -4.617  1.00  0.00    -0.398 OA
ATOM     50  H3  UNL     1      12.156  48.225  -5.489  1.00  0.00     0.209 HD
ENDBRANCH  48  49
ENDBRANCH  45  48
ENDBRANCH   7  45
BRANCH  18  51
HETATM   51  O5  UNL     1      17.735  51.336  -3.914  1.00  0.00    -0.354 OA
ATOM     52  H5  UNL     1      18.268  52.084  -4.156  1.00  0.00     0.218 HD
ENDBRANCH  18  51
BRANCH  14  53
HETATM   53  O4  UNL     1      20.030  46.882  -2.290  1.00  0.00    -0.356 OA
ATOM     54  H4  UNL     1      19.971  46.285  -1.554  1.00  0.00     0.218 HD
ENDBRANCH  14  53
TORSDOF 16
ENDMDL
MODEL 5
REMARK VINA RESULT: -7.602617117      2.909      5.839
REMARK  16 active torsions:
REMARK  status: ('A' for Active; 'I' for Inactive)
REMARK    1  A    between atoms: C2_2  and  O1_3 
REMARK    2  A    between atoms: C2_2  and  N1_5 
REMARK    3  A    between atoms: C2_2  and  C8_22 
REMARK    4  A    between atoms: N1_5  and  C3_8 
REMARK    5  A    between atoms: C3_8  and  C4_9 
REMARK    6  A    between atoms: C4_9  and  C5_10 
REMARK    7  A    between atoms: N3_13  and  C6_14 
REMARK    8  A    between atoms: C6_14  and  C7_15 
REMARK    9  A    between atoms: C7_15  and  N4_16 
REMARK   10  A    between atoms: C10_28  and  C11_29 
REMARK   11  A    between atoms: C11_29  and  O2_30 
REMARK   12  A    between atoms: C11_29  and  C12_32 
REMARK   13  A    between atoms: C12_32  and  O3_33 
REMARK   14  A    between atoms: C15_41  and  O4_42 
REMARK   15  A    between atoms: C18_47  and  O5_48 
REMARK   16  A    between atoms: C20_52  and  O7_53 
ROOT
HETATM    1  C8  UNL     1      16.250  48.973  -8.835  1.00  0.00     0.123 C 
HETATM    2  N6  UNL     1      16.711  48.105  -9.690  1.00  0.00    -0.280 N 
ATOM      3  H6  UNL     1      15.969  47.496 -10.034  1.00  0.00     0.184 HD
HETATM    4  N7  UNL     1      17.912  47.786 -10.254  1.00  0.00    -0.011 NA
HETATM    5  N8  UNL     1      18.599  48.901 -10.747  1.00  0.00    -0.198 N 
HETATM    6  C9  UNL     1      17.838  49.844 -11.321  1.00  0.00     0.113 A 
HETATM    7  C10 UNL     1      16.568  49.683 -11.872  1.00  0.00     0.073 C 
HETATM    8  N9  UNL     1      15.449  50.260 -11.155  1.00  0.00    -0.339 N 
ATOM      9  H9  UNL     1      14.475  50.093 -11.406  1.00  0.00     0.167 HD
HETATM   10  C13 UNL     1      15.845  51.077 -10.070  1.00  0.00     0.143 C 
HETATM   11  N10 UNL     1      16.130  52.387 -10.111  1.00  0.00    -0.324 N 
ATOM     12  H10 UNL     1      15.514  52.997  -9.572  1.00  0.00     0.169 HD
HETATM   13  C14 UNL     1      17.180  53.025 -10.810  1.00  0.00     0.149 A 
HETATM   14  C15 UNL     1      17.731  54.155 -11.228  1.00  0.00     0.126 A 
HETATM   15  C16 UNL     1      18.867  53.543 -11.801  1.00  0.00     0.139 A 
HETATM   16  N11 UNL     1      18.390  52.418 -11.426  1.00  0.00    -0.298 N 
HETATM   17  C17 UNL     1      18.673  51.066 -11.355  1.00  0.00     0.110 A 
HETATM   18  C18 UNL     1      19.904  50.742 -10.831  1.00  0.00     0.166 A 
HETATM   19  C19 UNL     1      19.803  49.391 -10.467  1.00  0.00     0.301 A 
HETATM   20  O6  UNL     1      20.765  48.777  -9.949  1.00  0.00    -0.263 OA
HETATM   21  C20 UNL     1      16.060  50.377  -8.952  1.00  0.00     0.139 C 
ENDROOT
BRANCH   1  22
HETATM   22  C2  UNL     1      15.763  48.529  -7.441  1.00  0.00     0.267 C 
HETATM   23  C1  UNL     1      14.473  49.180  -7.069  1.00  0.00     0.086 C 
BRANCH  22  24
HETATM   24  O1  UNL     1      15.560  47.152  -7.422  1.00  0.00    -0.360 OA
ATOM     25  H1  UNL     1      16.301  46.758  -6.978  1.00  0.00     0.213 HD
ENDBRANCH  22  24
BRANCH  22  26
HETATM   26  N1  UNL     1      16.726  48.842  -6.427  1.00  0.00    -0.037 N 
ATOM     27  H12 UNL     1      17.378  49.549  -6.765  1.00  0.00     0.281 HD
ATOM     28  H11 UNL     1      16.283  49.359  -5.667  1.00  0.00     0.281 HD
BRANCH  26  29
HETATM   29  C3  UNL     1      17.435  47.722  -5.912  1.00  0.00     0.244 C 
BRANCH  29  30
HETATM   30  C4  UNL     1      18.881  47.880  -6.402  1.00  0.00     0.107 C 
BRANCH  30  31
HETATM   31  C5  UNL     1      19.201  46.816  -7.356  1.00  0.00     0.114 A 
HETATM   32  N2  UNL     1      20.270  46.458  -8.090  1.00  0.00    -0.271 N 
HETATM   33  N3  UNL     1      19.605  45.436  -8.593  1.00  0.00    -0.230 N 
ATOM     34  H2  UNL     1      21.213  46.827  -8.209  1.00  0.00     0.190 HD
HETATM   35  N5  UNL     1      18.543  45.782  -7.872  1.00  0.00    -0.271 N 
ATOM     36  H5  UNL     1      17.602  45.406  -7.760  1.00  0.00     0.190 HD
BRANCH  33  37
HETATM   37  C6  UNL     1      19.876  44.364  -9.529  1.00  0.00     0.196 C 
BRANCH  37  38
HETATM   38  C7  UNL     1      19.394  44.790 -10.897  1.00  0.00     0.253 C 
BRANCH  38  39
HETATM   39  N4  UNL     1      20.257  45.869 -11.376  1.00  0.00    -0.078 N 
ATOM     40  H43 UNL     1      19.986  46.780 -11.007  1.00  0.00     0.274 HD
ATOM     41  H42 UNL     1      21.194  45.828 -10.976  1.00  0.00     0.274 HD
ATOM     42  H41 UNL     1      20.265  45.846 -12.396  1.00  0.00     0.274 HD
ENDBRANCH  38  39
ENDBRANCH  37  38
ENDBRANCH  33  37
ENDBRANCH  30  31
ENDBRANCH  29  30
ENDBRANCH  26  29
ENDBRANCH  22  26
ENDBRANCH   1  22
BRANCH  21  43
HETATM   43  O7  UNL     1      16.106  51.118  -7.766  1.00  0.00    -0.355 OA
ATOM     44  H7  UNL     1      15.506  50.856  -7.077  1.00  0.00     0.218 HD
ENDBRANCH  21  43
BRANCH   7  45
HETATM   45  C11 UNL     1      16.159  49.053 -13.123  1.00  0.00     0.193 C 
BRANCH  45  46
HETATM   46  O2  UNL     1      15.145  48.124 -13.055  1.00  0.00    -0.387 OA
ATOM     47  H2  UNL     1      15.358  47.279 -12.676  1.00  0.00     0.210 HD
ENDBRANCH  45  46
BRANCH  45  48
HETATM   48  C12 UNL     1      15.590  50.185 -14.000  1.00  0.00     0.202 C 
BRANCH  48  49
HETATM   49  O3  UNL     1      16.108  51.396 -13.627  1.00  0.00    -0.398 OA
ATOM     50  H3  UNL     1      15.541  52.105 -13.906  1.00  0.00     0.209 HD
ENDBRANCH  48  49
ENDBRANCH  45  48
ENDBRANCH   7  45
BRANCH  18  51
HETATM   51  O5  UNL     1      20.925  51.644 -10.741  1.00  0.00    -0.354 OA
ATOM     52  H5  UNL     1      21.057  52.331 -11.382  1.00  0.00     0.218 HD
ENDBRANCH  18  51
BRANCH  14  53
HETATM   53  O4  UNL     1      17.326  55.470 -11.133  1.00  0.00    -0.356 OA
ATOM     54  H4  UNL     1      16.553  55.870 -10.754  1.00  0.00     0.218 HD
ENDBRANCH  14  53
TORSDOF 16
ENDMDL
