MODEL 1
REMARK VINA RESULT: -9.118227796      0.000      0.000
REMARK  14 active torsions:
REMARK  status: ('A' for Active; 'I' for Inactive)
REMARK    1  A    between atoms: C3_4  and  N2_5 
REMARK    2  A    between atoms: N2_5  and  C4_7 
REMARK    3  A    between atoms: C4_7  and  O1_9 
REMARK    4  A    between atoms: C4_7  and  C6_11 
REMARK    5  A    between atoms: N3_13  and  C8_14 
REMARK    6  A    between atoms: C9_20  and  N6_21 
REMARK    7  A    between atoms: C10_24  and  O3_25 
REMARK    8  A    between atoms: C11_27  and  O4_28 
REMARK    9  A    between atoms: C12_30  and  C13_31 
REMARK   10  A    between atoms: C14_40  and  C15_41 
REMARK   11  A    between atoms: C16_45  and  C17_46 
REMARK   12  A    between atoms: C17_46  and  O6_47 
REMARK   13  A    between atoms: C17_46  and  C18_49 
REMARK   14  A    between atoms: C18_49  and  O7_50 
ROOT
HETATM    1  C1  UNL     1      19.332  43.946  -7.523  1.00  0.00     0.156 C 
HETATM    2  N1  UNL     1      18.928  45.195  -8.126  1.00  0.00    -0.355 N 
HETATM    3  C2  UNL     1      19.391  45.715  -9.298  1.00  0.00     0.121 A 
HETATM    4  C3  UNL     1      18.769  46.927  -9.546  1.00  0.00     0.062 A 
HETATM    5  C12 UNL     1      17.920  47.097  -8.470  1.00  0.00     0.069 A 
HETATM    6  C14 UNL     1      18.020  46.033  -7.599  1.00  0.00     0.097 A 
ENDROOT
BRANCH   4   7
HETATM    7  N2  UNL     1      18.922  47.823 -10.638  1.00  0.00    -0.353 N 
ATOM      8  H2  UNL     1      18.285  47.743 -11.431  1.00  0.00     0.163 HD
BRANCH   7   9
HETATM    9  C4  UNL     1      19.958  48.853 -10.669  1.00  0.00     0.161 C 
HETATM   10  C5  UNL     1      20.736  48.958  -9.403  1.00  0.00     0.077 C 
BRANCH   9  11
HETATM   11  O1  UNL     1      20.857  48.487 -11.686  1.00  0.00    -0.367 OA
ATOM     12  H1  UNL     1      20.627  49.005 -12.450  1.00  0.00     0.213 HD
ENDBRANCH   9  11
BRANCH   9  13
HETATM   13  C6  UNL     1      19.324  50.143 -11.033  1.00  0.00     0.050 A 
HETATM   14  C7  UNL     1      18.094  50.645 -10.684  1.00  0.00     0.116 A 
HETATM   15  N3  UNL     1      17.910  51.875 -11.239  1.00  0.00    -0.281 N 
HETATM   16  C10 UNL     1      19.009  52.178 -11.947  1.00  0.00     0.183 A 
HETATM   17  C11 UNL     1      19.887  51.120 -11.828  1.00  0.00     0.130 A 
BRANCH  15  18
HETATM   18  C8  UNL     1      16.738  52.660 -11.068  1.00  0.00     0.181 A 
HETATM   19  N4  UNL     1      15.445  52.287 -11.147  1.00  0.00    -0.221 N 
HETATM   20  O2  UNL     1      14.678  53.308 -10.926  1.00  0.00    -0.153 OA
ATOM     21  H4  UNL     1      15.120  51.342 -11.351  1.00  0.00     0.198 HD
HETATM   22  N5  UNL     1      15.392  54.365 -10.697  1.00  0.00    -0.222 N 
HETATM   23  C9  UNL     1      16.680  54.005 -10.776  1.00  0.00     0.168 A 
ATOM     24  H5  UNL     1      15.039  55.300 -10.493  1.00  0.00     0.198 HD
BRANCH  23  25
HETATM   25  N6  UNL     1      17.677  54.822 -10.600  1.00  0.00    -0.381 N 
ATOM     26  H62 UNL     1      18.536  54.803 -11.152  1.00  0.00     0.157 HD
ATOM     27  H61 UNL     1      17.753  55.574  -9.915  1.00  0.00     0.157 HD
ENDBRANCH  23  25
ENDBRANCH  15  18
BRANCH  16  28
HETATM   28  O3  UNL     1      19.230  53.361 -12.680  1.00  0.00    -0.344 OA
ATOM     29  H3  UNL     1      19.968  53.539 -13.252  1.00  0.00     0.219 HD
ENDBRANCH  16  28
BRANCH  17  30
HETATM   30  O4  UNL     1      21.139  51.085 -12.434  1.00  0.00    -0.356 OA
ATOM     31  H4  UNL     1      21.978  50.985 -12.002  1.00  0.00     0.218 HD
ENDBRANCH  17  30
ENDBRANCH   9  13
ENDBRANCH   7   9
ENDBRANCH   4   7
BRANCH   5  32
HETATM   32  C13 UNL     1      17.042  48.251  -8.289  1.00  0.00     0.152 A 
HETATM   33  N7  UNL     1      15.885  48.477  -8.926  1.00  0.00    -0.268 N 
HETATM   34  N8  UNL     1      15.393  49.610  -8.495  1.00  0.00    -0.227 N 
ATOM     35  H7  UNL     1      15.461  47.869  -9.627  1.00  0.00     0.190 HD
HETATM   36  N9  UNL     1      16.221  50.088  -7.605  1.00  0.00    -0.227 N 
ATOM     37  H8  UNL     1      14.520  50.041  -8.798  1.00  0.00     0.210 HD
HETATM   38  N10 UNL     1      17.247  49.291  -7.443  1.00  0.00    -0.268 N 
ATOM     39  H9  UNL     1      16.087  50.965  -7.102  1.00  0.00     0.210 HD
ATOM     40  H10 UNL     1      18.037  49.425  -6.812  1.00  0.00     0.190 HD
ENDBRANCH   5  32
BRANCH   6  41
HETATM   41  C15 UNL     1      17.275  45.866  -6.353  1.00  0.00     0.155 A 
HETATM   42  N11 UNL     1      16.238  45.033  -6.150  1.00  0.00    -0.241 N 
HETATM   43  O5  UNL     1      15.831  45.162  -4.910  1.00  0.00    -0.220 OA
ATOM     44  H11 UNL     1      15.835  44.405  -6.846  1.00  0.00     0.196 HD
HETATM   45  C16 UNL     1      16.553  46.046  -4.276  1.00  0.00     0.179 A 
HETATM   46  N12 UNL     1      17.464  46.494  -5.180  1.00  0.00    -0.319 N 
ATOM     47  H12 UNL     1      18.180  47.197  -4.996  1.00  0.00     0.169 HD
BRANCH  45  48
HETATM   48  C17 UNL     1      16.468  46.518  -2.879  1.00  0.00     0.218 C 
BRANCH  48  49
HETATM   49  O6  UNL     1      15.447  45.808  -2.248  1.00  0.00    -0.385 OA
ATOM     50  H6  UNL     1      14.926  46.426  -1.748  1.00  0.00     0.210 HD
ENDBRANCH  48  49
BRANCH  48  51
HETATM   51  C18 UNL     1      16.231  48.006  -2.797  1.00  0.00     0.204 C 
BRANCH  51  52
HETATM   52  O7  UNL     1      15.531  48.506  -3.871  1.00  0.00    -0.398 OA
ATOM     53  H7  UNL     1      14.597  48.571  -3.713  1.00  0.00     0.209 HD
ENDBRANCH  51  52
ENDBRANCH  48  51
ENDBRANCH  45  48
ENDBRANCH   6  41
TORSDOF 14
ENDMDL
MODEL 2
REMARK VINA RESULT: -8.792777971      2.844      4.679
REMARK  14 active torsions:
REMARK  status: ('A' for Active; 'I' for Inactive)
REMARK    1  A    between atoms: C3_4  and  N2_5 
REMARK    2  A    between atoms: N2_5  and  C4_7 
REMARK    3  A    between atoms: C4_7  and  O1_9 
REMARK    4  A    between atoms: C4_7  and  C6_11 
REMARK    5  A    between atoms: N3_13  and  C8_14 
REMARK    6  A    between atoms: C9_20  and  N6_21 
REMARK    7  A    between atoms: C10_24  and  O3_25 
REMARK    8  A    between atoms: C11_27  and  O4_28 
REMARK    9  A    between atoms: C12_30  and  C13_31 
REMARK   10  A    between atoms: C14_40  and  C15_41 
REMARK   11  A    between atoms: C16_45  and  C17_46 
REMARK   12  A    between atoms: C17_46  and  O6_47 
REMARK   13  A    between atoms: C17_46  and  C18_49 
REMARK   14  A    between atoms: C18_49  and  O7_50 
ROOT
HETATM    1  C1  UNL     1      17.724  45.184  -6.544  1.00  0.00     0.156 C 
HETATM    2  N1  UNL     1      18.372  45.568  -7.777  1.00  0.00    -0.355 N 
HETATM    3  C2  UNL     1      18.129  46.697  -8.501  1.00  0.00     0.121 A 
HETATM    4  C3  UNL     1      18.943  46.715  -9.621  1.00  0.00     0.062 A 
HETATM    5  C12 UNL     1      19.676  45.548  -9.523  1.00  0.00     0.069 A 
HETATM    6  C14 UNL     1      19.323  44.845  -8.391  1.00  0.00     0.097 A 
ENDROOT
BRANCH   4   7
HETATM    7  N2  UNL     1      19.050  47.683 -10.655  1.00  0.00    -0.353 N 
ATOM      8  H2  UNL     1      18.395  47.641 -11.436  1.00  0.00     0.163 HD
BRANCH   7   9
HETATM    9  C4  UNL     1      20.062  48.737 -10.642  1.00  0.00     0.161 C 
HETATM   10  C5  UNL     1      20.805  48.839  -9.354  1.00  0.00     0.077 C 
BRANCH   9  11
HETATM   11  O1  UNL     1      20.995  48.408 -11.641  1.00  0.00    -0.367 OA
ATOM     12  H1  UNL     1      21.661  49.087 -11.623  1.00  0.00     0.213 HD
ENDBRANCH   9  11
BRANCH   9  13
HETATM   13  C6  UNL     1      19.408  50.018 -11.002  1.00  0.00     0.050 A 
HETATM   14  C7  UNL     1      18.172  50.501 -10.649  1.00  0.00     0.116 A 
HETATM   15  N3  UNL     1      17.969  51.730 -11.202  1.00  0.00    -0.281 N 
HETATM   16  C10 UNL     1      19.062  52.050 -11.911  1.00  0.00     0.183 A 
HETATM   17  C11 UNL     1      19.956  51.005 -11.796  1.00  0.00     0.130 A 
BRANCH  15  18
HETATM   18  C8  UNL     1      16.785  52.497 -11.027  1.00  0.00     0.181 A 
HETATM   19  N4  UNL     1      15.498  52.108 -11.118  1.00  0.00    -0.221 N 
HETATM   20  O2  UNL     1      14.717  53.116 -10.887  1.00  0.00    -0.153 OA
ATOM     21  H4  UNL     1      15.186  51.162 -11.337  1.00  0.00     0.198 HD
HETATM   22  N5  UNL     1      15.416  54.179 -10.640  1.00  0.00    -0.222 N 
HETATM   23  C9  UNL     1      16.709  53.836 -10.717  1.00  0.00     0.168 A 
ATOM     24  H5  UNL     1      15.049  55.106 -10.426  1.00  0.00     0.198 HD
BRANCH  23  25
HETATM   25  N6  UNL     1      17.694  54.665 -10.524  1.00  0.00    -0.381 N 
ATOM     26  H62 UNL     1      18.152  55.190 -11.269  1.00  0.00     0.157 HD
ATOM     27  H61 UNL     1      18.141  54.905  -9.640  1.00  0.00     0.157 HD
ENDBRANCH  23  25
ENDBRANCH  15  18
BRANCH  16  28
HETATM   28  O3  UNL     1      19.265  53.238 -12.642  1.00  0.00    -0.344 OA
ATOM     29  H3  UNL     1      19.676  53.311 -13.496  1.00  0.00     0.219 HD
ENDBRANCH  16  28
BRANCH  17  30
HETATM   30  O4  UNL     1      21.207  50.990 -12.404  1.00  0.00    -0.356 OA
ATOM     31  H4  UNL     1      21.402  51.190 -13.312  1.00  0.00     0.218 HD
ENDBRANCH  17  30
ENDBRANCH   9  13
ENDBRANCH   7   9
ENDBRANCH   4   7
BRANCH   5  32
HETATM   32  C13 UNL     1      20.684  45.126 -10.494  1.00  0.00     0.152 A 
HETATM   33  N7  UNL     1      21.903  45.658 -10.657  1.00  0.00    -0.268 N 
HETATM   34  N8  UNL     1      22.508  45.011 -11.620  1.00  0.00    -0.227 N 
ATOM     35  H7  UNL     1      22.291  46.434 -10.121  1.00  0.00     0.190 HD
HETATM   36  N9  UNL     1      21.689  44.091 -12.054  1.00  0.00    -0.227 N 
ATOM     37  H8  UNL     1      23.450  45.193 -11.967  1.00  0.00     0.210 HD
HETATM   38  N10 UNL     1      20.558  44.121 -11.396  1.00  0.00    -0.268 N 
ATOM     39  H9  UNL     1      21.902  43.436 -12.807  1.00  0.00     0.210 HD
ATOM     40  H10 UNL     1      19.750  43.514 -11.533  1.00  0.00     0.190 HD
ENDBRANCH   5  32
BRANCH   6  41
HETATM   41  C15 UNL     1      19.885  43.567  -7.960  1.00  0.00     0.155 A 
HETATM   42  N11 UNL     1      19.309  42.359  -8.092  1.00  0.00    -0.241 N 
HETATM   43  O5  UNL     1      20.113  41.452  -7.588  1.00  0.00    -0.220 OA
ATOM     44  H11 UNL     1      18.398  42.177  -8.514  1.00  0.00     0.196 HD
HETATM   45  C16 UNL     1      21.202  42.005  -7.126  1.00  0.00     0.179 A 
HETATM   46  N12 UNL     1      21.064  43.338  -7.356  1.00  0.00    -0.319 N 
ATOM     47  H12 UNL     1      21.749  44.052  -7.109  1.00  0.00     0.169 HD
BRANCH  45  48
HETATM   48  C17 UNL     1      22.378  41.392  -6.477  1.00  0.00     0.218 C 
BRANCH  48  49
HETATM   49  O6  UNL     1      22.687  40.220  -7.169  1.00  0.00    -0.385 OA
ATOM     50  H6  UNL     1      22.360  39.487  -6.660  1.00  0.00     0.210 HD
ENDBRANCH  48  49
BRANCH  48  51
HETATM   51  C18 UNL     1      22.140  41.117  -5.013  1.00  0.00     0.204 C 
BRANCH  51  52
HETATM   52  O7  UNL     1      20.932  41.594  -4.559  1.00  0.00    -0.398 OA
ATOM     53  H7  UNL     1      20.972  41.936  -3.674  1.00  0.00     0.209 HD
ENDBRANCH  51  52
ENDBRANCH  48  51
ENDBRANCH  45  48
ENDBRANCH   6  41
TORSDOF 14
ENDMDL
MODEL 3
REMARK VINA RESULT: -8.775798597      4.143      7.354
REMARK  14 active torsions:
REMARK  status: ('A' for Active; 'I' for Inactive)
REMARK    1  A    between atoms: C3_4  and  N2_5 
REMARK    2  A    between atoms: N2_5  and  C4_7 
REMARK    3  A    between atoms: C4_7  and  O1_9 
REMARK    4  A    between atoms: C4_7  and  C6_11 
REMARK    5  A    between atoms: N3_13  and  C8_14 
REMARK    6  A    between atoms: C9_20  and  N6_21 
REMARK    7  A    between atoms: C10_24  and  O3_25 
REMARK    8  A    between atoms: C11_27  and  O4_28 
REMARK    9  A    between atoms: C12_30  and  C13_31 
REMARK   10  A    between atoms: C14_40  and  C15_41 
REMARK   11  A    between atoms: C16_45  and  C17_46 
REMARK   12  A    between atoms: C17_46  and  O6_47 
REMARK   13  A    between atoms: C17_46  and  C18_49 
REMARK   14  A    between atoms: C18_49  and  O7_50 
ROOT
HETATM    1  C1  UNL     1      17.117  46.904  -5.236  1.00  0.00     0.156 C 
HETATM    2  N1  UNL     1      18.030  46.914  -6.356  1.00  0.00    -0.355 N 
HETATM    3  C2  UNL     1      18.878  45.910  -6.717  1.00  0.00     0.121 A 
HETATM    4  C3  UNL     1      19.594  46.288  -7.841  1.00  0.00     0.062 A 
HETATM    5  C12 UNL     1      19.128  47.558  -8.125  1.00  0.00     0.069 A 
HETATM    6  C14 UNL     1      18.169  47.940  -7.212  1.00  0.00     0.097 A 
ENDROOT
BRANCH   4   7
HETATM    7  N2  UNL     1      20.579  45.576  -8.576  1.00  0.00    -0.353 N 
ATOM      8  H2  UNL     1      21.551  45.629  -8.272  1.00  0.00     0.163 HD
BRANCH   7   9
HETATM    9  C4  UNL     1      20.252  44.772  -9.751  1.00  0.00     0.161 C 
HETATM   10  C5  UNL     1      19.952  43.346  -9.436  1.00  0.00     0.077 C 
BRANCH   9  11
HETATM   11  O1  UNL     1      19.091  45.332 -10.310  1.00  0.00    -0.367 OA
ATOM     12  H1  UNL     1      18.848  44.778 -11.043  1.00  0.00     0.213 HD
ENDBRANCH   9  11
BRANCH   9  13
HETATM   13  C6  UNL     1      21.361  44.897 -10.727  1.00  0.00     0.050 A 
HETATM   14  C7  UNL     1      22.538  44.195 -10.811  1.00  0.00     0.116 A 
HETATM   15  N3  UNL     1      23.277  44.634 -11.869  1.00  0.00    -0.281 N 
HETATM   16  C10 UNL     1      22.589  45.616 -12.473  1.00  0.00     0.183 A 
HETATM   17  C11 UNL     1      21.408  45.787 -11.781  1.00  0.00     0.130 A 
BRANCH  15  18
HETATM   18  C8  UNL     1      24.548  44.110 -12.227  1.00  0.00     0.181 A 
HETATM   19  N4  UNL     1      24.985  42.836 -12.184  1.00  0.00    -0.221 N 
HETATM   20  O2  UNL     1      26.213  42.778 -12.597  1.00  0.00    -0.153 OA
ATOM     21  H4  UNL     1      24.433  42.037 -11.874  1.00  0.00     0.198 HD
HETATM   22  N5  UNL     1      26.634  43.960 -12.921  1.00  0.00    -0.222 N 
HETATM   23  C9  UNL     1      25.627  44.818 -12.705  1.00  0.00     0.168 A 
ATOM     24  H5  UNL     1      27.561  44.195 -13.276  1.00  0.00     0.198 HD
BRANCH  23  25
HETATM   25  N6  UNL     1      25.703  46.099 -12.925  1.00  0.00    -0.381 N 
ATOM     26  H62 UNL     1      25.154  46.590 -13.632  1.00  0.00     0.157 HD
ATOM     27  H61 UNL     1      26.295  46.779 -12.448  1.00  0.00     0.157 HD
ENDBRANCH  23  25
ENDBRANCH  15  18
BRANCH  16  28
HETATM   28  O3  UNL     1      22.997  46.342 -13.611  1.00  0.00    -0.344 OA
ATOM     29  H3  UNL     1      23.391  47.207 -13.615  1.00  0.00     0.219 HD
ENDBRANCH  16  28
BRANCH  17  30
HETATM   30  O4  UNL     1      20.441  46.725 -12.126  1.00  0.00    -0.356 OA
ATOM     31  H4  UNL     1      20.508  47.669 -12.044  1.00  0.00     0.218 HD
ENDBRANCH  17  30
ENDBRANCH   9  13
ENDBRANCH   7   9
ENDBRANCH   4   7
BRANCH   5  32
HETATM   32  C13 UNL     1      19.597  48.374  -9.243  1.00  0.00     0.152 A 
HETATM   33  N7  UNL     1      20.782  48.990  -9.335  1.00  0.00    -0.268 N 
HETATM   34  N8  UNL     1      20.831  49.620 -10.481  1.00  0.00    -0.227 N 
ATOM     35  H7  UNL     1      21.521  48.972  -8.632  1.00  0.00     0.190 HD
HETATM   36  N9  UNL     1      19.700  49.405 -11.098  1.00  0.00    -0.227 N 
ATOM     37  H8  UNL     1      21.611  50.177 -10.829  1.00  0.00     0.210 HD
HETATM   38  N10 UNL     1      18.910  48.647 -10.380  1.00  0.00    -0.268 N 
ATOM     39  H9  UNL     1      19.463  49.778 -12.017  1.00  0.00     0.210 HD
ATOM     40  H10 UNL     1      17.973  48.328 -10.626  1.00  0.00     0.190 HD
ENDBRANCH   5  32
BRANCH   6  41
HETATM   41  C15 UNL     1      17.454  49.214  -7.195  1.00  0.00     0.155 A 
HETATM   42  N11 UNL     1      16.273  49.473  -7.786  1.00  0.00    -0.241 N 
HETATM   43  O5  UNL     1      15.951  50.724  -7.553  1.00  0.00    -0.220 OA
ATOM     44  H11 UNL     1      15.720  48.807  -8.326  1.00  0.00     0.196 HD
HETATM   45  C16 UNL     1      16.867  51.310  -6.831  1.00  0.00     0.179 A 
HETATM   46  N12 UNL     1      17.817  50.365  -6.603  1.00  0.00    -0.319 N 
ATOM     47  H12 UNL     1      18.673  50.507  -6.066  1.00  0.00     0.169 HD
BRANCH  45  48
HETATM   48  C17 UNL     1      16.938  52.696  -6.326  1.00  0.00     0.218 C 
BRANCH  48  49
HETATM   49  O6  UNL     1      17.860  53.391  -7.109  1.00  0.00    -0.385 OA
ATOM     50  H6  UNL     1      17.477  54.230  -7.336  1.00  0.00     0.210 HD
ENDBRANCH  48  49
BRANCH  48  51
HETATM   51  C18 UNL     1      17.309  52.751  -4.865  1.00  0.00     0.204 C 
BRANCH  51  52
HETATM   52  O7  UNL     1      16.594  53.689  -4.157  1.00  0.00    -0.398 OA
ATOM     53  H7  UNL     1      16.406  53.423  -3.264  1.00  0.00     0.209 HD
ENDBRANCH  51  52
ENDBRANCH  48  51
ENDBRANCH  45  48
ENDBRANCH   6  41
TORSDOF 14
ENDMDL
MODEL 4
REMARK VINA RESULT: -8.527132665      1.581      2.162
REMARK  14 active torsions:
REMARK  status: ('A' for Active; 'I' for Inactive)
REMARK    1  A    between atoms: C3_4  and  N2_5 
REMARK    2  A    between atoms: N2_5  and  C4_7 
REMARK    3  A    between atoms: C4_7  and  O1_9 
REMARK    4  A    between atoms: C4_7  and  C6_11 
REMARK    5  A    between atoms: N3_13  and  C8_14 
REMARK    6  A    between atoms: C9_20  and  N6_21 
REMARK    7  A    between atoms: C10_24  and  O3_25 
REMARK    8  A    between atoms: C11_27  and  O4_28 
REMARK    9  A    between atoms: C12_30  and  C13_31 
REMARK   10  A    between atoms: C14_40  and  C15_41 
REMARK   11  A    between atoms: C16_45  and  C17_46 
REMARK   12  A    between atoms: C17_46  and  O6_47 
REMARK   13  A    between atoms: C17_46  and  C18_49 
REMARK   14  A    between atoms: C18_49  and  O7_50 
ROOT
HETATM    1  C1  UNL     1      20.732  45.201  -5.734  1.00  0.00     0.156 C 
HETATM    2  N1  UNL     1      20.073  45.967  -6.767  1.00  0.00    -0.355 N 
HETATM    3  C2  UNL     1      20.394  45.985  -8.091  1.00  0.00     0.121 A 
HETATM    4  C3  UNL     1      19.538  46.839  -8.766  1.00  0.00     0.062 A 
HETATM    5  C12 UNL     1      18.699  47.322  -7.780  1.00  0.00     0.069 A 
HETATM    6  C14 UNL     1      19.030  46.786  -6.554  1.00  0.00     0.097 A 
ENDROOT
BRANCH   4   7
HETATM    7  N2  UNL     1      19.482  47.170 -10.146  1.00  0.00    -0.353 N 
ATOM      8  H2  UNL     1      18.935  46.578 -10.771  1.00  0.00     0.163 HD
BRANCH   7   9
HETATM    9  C4  UNL     1      20.179  48.326 -10.704  1.00  0.00     0.161 C 
HETATM   10  C5  UNL     1      21.274  48.842  -9.835  1.00  0.00     0.077 C 
BRANCH   9  11
HETATM   11  O1  UNL     1      20.765  47.899 -11.908  1.00  0.00    -0.367 OA
ATOM     12  H1  UNL     1      21.607  47.521 -11.681  1.00  0.00     0.213 HD
ENDBRANCH   9  11
BRANCH   9  13
HETATM   13  C6  UNL     1      19.177  49.376 -11.006  1.00  0.00     0.050 A 
HETATM   14  C7  UNL     1      19.287  50.743 -10.923  1.00  0.00     0.116 A 
HETATM   15  N3  UNL     1      18.118  51.335 -11.299  1.00  0.00    -0.281 N 
HETATM   16  C10 UNL     1      17.250  50.365 -11.624  1.00  0.00     0.183 A 
HETATM   17  C11 UNL     1      17.889  49.155 -11.450  1.00  0.00     0.130 A 
BRANCH  15  18
HETATM   18  C8  UNL     1      17.908  52.740 -11.322  1.00  0.00     0.181 A 
HETATM   19  N4  UNL     1      18.606  53.694 -11.970  1.00  0.00    -0.221 N 
HETATM   20  O2  UNL     1      18.087  54.858 -11.731  1.00  0.00    -0.153 OA
ATOM     21  H4  UNL     1      19.420  53.525 -12.561  1.00  0.00     0.198 HD
HETATM   22  N5  UNL     1      17.062  54.740 -10.946  1.00  0.00    -0.222 N 
HETATM   23  C9  UNL     1      16.917  53.437 -10.668  1.00  0.00     0.168 A 
ATOM     24  H5  UNL     1      16.474  55.499 -10.603  1.00  0.00     0.198 HD
BRANCH  23  25
HETATM   25  N6  UNL     1      15.980  52.956  -9.902  1.00  0.00    -0.381 N 
ATOM     26  H62 UNL     1      15.893  51.968  -9.660  1.00  0.00     0.157 HD
ATOM     27  H61 UNL     1      15.224  53.467  -9.448  1.00  0.00     0.157 HD
ENDBRANCH  23  25
ENDBRANCH  15  18
BRANCH  16  28
HETATM   28  O3  UNL     1      15.924  50.546 -12.067  1.00  0.00    -0.344 OA
ATOM     29  H3  UNL     1      15.624  50.530 -12.969  1.00  0.00     0.219 HD
ENDBRANCH  16  28
BRANCH  17  30
HETATM   30  O4  UNL     1      17.290  47.923 -11.694  1.00  0.00    -0.356 OA
ATOM     31  H4  UNL     1      16.362  47.725 -11.663  1.00  0.00     0.218 HD
ENDBRANCH  17  30
ENDBRANCH   9  13
ENDBRANCH   7   9
ENDBRANCH   4   7
BRANCH   5  32
HETATM   32  C13 UNL     1      17.614  48.271  -8.017  1.00  0.00     0.152 A 
HETATM   33  N7  UNL     1      16.396  47.984  -8.496  1.00  0.00    -0.268 N 
HETATM   34  N8  UNL     1      15.708  49.094  -8.565  1.00  0.00    -0.227 N 
ATOM     35  H7  UNL     1      16.062  47.057  -8.761  1.00  0.00     0.190 HD
HETATM   36  N9  UNL     1      16.476  50.062  -8.139  1.00  0.00    -0.227 N 
ATOM     37  H8  UNL     1      14.746  49.188  -8.892  1.00  0.00     0.210 HD
HETATM   38  N10 UNL     1      17.653  49.608  -7.791  1.00  0.00    -0.268 N 
ATOM     39  H9  UNL     1      16.195  51.041  -8.084  1.00  0.00     0.210 HD
ATOM     40  H10 UNL     1      18.438  50.148  -7.426  1.00  0.00     0.190 HD
ENDBRANCH   5  32
BRANCH   6  41
HETATM   41  C15 UNL     1      18.364  47.066  -5.284  1.00  0.00     0.155 A 
HETATM   42  N11 UNL     1      18.919  47.648  -4.205  1.00  0.00    -0.241 N 
HETATM   43  O5  UNL     1      18.013  47.730  -3.259  1.00  0.00    -0.220 OA
ATOM     44  H11 UNL     1      19.884  47.972  -4.134  1.00  0.00     0.196 HD
HETATM   45  C16 UNL     1      16.877  47.227  -3.661  1.00  0.00     0.179 A 
HETATM   46  N12 UNL     1      17.092  46.806  -4.936  1.00  0.00    -0.319 N 
ATOM     47  H12 UNL     1      16.395  46.363  -5.534  1.00  0.00     0.169 HD
BRANCH  45  48
HETATM   48  C17 UNL     1      15.589  47.102  -2.951  1.00  0.00     0.218 C 
BRANCH  48  49
HETATM   49  O6  UNL     1      15.462  45.780  -2.524  1.00  0.00    -0.385 OA
ATOM     50  H6  UNL     1      16.043  45.655  -1.782  1.00  0.00     0.210 HD
ENDBRANCH  48  49
BRANCH  48  51
HETATM   51  C18 UNL     1      14.422  47.512  -3.815  1.00  0.00     0.204 C 
BRANCH  51  52
HETATM   52  O7  UNL     1      14.164  46.627  -4.837  1.00  0.00    -0.398 OA
ATOM     53  H7  UNL     1      13.291  46.714  -5.199  1.00  0.00     0.209 HD
ENDBRANCH  51  52
ENDBRANCH  48  51
ENDBRANCH  45  48
ENDBRANCH   6  41
TORSDOF 14
ENDMDL
MODEL 5
REMARK VINA RESULT: -8.521896139      1.991      3.325
REMARK  14 active torsions:
REMARK  status: ('A' for Active; 'I' for Inactive)
REMARK    1  A    between atoms: C3_4  and  N2_5 
REMARK    2  A    between atoms: N2_5  and  C4_7 
REMARK    3  A    between atoms: C4_7  and  O1_9 
REMARK    4  A    between atoms: C4_7  and  C6_11 
REMARK    5  A    between atoms: N3_13  and  C8_14 
REMARK    6  A    between atoms: C9_20  and  N6_21 
REMARK    7  A    between atoms: C10_24  and  O3_25 
REMARK    8  A    between atoms: C11_27  and  O4_28 
REMARK    9  A    between atoms: C12_30  and  C13_31 
REMARK   10  A    between atoms: C14_40  and  C15_41 
REMARK   11  A    between atoms: C16_45  and  C17_46 
REMARK   12  A    between atoms: C17_46  and  O6_47 
REMARK   13  A    between atoms: C17_46  and  C18_49 
REMARK   14  A    between atoms: C18_49  and  O7_50 
ROOT
HETATM    1  C1  UNL     1      16.689  47.268  -6.084  1.00  0.00     0.156 C 
HETATM    2  N1  UNL     1      17.531  47.052  -7.238  1.00  0.00    -0.355 N 
HETATM    3  C2  UNL     1      17.631  47.862  -8.329  1.00  0.00     0.121 A 
HETATM    4  C3  UNL     1      18.539  47.324  -9.226  1.00  0.00     0.062 A 
HETATM    5  C12 UNL     1      18.969  46.163  -8.613  1.00  0.00     0.069 A 
HETATM    6  C14 UNL     1      18.348  45.998  -7.393  1.00  0.00     0.097 A 
ENDROOT
BRANCH   4   7
HETATM    7  N2  UNL     1      18.972  47.812 -10.488  1.00  0.00    -0.353 N 
ATOM      8  H2  UNL     1      18.544  47.434 -11.333  1.00  0.00     0.163 HD
BRANCH   7   9
HETATM    9  C4  UNL     1      20.006  48.835 -10.620  1.00  0.00     0.161 C 
HETATM   10  C5  UNL     1      20.855  48.990  -9.405  1.00  0.00     0.077 C 
BRANCH   9  11
HETATM   11  O1  UNL     1      20.846  48.422 -11.669  1.00  0.00    -0.367 OA
ATOM     12  H1  UNL     1      21.400  47.734 -11.318  1.00  0.00     0.213 HD
ENDBRANCH   9  11
BRANCH   9  13
HETATM   13  C6  UNL     1      19.356  50.112 -11.003  1.00  0.00     0.050 A 
HETATM   14  C7  UNL     1      18.127  50.610 -10.647  1.00  0.00     0.116 A 
HETATM   15  N3  UNL     1      17.925  51.827 -11.226  1.00  0.00    -0.281 N 
HETATM   16  C10 UNL     1      19.011  52.123 -11.957  1.00  0.00     0.183 A 
HETATM   17  C11 UNL     1      19.900  51.076 -11.827  1.00  0.00     0.130 A 
BRANCH  15  18
HETATM   18  C8  UNL     1      16.748  52.606 -11.056  1.00  0.00     0.181 A 
HETATM   19  N4  UNL     1      15.458  52.232 -11.164  1.00  0.00    -0.221 N 
HETATM   20  O2  UNL     1      14.685  53.246 -10.931  1.00  0.00    -0.153 OA
ATOM     21  H4  UNL     1      15.138  51.292 -11.395  1.00  0.00     0.198 HD
HETATM   22  N5  UNL     1      15.393  54.299 -10.666  1.00  0.00    -0.222 N 
HETATM   23  C9  UNL     1      16.683  53.943 -10.734  1.00  0.00     0.168 A 
ATOM     24  H5  UNL     1      15.035  55.228 -10.446  1.00  0.00     0.198 HD
BRANCH  23  25
HETATM   25  N6  UNL     1      17.676  54.758 -10.522  1.00  0.00    -0.381 N 
ATOM     26  H62 UNL     1      18.601  54.650 -10.938  1.00  0.00     0.157 HD
ATOM     27  H61 UNL     1      17.682  55.592  -9.935  1.00  0.00     0.157 HD
ENDBRANCH  23  25
ENDBRANCH  15  18
BRANCH  16  28
HETATM   28  O3  UNL     1      19.212  53.292 -12.718  1.00  0.00    -0.344 OA
ATOM     29  H3  UNL     1      19.205  53.354 -13.666  1.00  0.00     0.219 HD
ENDBRANCH  16  28
BRANCH  17  30
HETATM   30  O4  UNL     1      21.144  51.038 -12.450  1.00  0.00    -0.356 OA
ATOM     31  H4  UNL     1      21.905  51.562 -12.234  1.00  0.00     0.218 HD
ENDBRANCH  17  30
ENDBRANCH   9  13
ENDBRANCH   7   9
ENDBRANCH   4   7
BRANCH   5  32
HETATM   32  C13 UNL     1      19.947  45.243  -9.190  1.00  0.00     0.152 A 
HETATM   33  N7  UNL     1      19.685  44.210 -10.001  1.00  0.00    -0.268 N 
HETATM   34  N8  UNL     1      20.816  43.628 -10.305  1.00  0.00    -0.227 N 
ATOM     35  H7  UNL     1      18.761  43.926 -10.327  1.00  0.00     0.190 HD
HETATM   36  N9  UNL     1      21.772  44.280  -9.698  1.00  0.00    -0.227 N 
ATOM     37  H8  UNL     1      20.931  42.812 -10.907  1.00  0.00     0.210 HD
HETATM   38  N10 UNL     1      21.289  45.278  -9.002  1.00  0.00    -0.268 N 
ATOM     39  H9  UNL     1      22.762  44.043  -9.758  1.00  0.00     0.210 HD
ATOM     40  H10 UNL     1      21.815  45.945  -8.436  1.00  0.00     0.190 HD
ENDBRANCH   5  32
BRANCH   6  41
HETATM   41  C15 UNL     1      18.553  44.888  -6.466  1.00  0.00     0.155 A 
HETATM   42  N11 UNL     1      17.980  43.673  -6.539  1.00  0.00    -0.241 N 
HETATM   43  O5  UNL     1      18.405  42.946  -5.533  1.00  0.00    -0.220 OA
ATOM     44  H11 UNL     1      17.322  43.367  -7.257  1.00  0.00     0.196 HD
HETATM   45  C16 UNL     1      19.239  43.624  -4.792  1.00  0.00     0.179 A 
HETATM   46  N12 UNL     1      19.336  44.849  -5.374  1.00  0.00    -0.319 N 
ATOM     47  H12 UNL     1      19.914  45.618  -5.034  1.00  0.00     0.169 HD
BRANCH  45  48
HETATM   48  C17 UNL     1      19.966  43.226  -3.570  1.00  0.00     0.218 C 
BRANCH  48  49
HETATM   49  O6  UNL     1      19.518  41.958  -3.198  1.00  0.00    -0.385 OA
ATOM     50  H6  UNL     1      18.668  42.057  -2.786  1.00  0.00     0.210 HD
ENDBRANCH  48  49
BRANCH  48  51
HETATM   51  C18 UNL     1      19.781  44.221  -2.450  1.00  0.00     0.204 C 
BRANCH  51  52
HETATM   52  O7  UNL     1      18.520  44.771  -2.414  1.00  0.00    -0.398 OA
ATOM     53  H7  UNL     1      18.055  44.592  -1.605  1.00  0.00     0.209 HD
ENDBRANCH  51  52
ENDBRANCH  48  51
ENDBRANCH  45  48
ENDBRANCH   6  41
TORSDOF 14
ENDMDL
