MODEL 1
REMARK VINA RESULT: -8.514380251      0.000      0.000
REMARK  5 active torsions:
REMARK  status: ('A' for Active; 'I' for Inactive)
REMARK       I    between atoms: N2_7  and  C6_8 
REMARK    1  A    between atoms: C6_8  and  C7_10 
REMARK    2  A    between atoms: C7_10  and  C8_11 
REMARK    3  A    between atoms: C7_10  and  N4_20 
REMARK       I    between atoms: N3_12  and  C9_14 
REMARK    4  A    between atoms: C9_14  and  C10_16 
REMARK       I    between atoms: N4_20  and  C14_22 
REMARK    5  A    between atoms: C14_22  and  C15_24 
ROOT
HETATM    1  N1  UNL     1      24.968  -4.433 -21.899  1.00  0.00    -0.195 NA
HETATM    2  C1  UNL     1      24.560  -3.633 -21.207  1.00  0.00     0.084 C 
HETATM    3  C2  UNL     1      24.045  -2.614 -20.288  1.00  0.00     0.194 C 
HETATM    4  C3  UNL     1      24.447  -1.267 -20.848  1.00  0.00     0.042 C 
HETATM    5  C4  UNL     1      23.500  -1.218 -22.056  1.00  0.00     0.023 C 
HETATM    6  C5  UNL     1      22.264  -1.976 -21.608  1.00  0.00     0.127 C 
HETATM    7  N2  UNL     1      22.601  -2.523 -20.321  1.00  0.00    -0.333 N 
HETATM    8  C6  UNL     1      21.739  -2.890 -19.251  1.00  0.00     0.248 C 
HETATM    9  O1  UNL     1      22.265  -3.289 -18.187  1.00  0.00    -0.271 OA
ENDROOT
BRANCH   8  10
HETATM   10  C7  UNL     1      20.254  -2.828 -19.325  1.00  0.00     0.215 C 
BRANCH  10  11
HETATM   11  C8  UNL     1      19.712  -2.661 -17.933  1.00  0.00     0.098 C 
HETATM   12  N3  UNL     1      19.397  -3.558 -17.135  1.00  0.00    -0.338 N 
HETATM   13  C9  UNL     1      19.415  -4.942 -17.196  1.00  0.00     0.225 C 
ATOM     14  H3  UNL     1      19.052  -3.200 -16.245  1.00  0.00     0.167 HD
HETATM   15  O2  UNL     1      20.240  -5.617 -17.890  1.00  0.00    -0.273 OA
BRANCH  13  16
HETATM   16  C10 UNL     1      18.434  -5.738 -16.422  1.00  0.00     0.078 C 
HETATM   17  C11 UNL     1      18.892  -6.118 -15.011  1.00  0.00     0.014 C 
HETATM   18  C12 UNL     1      18.285  -7.518 -15.257  1.00  0.00     0.002 C 
HETATM   19  C13 UNL     1      18.563  -7.245 -16.735  1.00  0.00     0.014 C 
ENDBRANCH  13  16
ENDBRANCH  10  11
BRANCH  10  20
HETATM   20  N4  UNL     1      19.865  -1.572 -19.979  1.00  0.00    -0.343 N 
HETATM   21  C14 UNL     1      19.295  -1.685 -21.290  1.00  0.00     0.222 C 
HETATM   22  O3  UNL     1      19.142  -2.825 -21.830  1.00  0.00    -0.273 OA
ATOM     23  H4  UNL     1      19.993  -0.667 -19.525  1.00  0.00     0.163 HD
BRANCH  21  24
HETATM   24  C15 UNL     1      18.877  -0.497 -22.023  1.00  0.00     0.080 C 
HETATM   25  C16 UNL     1      19.072  -0.601 -23.521  1.00  0.00     0.016 C 
HETATM   26  C17 UNL     1      19.490   0.762 -23.974  1.00  0.00     0.034 C 
HETATM   27  C18 UNL     1      19.385   1.667 -22.774  1.00  0.00     0.076 C 
HETATM   28 BR1  UNL     1      17.618   2.448 -22.703  1.00  0.00    -0.073 Br
HETATM   29 BR2  UNL     1      20.733   3.062 -22.886  1.00  0.00    -0.073 Br
HETATM   30  C19 UNL     1      19.609   0.763 -21.607  1.00  0.00     0.047 C 
ENDBRANCH  21  24
ENDBRANCH  10  20
ENDBRANCH   8  10
TORSDOF 5
ENDMDL
MODEL 2
REMARK VINA RESULT: -8.009877936      3.657      6.502
REMARK  5 active torsions:
REMARK  status: ('A' for Active; 'I' for Inactive)
REMARK       I    between atoms: N2_7  and  C6_8 
REMARK    1  A    between atoms: C6_8  and  C7_10 
REMARK    2  A    between atoms: C7_10  and  C8_11 
REMARK    3  A    between atoms: C7_10  and  N4_20 
REMARK       I    between atoms: N3_12  and  C9_14 
REMARK    4  A    between atoms: C9_14  and  C10_16 
REMARK       I    between atoms: N4_20  and  C14_22 
REMARK    5  A    between atoms: C14_22  and  C15_24 
ROOT
HETATM    1  N1  UNL     1      21.644  -2.630 -17.618  1.00  0.00    -0.195 NA
HETATM    2  C1  UNL     1      22.119  -2.444 -18.630  1.00  0.00     0.084 C 
HETATM    3  C2  UNL     1      22.749  -2.180 -19.927  1.00  0.00     0.194 C 
HETATM    4  C3  UNL     1      23.201  -3.515 -20.480  1.00  0.00     0.042 C 
HETATM    5  C4  UNL     1      21.827  -4.107 -20.828  1.00  0.00     0.023 C 
HETATM    6  C5  UNL     1      20.976  -2.910 -21.211  1.00  0.00     0.127 C 
HETATM    7  N2  UNL     1      21.793  -1.760 -20.929  1.00  0.00    -0.333 N 
HETATM    8  C6  UNL     1      21.737  -0.461 -21.504  1.00  0.00     0.248 C 
HETATM    9  O1  UNL     1      22.600   0.375 -21.147  1.00  0.00    -0.271 OA
ENDROOT
BRANCH   8  10
HETATM   10  C7  UNL     1      20.717  -0.039 -22.501  1.00  0.00     0.215 C 
BRANCH  10  11
HETATM   11  C8  UNL     1      19.354  -0.181 -21.881  1.00  0.00     0.098 C 
HETATM   12  N3  UNL     1      18.277   0.249 -22.324  1.00  0.00    -0.338 N 
HETATM   13  C9  UNL     1      17.926   0.965 -23.457  1.00  0.00     0.225 C 
ATOM     14  H3  UNL     1      17.481   0.029 -21.726  1.00  0.00     0.167 HD
HETATM   15  O2  UNL     1      18.549   0.903 -24.564  1.00  0.00    -0.273 OA
BRANCH  13  16
HETATM   16  C10 UNL     1      16.757   1.876 -23.435  1.00  0.00     0.078 C 
HETATM   17  C11 UNL     1      17.101   3.358 -23.604  1.00  0.00     0.014 C 
HETATM   18  C12 UNL     1      16.059   3.663 -22.504  1.00  0.00     0.002 C 
HETATM   19  C13 UNL     1      16.372   2.258 -21.988  1.00  0.00     0.014 C 
ENDBRANCH  13  16
ENDBRANCH  10  11
BRANCH  10  20
HETATM   20  N4  UNL     1      20.829   1.410 -22.711  1.00  0.00    -0.343 N 
HETATM   21  C14 UNL     1      21.303   1.834 -23.997  1.00  0.00     0.222 C 
HETATM   22  O3  UNL     1      21.597   0.978 -24.889  1.00  0.00    -0.273 OA
ATOM     23  H4  UNL     1      20.583   2.079 -21.982  1.00  0.00     0.163 HD
BRANCH  21  24
HETATM   24  C15 UNL     1      21.451   3.250 -24.303  1.00  0.00     0.080 C 
HETATM   25  C16 UNL     1      21.819   4.101 -23.105  1.00  0.00     0.016 C 
HETATM   26  C17 UNL     1      21.086   5.392 -23.281  1.00  0.00     0.034 C 
HETATM   27  C18 UNL     1      20.432   5.338 -24.638  1.00  0.00     0.076 C 
HETATM   28 BR1  UNL     1      21.632   6.064 -25.967  1.00  0.00    -0.073 Br
HETATM   29 BR2  UNL     1      18.772   6.347 -24.606  1.00  0.00    -0.073 Br
HETATM   30  C19 UNL     1      20.199   3.882 -24.877  1.00  0.00     0.047 C 
ENDBRANCH  21  24
ENDBRANCH  10  20
ENDBRANCH   8  10
TORSDOF 5
ENDMDL
MODEL 3
REMARK VINA RESULT: -7.939873196      7.146     12.040
REMARK  5 active torsions:
REMARK  status: ('A' for Active; 'I' for Inactive)
REMARK       I    between atoms: N2_7  and  C6_8 
REMARK    1  A    between atoms: C6_8  and  C7_10 
REMARK    2  A    between atoms: C7_10  and  C8_11 
REMARK    3  A    between atoms: C7_10  and  N4_20 
REMARK       I    between atoms: N3_12  and  C9_14 
REMARK    4  A    between atoms: C9_14  and  C10_16 
REMARK       I    between atoms: N4_20  and  C14_22 
REMARK    5  A    between atoms: C14_22  and  C15_24 
ROOT
HETATM    1  N1  UNL     1      18.192  10.565 -24.424  1.00  0.00    -0.195 NA
HETATM    2  C1  UNL     1      18.476   9.646 -23.824  1.00  0.00     0.084 C 
HETATM    3  C2  UNL     1      18.869   8.471 -23.041  1.00  0.00     0.194 C 
HETATM    4  C3  UNL     1      17.710   8.139 -22.127  1.00  0.00     0.042 C 
HETATM    5  C4  UNL     1      16.727   7.597 -23.175  1.00  0.00     0.023 C 
HETATM    6  C5  UNL     1      17.605   6.952 -24.231  1.00  0.00     0.127 C 
HETATM    7  N2  UNL     1      18.954   7.274 -23.849  1.00  0.00    -0.333 N 
HETATM    8  C6  UNL     1      20.159   6.580 -24.151  1.00  0.00     0.248 C 
HETATM    9  O1  UNL     1      21.223   7.013 -23.652  1.00  0.00    -0.271 OA
ENDROOT
BRANCH   8  10
HETATM   10  C7  UNL     1      20.225   5.375 -25.021  1.00  0.00     0.215 C 
BRANCH  10  11
HETATM   11  C8  UNL     1      21.601   5.293 -25.621  1.00  0.00     0.098 C 
HETATM   12  N3  UNL     1      22.093   6.041 -26.481  1.00  0.00    -0.338 N 
HETATM   13  C9  UNL     1      21.622   7.147 -27.170  1.00  0.00     0.225 C 
ATOM     14  H3  UNL     1      23.048   5.788 -26.733  1.00  0.00     0.167 HD
HETATM   15  O2  UNL     1      20.762   7.964 -26.711  1.00  0.00    -0.273 OA
BRANCH  13  16
HETATM   16  C10 UNL     1      22.119   7.446 -28.534  1.00  0.00     0.078 C 
HETATM   17  C11 UNL     1      22.120   6.249 -29.488  1.00  0.00     0.014 C 
HETATM   18  C12 UNL     1      23.497   6.733 -29.996  1.00  0.00     0.002 C 
HETATM   19  C13 UNL     1      23.658   7.346 -28.605  1.00  0.00     0.014 C 
ENDBRANCH  13  16
ENDBRANCH  10  11
BRANCH  10  20
HETATM   20  N4  UNL     1      20.167   4.176 -24.175  1.00  0.00    -0.343 N 
HETATM   21  C14 UNL     1      19.220   3.170 -24.560  1.00  0.00     0.222 C 
HETATM   22  O3  UNL     1      18.489   3.332 -25.585  1.00  0.00    -0.273 OA
ATOM     23  H4  UNL     1      20.768   4.065 -23.358  1.00  0.00     0.163 HD
BRANCH  21  24
HETATM   24  C15 UNL     1      19.086   1.943 -23.785  1.00  0.00     0.080 C 
HETATM   25  C16 UNL     1      18.906   2.174 -22.299  1.00  0.00     0.016 C 
HETATM   26  C17 UNL     1      19.656   1.073 -21.620  1.00  0.00     0.034 C 
HETATM   27  C18 UNL     1      20.128   0.139 -22.705  1.00  0.00     0.076 C 
HETATM   28 BR1  UNL     1      18.794  -1.225 -23.013  1.00  0.00    -0.073 Br
HETATM   29 BR2  UNL     1      21.813  -0.674 -22.182  1.00  0.00    -0.073 Br
HETATM   30  C19 UNL     1      20.276   1.013 -23.907  1.00  0.00     0.047 C 
ENDBRANCH  21  24
ENDBRANCH  10  20
ENDBRANCH   8  10
TORSDOF 5
ENDMDL
MODEL 4
REMARK VINA RESULT: -7.932919987      7.714     11.447
REMARK  5 active torsions:
REMARK  status: ('A' for Active; 'I' for Inactive)
REMARK       I    between atoms: N2_7  and  C6_8 
REMARK    1  A    between atoms: C6_8  and  C7_10 
REMARK    2  A    between atoms: C7_10  and  C8_11 
REMARK    3  A    between atoms: C7_10  and  N4_20 
REMARK       I    between atoms: N3_12  and  C9_14 
REMARK    4  A    between atoms: C9_14  and  C10_16 
REMARK       I    between atoms: N4_20  and  C14_22 
REMARK    5  A    between atoms: C14_22  and  C15_24 
ROOT
HETATM    1  N1  UNL     1      15.811   8.737 -19.782  1.00  0.00    -0.195 NA
HETATM    2  C1  UNL     1      16.086   8.859 -20.875  1.00  0.00     0.084 C 
HETATM    3  C2  UNL     1      16.414   9.006 -22.296  1.00  0.00     0.194 C 
HETATM    4  C3  UNL     1      16.931  10.415 -22.490  1.00  0.00     0.042 C 
HETATM    5  C4  UNL     1      18.290  10.270 -21.789  1.00  0.00     0.023 C 
HETATM    6  C5  UNL     1      18.700   8.830 -22.036  1.00  0.00     0.127 C 
HETATM    7  N2  UNL     1      17.567   8.219 -22.678  1.00  0.00    -0.333 N 
HETATM    8  C6  UNL     1      17.531   7.091 -23.544  1.00  0.00     0.248 C 
HETATM    9  O1  UNL     1      16.426   6.773 -24.043  1.00  0.00    -0.271 OA
ENDROOT
BRANCH   8  10
HETATM   10  C7  UNL     1      18.724   6.272 -23.888  1.00  0.00     0.215 C 
BRANCH  10  11
HETATM   11  C8  UNL     1      18.258   4.925 -24.367  1.00  0.00     0.098 C 
HETATM   12  N3  UNL     1      18.902   3.864 -24.373  1.00  0.00    -0.338 N 
HETATM   13  C9  UNL     1      20.186   3.521 -23.979  1.00  0.00     0.225 C 
ATOM     14  H3  UNL     1      18.374   3.076 -24.746  1.00  0.00     0.167 HD
HETATM   15  O2  UNL     1      20.827   4.101 -23.046  1.00  0.00    -0.273 OA
BRANCH  13  16
HETATM   16  C10 UNL     1      20.907   2.416 -24.654  1.00  0.00     0.078 C 
HETATM   17  C11 UNL     1      20.000   1.363 -25.295  1.00  0.00     0.014 C 
HETATM   18  C12 UNL     1      20.967   0.287 -24.753  1.00  0.00     0.002 C 
HETATM   19  C13 UNL     1      21.285   1.301 -23.654  1.00  0.00     0.014 C 
ENDBRANCH  13  16
ENDBRANCH  10  11
BRANCH  10  20
HETATM   20  N4  UNL     1      19.360   6.840 -25.083  1.00  0.00    -0.343 N 
HETATM   21  C14 UNL     1      20.704   7.316 -24.925  1.00  0.00     0.222 C 
HETATM   22  O3  UNL     1      21.289   7.231 -23.800  1.00  0.00    -0.273 OA
ATOM     23  H4  UNL     1      18.873   6.893 -25.977  1.00  0.00     0.163 HD
BRANCH  21  24
HETATM   24  C15 UNL     1      21.423   7.897 -26.051  1.00  0.00     0.080 C 
HETATM   25  C16 UNL     1      20.615   8.912 -26.834  1.00  0.00     0.016 C 
HETATM   26  C17 UNL     1      20.997   8.719 -28.267  1.00  0.00     0.034 C 
HETATM   27  C18 UNL     1      22.120   7.715 -28.284  1.00  0.00     0.076 C 
HETATM   28 BR1  UNL     1      23.816   8.634 -28.160  1.00  0.00    -0.073 Br
HETATM   29 BR2  UNL     1      22.039   6.669 -29.920  1.00  0.00    -0.073 Br
HETATM   30  C19 UNL     1      21.885   6.877 -27.070  1.00  0.00     0.047 C 
ENDBRANCH  21  24
ENDBRANCH  10  20
ENDBRANCH   8  10
TORSDOF 5
ENDMDL
MODEL 5
REMARK VINA RESULT: -7.874115978      8.026     12.229
REMARK  5 active torsions:
REMARK  status: ('A' for Active; 'I' for Inactive)
REMARK       I    between atoms: N2_7  and  C6_8 
REMARK    1  A    between atoms: C6_8  and  C7_10 
REMARK    2  A    between atoms: C7_10  and  C8_11 
REMARK    3  A    between atoms: C7_10  and  N4_20 
REMARK       I    between atoms: N3_12  and  C9_14 
REMARK    4  A    between atoms: C9_14  and  C10_16 
REMARK       I    between atoms: N4_20  and  C14_22 
REMARK    5  A    between atoms: C14_22  and  C15_24 
ROOT
HETATM    1  N1  UNL     1      20.020   1.818 -25.859  1.00  0.00    -0.195 NA
HETATM    2  C1  UNL     1      19.624   2.280 -24.902  1.00  0.00     0.084 C 
HETATM    3  C2  UNL     1      19.085   2.869 -23.673  1.00  0.00     0.194 C 
HETATM    4  C3  UNL     1      19.951   2.382 -22.531  1.00  0.00     0.042 C 
HETATM    5  C4  UNL     1      21.219   3.196 -22.829  1.00  0.00     0.023 C 
HETATM    6  C5  UNL     1      20.713   4.487 -23.445  1.00  0.00     0.127 C 
HETATM    7  N2  UNL     1      19.297   4.299 -23.608  1.00  0.00    -0.333 N 
HETATM    8  C6  UNL     1      18.265   5.277 -23.672  1.00  0.00     0.248 C 
HETATM    9  O1  UNL     1      17.082   4.874 -23.755  1.00  0.00    -0.271 OA
ENDROOT
BRANCH   8  10
HETATM   10  C7  UNL     1      18.512   6.744 -23.648  1.00  0.00     0.215 C 
BRANCH  10  11
HETATM   11  C8  UNL     1      18.652   7.230 -25.064  1.00  0.00     0.098 C 
HETATM   12  N3  UNL     1      19.612   7.842 -25.558  1.00  0.00    -0.338 N 
HETATM   13  C9  UNL     1      20.825   8.285 -25.057  1.00  0.00     0.225 C 
ATOM     14  H3  UNL     1      19.479   8.068 -26.544  1.00  0.00     0.167 HD
HETATM   15  O2  UNL     1      21.459   7.718 -24.111  1.00  0.00    -0.273 OA
BRANCH  13  16
HETATM   16  C10 UNL     1      21.473   9.492 -25.622  1.00  0.00     0.078 C 
HETATM   17  C11 UNL     1      22.408   9.220 -26.803  1.00  0.00     0.014 C 
HETATM   18  C12 UNL     1      23.388  10.243 -26.185  1.00  0.00     0.002 C 
HETATM   19  C13 UNL     1      22.760   9.853 -24.846  1.00  0.00     0.014 C 
ENDBRANCH  13  16
ENDBRANCH  10  11
BRANCH  10  20
HETATM   20  N4  UNL     1      17.293   7.422 -23.190  1.00  0.00    -0.343 N 
HETATM   21  C14 UNL     1      17.477   8.548 -22.321  1.00  0.00     0.222 C 
HETATM   22  O3  UNL     1      18.645   8.919 -21.986  1.00  0.00    -0.273 OA
ATOM     23  H4  UNL     1      16.365   7.109 -23.475  1.00  0.00     0.163 HD
BRANCH  21  24
HETATM   24  C15 UNL     1      16.330   9.287 -21.812  1.00  0.00     0.080 C 
HETATM   25  C16 UNL     1      16.383  10.773 -22.098  1.00  0.00     0.016 C 
HETATM   26  C17 UNL     1      15.801  11.443 -20.894  1.00  0.00     0.034 C 
HETATM   27  C18 UNL     1      15.281  10.347 -20.000  1.00  0.00     0.076 C 
HETATM   28 BR1  UNL     1      13.437   9.970 -20.439  1.00  0.00    -0.073 Br
HETATM   29 BR2  UNL     1      15.433  10.892 -18.141  1.00  0.00    -0.073 Br
HETATM   30  C19 UNL     1      16.148   9.172 -20.312  1.00  0.00     0.047 C 
ENDBRANCH  21  24
ENDBRANCH  10  20
ENDBRANCH   8  10
TORSDOF 5
ENDMDL
