MODEL 1
REMARK VINA RESULT: -5.665730384      0.000      0.000
REMARK  10 active torsions:
REMARK  status: ('A' for Active; 'I' for Inactive)
REMARK    1  A    between atoms: O1_2  and  C2_3 
REMARK    2  A    between atoms: C3_4  and  C4_5 
REMARK    3  A    between atoms: C4_5  and  C5_6 
REMARK    4  A    between atoms: C6_7  and  O2_8 
REMARK    5  A    between atoms: C14_30  and  C15_31 
REMARK    6  A    between atoms: N5_33  and  O5_35 
REMARK    7  A    between atoms: O5_35  and  C17_36 
REMARK    8  A    between atoms: C17_36  and  C18_37 
REMARK    9  A    between atoms: C18_37  and  N6_38 
REMARK   10  A    between atoms: C19_42  and  O6_43 
ROOT
HETATM    1  C2  UNL     1      -4.966  11.032  13.533  1.00  0.00     0.099 A 
HETATM    2  C3  UNL     1      -5.655  11.661  12.556  1.00  0.00    -0.017 A 
HETATM    3  C9  UNL     1      -6.340  10.893  11.634  1.00  0.00     0.026 A 
HETATM    4  C10 UNL     1      -6.409   9.491  11.633  1.00  0.00     0.024 A 
HETATM    5  C11 UNL     1      -7.291   8.770  10.770  1.00  0.00     0.044 C 
HETATM    6  N3  UNL     1      -8.601   8.646  11.452  1.00  0.00    -0.325 N 
ATOM      7  H3  UNL     1      -8.784   8.219  12.361  1.00  0.00     0.174 HD
HETATM    8  S2  UNL     1      -9.807   9.409  10.344  1.00  0.00     0.031 SA
HETATM    9  C12 UNL     1      -9.316   8.668   8.730  1.00  0.00     0.252 C 
HETATM   10  O4  UNL     1      -9.821   8.979   7.653  1.00  0.00    -0.277 OA
HETATM   11  C13 UNL     1      -8.277   7.668   8.848  1.00  0.00     0.078 C 
HETATM   12  N4  UNL     1      -8.429   6.584   8.162  1.00  0.00    -0.398 N 
ATOM     13  H41 UNL     1      -7.697   5.879   8.245  1.00  0.00     0.156 HD
ATOM     14  H42 UNL     1      -9.258   6.437   7.586  1.00  0.00     0.156 HD
HETATM   15  C14 UNL     1      -7.028   7.889   9.716  1.00  0.00     0.138 C 
HETATM   16  C19 UNL     1      -5.699   8.874  12.688  1.00  0.00     0.104 A 
HETATM   17  C21 UNL     1      -4.979   9.617  13.621  1.00  0.00     0.102 A 
HETATM   18 CL1  UNL     1      -4.072   8.894  14.930  1.00  0.00    -0.078 Cl
ENDROOT
BRANCH  16  19
HETATM   19  O6  UNL     1      -5.647   7.551  12.923  1.00  0.00    -0.353 OA
HETATM   20  C20 UNL     1      -4.893   6.524  12.434  1.00  0.00     0.210 C 
ENDBRANCH  16  19
BRANCH   2  21
HETATM   21  C4  UNL     1      -5.992  13.165  12.706  1.00  0.00     0.090 C 
BRANCH  21  22
HETATM   22  C5  UNL     1      -7.536  13.042  12.766  1.00  0.00     0.065 A 
HETATM   23  C6  UNL     1      -8.342  13.269  11.689  1.00  0.00     0.154 A 
HETATM   24  N1  UNL     1      -9.674  13.474  11.789  1.00  0.00    -0.313 N 
HETATM   25  C7  UNL     1     -10.269  13.443  12.991  1.00  0.00     0.180 A 
ATOM     26  H1  UNL     1     -10.227  13.652  10.950  1.00  0.00     0.170 HD
HETATM   27  S1  UNL     1     -11.870  13.754  13.161  1.00  0.00    -0.040 SA
HETATM   28  N2  UNL     1      -9.518  13.213  14.069  1.00  0.00    -0.299 N 
HETATM   29  C8  UNL     1      -8.158  13.008  14.004  1.00  0.00     0.258 A 
ATOM     30  H2  UNL     1      -9.971  13.189  14.982  1.00  0.00     0.171 HD
HETATM   31  O3  UNL     1      -7.582  12.788  15.077  1.00  0.00    -0.267 OA
BRANCH  23  32
HETATM   32  O2  UNL     1      -7.830  13.279  10.384  1.00  0.00    -0.345 OA
ATOM     33  H2  UNL     1      -8.404  13.318   9.627  1.00  0.00     0.219 HD
ENDBRANCH  23  32
ENDBRANCH  21  22
ENDBRANCH   2  21
BRANCH  15  34
HETATM   34  C15 UNL     1      -5.975   7.991   8.708  1.00  0.00     0.022 C 
HETATM   35  C16 UNL     1      -4.905   6.976   8.569  1.00  0.00     0.066 C 
HETATM   36  N5  UNL     1      -5.978   8.942   7.893  1.00  0.00    -0.274 N 
ATOM     37  H5  UNL     1      -6.800   9.494   8.138  1.00  0.00     0.193 HD
BRANCH  36  38
HETATM   38  O5  UNL     1      -5.449   9.562   6.896  1.00  0.00    -0.279 OA
BRANCH  38  39
HETATM   39  C17 UNL     1      -6.346  10.158   5.882  1.00  0.00     0.228 C 
BRANCH  39  40
HETATM   40  C18 UNL     1      -7.252   8.993   5.470  1.00  0.00     0.258 C 
BRANCH  40  41
HETATM   41  N6  UNL     1      -8.429   9.381   4.840  1.00  0.00    -0.077 N 
ATOM     42  H63 UNL     1      -9.202   9.393   5.506  1.00  0.00     0.274 HD
ATOM     43  H62 UNL     1      -8.393  10.371   4.597  1.00  0.00     0.274 HD
ATOM     44  H61 UNL     1      -8.670   8.821   4.023  1.00  0.00     0.274 HD
ENDBRANCH  40  41
ENDBRANCH  39  40
ENDBRANCH  38  39
ENDBRANCH  36  38
ENDBRANCH  15  34
BRANCH   1  45
HETATM   45  O1  UNL     1      -4.190  11.684  14.487  1.00  0.00    -0.354 OA
HETATM   46  C1  UNL     1      -3.090  12.403  13.927  1.00  0.00     0.210 C 
ENDBRANCH   1  45
TORSDOF 10
ENDMDL
MODEL 2
REMARK VINA RESULT: -5.503130996      1.169      1.201
REMARK  10 active torsions:
REMARK  status: ('A' for Active; 'I' for Inactive)
REMARK    1  A    between atoms: O1_2  and  C2_3 
REMARK    2  A    between atoms: C3_4  and  C4_5 
REMARK    3  A    between atoms: C4_5  and  C5_6 
REMARK    4  A    between atoms: C6_7  and  O2_8 
REMARK    5  A    between atoms: C14_30  and  C15_31 
REMARK    6  A    between atoms: N5_33  and  O5_35 
REMARK    7  A    between atoms: O5_35  and  C17_36 
REMARK    8  A    between atoms: C17_36  and  C18_37 
REMARK    9  A    between atoms: C18_37  and  N6_38 
REMARK   10  A    between atoms: C19_42  and  O6_43 
ROOT
HETATM    1  C2  UNL     1      -4.704  11.257  13.946  1.00  0.00     0.099 A 
HETATM    2  C3  UNL     1      -5.500  11.660  12.932  1.00  0.00    -0.017 A 
HETATM    3  C9  UNL     1      -6.263  10.713  12.277  1.00  0.00     0.026 A 
HETATM    4  C10 UNL     1      -6.308   9.346  12.589  1.00  0.00     0.024 A 
HETATM    5  C11 UNL     1      -7.262   8.458  12.002  1.00  0.00     0.044 C 
HETATM    6  N3  UNL     1      -8.492   8.495  12.827  1.00  0.00    -0.325 N 
ATOM      7  H3  UNL     1      -8.574   8.279  13.821  1.00  0.00     0.174 HD
HETATM    8  S2  UNL     1      -9.819   9.004  11.710  1.00  0.00     0.031 SA
HETATM    9  C12 UNL     1      -9.484   7.924  10.256  1.00  0.00     0.252 C 
HETATM   10  O4  UNL     1     -10.103   7.994   9.195  1.00  0.00    -0.277 OA
HETATM   11  C13 UNL     1      -8.422   6.968  10.480  1.00  0.00     0.078 C 
HETATM   12  N4  UNL     1      -8.626   5.761  10.068  1.00  0.00    -0.398 N 
ATOM     13  H41 UNL     1      -7.878   5.086  10.226  1.00  0.00     0.156 HD
ATOM     14  H42 UNL     1      -9.507   5.496   9.628  1.00  0.00     0.156 HD
HETATM   15  C14 UNL     1      -7.094   7.366  11.144  1.00  0.00     0.138 C 
HETATM   16  C19 UNL     1      -5.483   8.970  13.674  1.00  0.00     0.104 A 
HETATM   17  C21 UNL     1      -4.684   9.896  14.342  1.00  0.00     0.102 A 
HETATM   18 CL1  UNL     1      -3.635   9.472  15.676  1.00  0.00    -0.078 Cl
ENDROOT
BRANCH  16  19
HETATM   19  O6  UNL     1      -5.385   7.730  14.186  1.00  0.00    -0.353 OA
HETATM   20  C20 UNL     1      -4.669   6.616  13.858  1.00  0.00     0.210 C 
ENDBRANCH  16  19
BRANCH   2  21
HETATM   21  C4  UNL     1      -5.845  13.163  12.784  1.00  0.00     0.090 C 
BRANCH  21  22
HETATM   22  C5  UNL     1      -7.390  13.037  12.788  1.00  0.00     0.065 A 
HETATM   23  C6  UNL     1      -8.149  13.172  11.662  1.00  0.00     0.154 A 
HETATM   24  N1  UNL     1      -9.484  13.378  11.687  1.00  0.00    -0.313 N 
HETATM   25  C7  UNL     1     -10.131  13.442  12.861  1.00  0.00     0.180 A 
ATOM     26  H1  UNL     1     -10.000  13.485  10.814  1.00  0.00     0.170 HD
HETATM   27  S1  UNL     1     -11.738  13.758  12.937  1.00  0.00    -0.040 SA
HETATM   28  N2  UNL     1      -9.426  13.305  13.985  1.00  0.00    -0.299 N 
HETATM   29  C8  UNL     1      -8.065  13.101  13.995  1.00  0.00     0.258 A 
ATOM     30  H2  UNL     1      -9.918  13.353  14.878  1.00  0.00     0.171 HD
HETATM   31  O3  UNL     1      -7.535  12.972  15.107  1.00  0.00    -0.267 OA
BRANCH  23  32
HETATM   32  O2  UNL     1      -7.582  13.078  10.383  1.00  0.00    -0.345 OA
ATOM     33  H2  UNL     1      -8.118  13.112   9.600  1.00  0.00     0.219 HD
ENDBRANCH  23  32
ENDBRANCH  21  22
ENDBRANCH   2  21
BRANCH  15  34
HETATM   34  C15 UNL     1      -6.152   7.238  10.035  1.00  0.00     0.022 C 
HETATM   35  C16 UNL     1      -5.119   6.178   9.986  1.00  0.00     0.066 C 
HETATM   36  N5  UNL     1      -6.227   8.016   9.057  1.00  0.00    -0.274 N 
ATOM     37  H5  UNL     1      -7.010   8.634   9.273  1.00  0.00     0.193 HD
BRANCH  36  38
HETATM   38  O5  UNL     1      -5.798   8.417   7.911  1.00  0.00    -0.279 OA
BRANCH  38  39
HETATM   39  C17 UNL     1      -6.109   9.798   7.485  1.00  0.00     0.228 C 
BRANCH  39  40
HETATM   40  C18 UNL     1      -6.590   9.632   6.040  1.00  0.00     0.258 C 
BRANCH  40  41
HETATM   41  N6  UNL     1      -6.047  10.550   5.149  1.00  0.00    -0.077 N 
ATOM     42  H63 UNL     1      -5.849  11.433   5.622  1.00  0.00     0.274 HD
ATOM     43  H62 UNL     1      -5.100  10.277   4.889  1.00  0.00     0.274 HD
ATOM     44  H61 UNL     1      -6.614  10.711   4.316  1.00  0.00     0.274 HD
ENDBRANCH  40  41
ENDBRANCH  39  40
ENDBRANCH  38  39
ENDBRANCH  36  38
ENDBRANCH  15  34
BRANCH   1  45
HETATM   45  O1  UNL     1      -3.845  12.097  14.649  1.00  0.00    -0.354 OA
HETATM   46  C1  UNL     1      -2.750  12.572  13.862  1.00  0.00     0.210 C 
ENDBRANCH   1  45
TORSDOF 10
ENDMDL
MODEL 3
REMARK VINA RESULT: -5.319367609      5.447      8.612
REMARK  10 active torsions:
REMARK  status: ('A' for Active; 'I' for Inactive)
REMARK    1  A    between atoms: O1_2  and  C2_3 
REMARK    2  A    between atoms: C3_4  and  C4_5 
REMARK    3  A    between atoms: C4_5  and  C5_6 
REMARK    4  A    between atoms: C6_7  and  O2_8 
REMARK    5  A    between atoms: C14_30  and  C15_31 
REMARK    6  A    between atoms: N5_33  and  O5_35 
REMARK    7  A    between atoms: O5_35  and  C17_36 
REMARK    8  A    between atoms: C17_36  and  C18_37 
REMARK    9  A    between atoms: C18_37  and  N6_38 
REMARK   10  A    between atoms: C19_42  and  O6_43 
ROOT
HETATM    1  C2  UNL     1      -2.176  13.587  14.522  1.00  0.00     0.099 A 
HETATM    2  C3  UNL     1      -3.082  12.808  15.154  1.00  0.00    -0.017 A 
HETATM    3  C9  UNL     1      -2.628  11.884  16.074  1.00  0.00     0.026 A 
HETATM    4  C10 UNL     1      -1.287  11.691  16.441  1.00  0.00     0.024 A 
HETATM    5  C11 UNL     1      -0.906  10.857  17.537  1.00  0.00     0.044 C 
HETATM    6  N3  UNL     1      -0.929  11.681  18.770  1.00  0.00    -0.325 N 
ATOM      7  H3  UNL     1      -0.400  12.535  18.950  1.00  0.00     0.174 HD
HETATM    8  S2  UNL     1      -2.088  10.861  19.888  1.00  0.00     0.031 SA
HETATM    9  C12 UNL     1      -1.546   9.107  19.729  1.00  0.00     0.252 C 
HETATM   10  O4  UNL     1      -2.125   8.162  20.260  1.00  0.00    -0.277 OA
HETATM   11  C13 UNL     1      -0.356   8.943  18.922  1.00  0.00     0.078 C 
HETATM   12  N4  UNL     1       0.546   8.135  19.369  1.00  0.00    -0.398 N 
ATOM     13  H41 UNL     1       1.385   8.019  18.800  1.00  0.00     0.156 HD
ATOM     14  H42 UNL     1       0.430   7.658  20.263  1.00  0.00     0.156 HD
HETATM   15  C14 UNL     1      -0.181   9.662  17.574  1.00  0.00     0.138 C 
HETATM   16  C19 UNL     1      -0.375  12.544  15.779  1.00  0.00     0.104 A 
HETATM   17  C21 UNL     1      -0.797  13.472  14.828  1.00  0.00     0.102 A 
HETATM   18 CL1  UNL     1       0.298  14.534  13.972  1.00  0.00    -0.078 Cl
ENDROOT
BRANCH  16  19
HETATM   19  O6  UNL     1       0.953  12.579  15.988  1.00  0.00    -0.353 OA
HETATM   20  C20 UNL     1       2.020  11.912  15.458  1.00  0.00     0.210 C 
ENDBRANCH  16  19
BRANCH   2  21
HETATM   21  C4  UNL     1      -4.576  13.216  15.144  1.00  0.00     0.090 C 
BRANCH  21  22
HETATM   22  C5  UNL     1      -5.081  12.184  14.104  1.00  0.00     0.065 A 
HETATM   23  C6  UNL     1      -5.279  12.490  12.789  1.00  0.00     0.154 A 
HETATM   24  N1  UNL     1      -6.001  11.718  11.948  1.00  0.00    -0.313 N 
HETATM   25  C7  UNL     1      -6.551  10.577  12.390  1.00  0.00     0.180 A 
ATOM     26  H1  UNL     1      -6.128  12.003  10.976  1.00  0.00     0.170 HD
HETATM   27  S1  UNL     1      -7.490   9.648  11.419  1.00  0.00    -0.040 SA
HETATM   28  N2  UNL     1      -6.372  10.236  13.667  1.00  0.00    -0.299 N 
HETATM   29  C8  UNL     1      -5.649  11.003  14.552  1.00  0.00     0.258 A 
ATOM     30  H2  UNL     1      -6.790   9.368  14.002  1.00  0.00     0.171 HD
HETATM   31  O3  UNL     1      -5.545  10.563  15.704  1.00  0.00    -0.267 OA
BRANCH  23  32
HETATM   32  O2  UNL     1      -4.713  13.637  12.213  1.00  0.00    -0.345 OA
ATOM     33  H2  UNL     1      -4.380  13.631  11.324  1.00  0.00     0.219 HD
ENDBRANCH  23  32
ENDBRANCH  21  22
ENDBRANCH   2  21
BRANCH  15  34
HETATM   34  C15 UNL     1      -0.242   8.551  16.629  1.00  0.00     0.022 C 
HETATM   35  C16 UNL     1       0.972   7.941  16.037  1.00  0.00     0.066 C 
HETATM   36  N5  UNL     1      -1.347   8.049  16.323  1.00  0.00    -0.274 N 
ATOM     37  H5  UNL     1      -2.034   8.583  16.855  1.00  0.00     0.193 HD
BRANCH  36  38
HETATM   38  O5  UNL     1      -2.040   7.186  15.663  1.00  0.00    -0.279 OA
BRANCH  38  39
HETATM   39  C17 UNL     1      -3.515   7.292  15.699  1.00  0.00     0.228 C 
BRANCH  39  40
HETATM   40  C18 UNL     1      -3.833   7.405  17.193  1.00  0.00     0.258 C 
BRANCH  40  41
HETATM   41  N6  UNL     1      -4.483   8.581  17.551  1.00  0.00    -0.077 N 
ATOM     42  H63 UNL     1      -3.805   9.308  17.780  1.00  0.00     0.274 HD
ATOM     43  H62 UNL     1      -4.925   9.005  16.736  1.00  0.00     0.274 HD
ATOM     44  H61 UNL     1      -5.159   8.472  18.307  1.00  0.00     0.274 HD
ENDBRANCH  40  41
ENDBRANCH  39  40
ENDBRANCH  38  39
ENDBRANCH  36  38
ENDBRANCH  15  34
BRANCH   1  45
HETATM   45  O1  UNL     1      -2.494  14.514  13.534  1.00  0.00    -0.354 OA
HETATM   46  C1  UNL     1      -2.631  15.847  14.032  1.00  0.00     0.210 C 
ENDBRANCH   1  45
TORSDOF 10
ENDMDL
MODEL 4
REMARK VINA RESULT: -5.257202611      5.149      8.943
REMARK  10 active torsions:
REMARK  status: ('A' for Active; 'I' for Inactive)
REMARK    1  A    between atoms: O1_2  and  C2_3 
REMARK    2  A    between atoms: C3_4  and  C4_5 
REMARK    3  A    between atoms: C4_5  and  C5_6 
REMARK    4  A    between atoms: C6_7  and  O2_8 
REMARK    5  A    between atoms: C14_30  and  C15_31 
REMARK    6  A    between atoms: N5_33  and  O5_35 
REMARK    7  A    between atoms: O5_35  and  C17_36 
REMARK    8  A    between atoms: C17_36  and  C18_37 
REMARK    9  A    between atoms: C18_37  and  N6_38 
REMARK   10  A    between atoms: C19_42  and  O6_43 
ROOT
HETATM    1  C2  UNL     1      -5.057  11.047  13.129  1.00  0.00     0.099 A 
HETATM    2  C3  UNL     1      -5.094   9.870  13.790  1.00  0.00    -0.017 A 
HETATM    3  C9  UNL     1      -4.376   9.751  14.964  1.00  0.00     0.026 A 
HETATM    4  C10 UNL     1      -3.617  10.770  15.561  1.00  0.00     0.024 A 
HETATM    5  C11 UNL     1      -3.061  10.641  16.872  1.00  0.00     0.044 C 
HETATM    6  N3  UNL     1      -4.082  11.088  17.849  1.00  0.00    -0.325 N 
ATOM      7  H3  UNL     1      -4.536  12.000  17.892  1.00  0.00     0.174 HD
HETATM    8  S2  UNL     1      -4.358   9.681  18.950  1.00  0.00     0.031 SA
HETATM    9  C12 UNL     1      -2.624   9.169  19.304  1.00  0.00     0.252 C 
HETATM   10  O4  UNL     1      -2.325   8.171  19.957  1.00  0.00    -0.277 OA
HETATM   11  C13 UNL     1      -1.633  10.064  18.746  1.00  0.00     0.078 C 
HETATM   12  N4  UNL     1      -0.637  10.379  19.504  1.00  0.00    -0.398 N 
ATOM     13  H41 UNL     1       0.061  11.010  19.111  1.00  0.00     0.156 HD
ATOM     14  H42 UNL     1      -0.571  10.029  20.460  1.00  0.00     0.156 HD
HETATM   15  C14 UNL     1      -1.732  10.591  17.305  1.00  0.00     0.138 C 
HETATM   16  C19 UNL     1      -3.628  11.993  14.854  1.00  0.00     0.104 A 
HETATM   17  C21 UNL     1      -4.322  12.141  13.655  1.00  0.00     0.102 A 
HETATM   18 CL1  UNL     1      -4.348  13.629  12.737  1.00  0.00    -0.078 Cl
ENDROOT
BRANCH  16  19
HETATM   19  O6  UNL     1      -3.012  13.124  15.242  1.00  0.00    -0.353 OA
HETATM   20  C20 UNL     1      -3.332  14.138  16.098  1.00  0.00     0.210 C 
ENDBRANCH  16  19
BRANCH   2  21
HETATM   21  C4  UNL     1      -6.208   8.845  13.462  1.00  0.00     0.090 C 
BRANCH  21  22
HETATM   22  C5  UNL     1      -5.305   7.695  12.946  1.00  0.00     0.065 A 
HETATM   23  C6  UNL     1      -4.962   7.551  11.633  1.00  0.00     0.154 A 
HETATM   24  N1  UNL     1      -4.453   6.410  11.120  1.00  0.00    -0.313 N 
HETATM   25  C7  UNL     1      -4.246   5.350  11.917  1.00  0.00     0.180 A 
ATOM     26  H1  UNL     1      -4.226   6.354  10.127  1.00  0.00     0.170 HD
HETATM   27  S1  UNL     1      -3.693   3.926  11.320  1.00  0.00    -0.040 SA
HETATM   28  N2  UNL     1      -4.558   5.453  13.209  1.00  0.00    -0.299 N 
HETATM   29  C8  UNL     1      -5.085   6.598  13.763  1.00  0.00     0.258 A 
ATOM     30  H2  UNL     1      -4.400   4.648  13.814  1.00  0.00     0.171 HD
HETATM   31  O3  UNL     1      -5.314   6.567  14.979  1.00  0.00    -0.267 OA
BRANCH  23  32
HETATM   32  O2  UNL     1      -5.097   8.609  10.723  1.00  0.00    -0.345 OA
ATOM     33  H2  UNL     1      -5.477   8.477   9.863  1.00  0.00     0.219 HD
ENDBRANCH  23  32
ENDBRANCH  21  22
ENDBRANCH   2  21
BRANCH  15  34
HETATM   34  C15 UNL     1      -0.607   9.920  16.660  1.00  0.00     0.022 C 
HETATM   35  C16 UNL     1      -0.563   8.452  16.460  1.00  0.00     0.066 C 
HETATM   36  N5  UNL     1       0.351  10.591  16.213  1.00  0.00    -0.274 N 
ATOM     37  H5  UNL     1       0.110  11.560  16.420  1.00  0.00     0.193 HD
BRANCH  36  38
HETATM   38  O5  UNL     1       1.491  10.655  15.618  1.00  0.00    -0.279 OA
BRANCH  38  39
HETATM   39  C17 UNL     1       2.026  11.986  15.261  1.00  0.00     0.228 C 
BRANCH  39  40
HETATM   40  C18 UNL     1       0.780  12.781  14.857  1.00  0.00     0.258 C 
BRANCH  40  41
HETATM   41  N6  UNL     1       1.048  13.922  14.110  1.00  0.00    -0.077 N 
ATOM     42  H63 UNL     1       2.032  14.179  14.192  1.00  0.00     0.274 HD
ATOM     43  H62 UNL     1       1.005  13.712  13.113  1.00  0.00     0.274 HD
ATOM     44  H61 UNL     1       0.451  14.718  14.333  1.00  0.00     0.274 HD
ENDBRANCH  40  41
ENDBRANCH  39  40
ENDBRANCH  38  39
ENDBRANCH  36  38
ENDBRANCH  15  34
BRANCH   1  45
HETATM   45  O1  UNL     1      -5.686  11.281  11.909  1.00  0.00    -0.354 OA
HETATM   46  C1  UNL     1      -7.012  11.796  12.046  1.00  0.00     0.210 C 
ENDBRANCH   1  45
TORSDOF 10
ENDMDL
MODEL 5
REMARK VINA RESULT: -5.227950604      5.188      8.108
REMARK  10 active torsions:
REMARK  status: ('A' for Active; 'I' for Inactive)
REMARK    1  A    between atoms: O1_2  and  C2_3 
REMARK    2  A    between atoms: C3_4  and  C4_5 
REMARK    3  A    between atoms: C4_5  and  C5_6 
REMARK    4  A    between atoms: C6_7  and  O2_8 
REMARK    5  A    between atoms: C14_30  and  C15_31 
REMARK    6  A    between atoms: N5_33  and  O5_35 
REMARK    7  A    between atoms: O5_35  and  C17_36 
REMARK    8  A    between atoms: C17_36  and  C18_37 
REMARK    9  A    between atoms: C18_37  and  N6_38 
REMARK   10  A    between atoms: C19_42  and  O6_43 
ROOT
HETATM    1  C2  UNL     1      -1.018   7.537  16.151  1.00  0.00     0.099 A 
HETATM    2  C3  UNL     1      -1.287   8.759  16.661  1.00  0.00    -0.017 A 
HETATM    3  C9  UNL     1      -2.515   9.331  16.388  1.00  0.00     0.026 A 
HETATM    4  C10 UNL     1      -3.540   8.738  15.634  1.00  0.00     0.024 A 
HETATM    5  C11 UNL     1      -4.852   9.298  15.554  1.00  0.00     0.044 C 
HETATM    6  N3  UNL     1      -5.644   8.777  16.693  1.00  0.00    -0.325 N 
ATOM      7  H3  UNL     1      -5.836   7.800  16.914  1.00  0.00     0.174 HD
HETATM    8  S2  UNL     1      -6.199  10.231  17.613  1.00  0.00     0.031 SA
HETATM    9  C12 UNL     1      -6.794  11.306  16.239  1.00  0.00     0.252 C 
HETATM   10  O4  UNL     1      -7.188  12.460  16.396  1.00  0.00    -0.277 OA
HETATM   11  C13 UNL     1      -6.767  10.657  14.947  1.00  0.00     0.078 C 
HETATM   12  N4  UNL     1      -7.798  10.824  14.187  1.00  0.00    -0.398 N 
ATOM     13  H41 UNL     1      -7.779  10.367  13.276  1.00  0.00     0.156 HD
ATOM     14  H42 UNL     1      -8.601  11.368  14.502  1.00  0.00     0.156 HD
HETATM   15  C14 UNL     1      -5.556   9.837  14.473  1.00  0.00     0.138 C 
HETATM   16  C19 UNL     1      -3.229   7.449  15.143  1.00  0.00     0.104 A 
HETATM   17  C21 UNL     1      -1.992   6.852  15.382  1.00  0.00     0.102 A 
HETATM   18 CL1  UNL     1      -1.559   5.269  14.778  1.00  0.00    -0.078 Cl
ENDROOT
BRANCH  16  19
HETATM   19  O6  UNL     1      -4.059   6.665  14.433  1.00  0.00    -0.353 OA
HETATM   20  C20 UNL     1      -4.401   6.587  13.114  1.00  0.00     0.210 C 
ENDBRANCH  16  19
BRANCH   2  21
HETATM   21  C4  UNL     1      -0.425   9.307  17.826  1.00  0.00     0.090 C 
BRANCH  21  22
HETATM   22  C5  UNL     1       0.088  10.596  17.134  1.00  0.00     0.065 A 
HETATM   23  C6  UNL     1      -0.582  11.783  17.186  1.00  0.00     0.154 A 
HETATM   24  N1  UNL     1      -0.330  12.815  16.351  1.00  0.00    -0.313 N 
HETATM   25  C7  UNL     1       0.633  12.706  15.422  1.00  0.00     0.180 A 
ATOM     26  H1  UNL     1      -0.871  13.676  16.426  1.00  0.00     0.170 HD
HETATM   27  S1  UNL     1       0.924  13.909  14.347  1.00  0.00    -0.040 SA
HETATM   28  N2  UNL     1       1.318  11.564  15.346  1.00  0.00    -0.299 N 
HETATM   29  C8  UNL     1       1.082  10.492  16.176  1.00  0.00     0.258 A 
ATOM     30  H2  UNL     1       2.051  11.482  14.640  1.00  0.00     0.171 HD
HETATM   31  O3  UNL     1       1.801   9.498  16.010  1.00  0.00    -0.267 OA
BRANCH  23  32
HETATM   32  O2  UNL     1      -1.577  12.019  18.146  1.00  0.00    -0.345 OA
ATOM     33  H2  UNL     1      -2.181  12.748  18.064  1.00  0.00     0.219 HD
ENDBRANCH  23  32
ENDBRANCH  21  22
ENDBRANCH   2  21
BRANCH  15  34
HETATM   34  C15 UNL     1      -5.033  10.668  13.391  1.00  0.00     0.022 C 
HETATM   35  C16 UNL     1      -5.192  10.309  11.963  1.00  0.00     0.066 C 
HETATM   36  N5  UNL     1      -4.462  11.751  13.654  1.00  0.00    -0.274 N 
ATOM     37  H5  UNL     1      -4.488  11.821  14.671  1.00  0.00     0.193 HD
BRANCH  36  38
HETATM   38  O5  UNL     1      -3.857  12.820  13.265  1.00  0.00    -0.279 OA
BRANCH  38  39
HETATM   39  C17 UNL     1      -3.252  13.699  14.290  1.00  0.00     0.228 C 
BRANCH  39  40
HETATM   40  C18 UNL     1      -3.773  13.125  15.612  1.00  0.00     0.258 C 
BRANCH  40  41
HETATM   41  N6  UNL     1      -3.618  13.973  16.702  1.00  0.00    -0.077 N 
ATOM     42  H63 UNL     1      -4.050  13.568  17.533  1.00  0.00     0.274 HD
ATOM     43  H62 UNL     1      -2.644  13.992  17.004  1.00  0.00     0.274 HD
ATOM     44  H61 UNL     1      -3.962  14.921  16.547  1.00  0.00     0.274 HD
ENDBRANCH  40  41
ENDBRANCH  39  40
ENDBRANCH  38  39
ENDBRANCH  36  38
ENDBRANCH  15  34
BRANCH   1  45
HETATM   45  O1  UNL     1       0.197   6.876  16.303  1.00  0.00    -0.354 OA
HETATM   46  C1  UNL     1       0.254   6.057  17.472  1.00  0.00     0.210 C 
ENDBRANCH   1  45
TORSDOF 10
ENDMDL
