MODEL 1
REMARK VINA RESULT: -6.299310355      0.000      0.000
REMARK  14 active torsions:
REMARK  status: ('A' for Active; 'I' for Inactive)
REMARK    1  A    between atoms: O1_2  and  C2_3 
REMARK    2  A    between atoms: C2_3  and  C3_5 
REMARK    3  A    between atoms: C3_5  and  N1_6 
REMARK    4  A    between atoms: C3_5  and  C19_37 
REMARK    5  A    between atoms: N1_6  and  C4_7 
REMARK    6  A    between atoms: C4_7  and  C5_8 
REMARK    7  A    between atoms: C4_7  and  C13_28 
REMARK       I    between atoms: C5_8  and  N2_10 
REMARK    8  A    between atoms: N2_10  and  C6_12 
REMARK    9  A    between atoms: C6_12  and  C7_13 
REMARK   10  A    between atoms: C6_12  and  C10_25 
REMARK   11  A    between atoms: C8_16  and  N4_17 
REMARK   12  A    between atoms: C9_21  and  N5_22 
REMARK   13  A    between atoms: C16_31  and  O6_32 
REMARK   14  A    between atoms: C21_40  and  N6_41 
ROOT
HETATM    1  C4  UNL     1      -7.457  12.584 -35.679  1.00  0.00     0.288 C 
ENDROOT
BRANCH   1   2
HETATM    2  N1  UNL     1      -6.401  11.825 -35.956  1.00  0.00    -0.420 NA
BRANCH   2   3
HETATM    3  C3  UNL     1      -5.332  11.368 -36.333  1.00  0.00     0.203 C 
BRANCH   3   4
HETATM    4  C2  UNL     1      -4.233  11.221 -35.357  1.00  0.00     0.325 C 
HETATM    5  O2  UNL     1      -4.420  11.109 -34.157  1.00  0.00    -0.256 OA
BRANCH   4   6
HETATM    6  O1  UNL     1      -2.913  11.209 -35.840  1.00  0.00    -0.321 OA
HETATM    7  C1  UNL     1      -2.247  12.444 -35.932  1.00  0.00     0.213 C 
ENDBRANCH   4   6
ENDBRANCH   3   4
BRANCH   3   8
HETATM    8  C19 UNL     1      -5.070  10.966 -37.757  1.00  0.00     0.087 A 
HETATM    9  C20 UNL     1      -5.414  11.746 -38.814  1.00  0.00     0.086 A 
HETATM   10  S2  UNL     1      -4.906  10.784 -40.168  1.00  0.00    -0.064 SA
HETATM   11  C21 UNL     1      -4.297   9.470 -39.296  1.00  0.00     0.142 A 
HETATM   12  N7  UNL     1      -4.502   9.811 -38.031  1.00  0.00    -0.334 N 
ATOM     13  H7  UNL     1      -4.221   9.183 -37.276  1.00  0.00     0.168 HD
BRANCH  11  14
HETATM   14  N6  UNL     1      -3.746   8.343 -39.725  1.00  0.00    -0.380 N 
ATOM     15  H62 UNL     1      -4.159   7.682 -40.384  1.00  0.00     0.158 HD
ATOM     16  H61 UNL     1      -2.841   7.930 -39.504  1.00  0.00     0.158 HD
ENDBRANCH  11  14
ENDBRANCH   3   8
ENDBRANCH   2   3
ENDBRANCH   1   2
BRANCH   1  17
HETATM   17  C5  UNL     1      -8.325  12.940 -36.905  1.00  0.00     0.258 C 
HETATM   18  O3  UNL     1      -7.846  13.879 -37.541  1.00  0.00    -0.270 OA
HETATM   19  N2  UNL     1      -9.469  12.244 -37.177  1.00  0.00    -0.348 N 
ATOM     20  H2  UNL     1      -9.653  11.488 -36.518  1.00  0.00     0.163 HD
BRANCH  19  21
HETATM   21  C6  UNL     1     -10.473  12.367 -38.217  1.00  0.00     0.141 C 
BRANCH  21  22
HETATM   22  C7  UNL     1     -10.008  11.822 -39.527  1.00  0.00     0.075 A 
HETATM   23  N3  UNL     1      -9.058  12.419 -40.223  1.00  0.00    -0.336 N 
HETATM   24  C8  UNL     1      -8.628  11.853 -41.340  1.00  0.00     0.144 A 
ATOM     25  H3  UNL     1      -8.660  13.303 -39.904  1.00  0.00     0.168 HD
HETATM   26  S1  UNL     1      -9.555  10.439 -41.457  1.00  0.00    -0.028 SA
HETATM   27  C9  UNL     1     -10.493  10.639 -40.014  1.00  0.00     0.171 A 
BRANCH  24  28
HETATM   28  N4  UNL     1      -7.710  12.251 -42.186  1.00  0.00    -0.380 N 
ATOM     29  H42 UNL     1      -6.709  12.325 -42.003  1.00  0.00     0.158 HD
ATOM     30  H41 UNL     1      -7.801  12.555 -43.156  1.00  0.00     0.158 HD
ENDBRANCH  24  28
BRANCH  27  31
HETATM   31  N5  UNL     1     -11.534   9.771 -39.575  1.00  0.00    -0.106 N 
HETATM   32  O4  UNL     1     -11.227   8.643 -39.111  1.00  0.00    -0.531 OA
HETATM   33  O5  UNL     1     -12.862  10.057 -39.611  1.00  0.00    -0.531 OA
ENDBRANCH  27  31
ENDBRANCH  21  22
BRANCH  21  34
HETATM   34  C10 UNL     1     -11.015  13.796 -38.350  1.00  0.00     0.006 C 
HETATM   35  C11 UNL     1     -12.265  13.776 -39.225  1.00  0.00     0.012 C 
HETATM   36  C12 UNL     1     -11.570  14.230 -36.973  1.00  0.00     0.012 C 
ENDBRANCH  21  34
ENDBRANCH  19  21
ENDBRANCH   1  17
BRANCH   1  37
HETATM   37  C13 UNL     1      -8.414  12.016 -34.646  1.00  0.00    -0.012 A 
HETATM   38  C14 UNL     1      -8.080  10.858 -34.014  1.00  0.00     0.013 A 
HETATM   39  C15 UNL     1      -8.921  10.298 -33.049  1.00  0.00     0.039 A 
HETATM   40  C16 UNL     1     -10.091  10.921 -32.736  1.00  0.00     0.087 A 
HETATM   41  C17 UNL     1     -10.449  12.099 -33.366  1.00  0.00     0.067 A 
HETATM   42 CL1  UNL     1     -11.920  12.963 -33.030  1.00  0.00    -0.081 Cl
HETATM   43  C18 UNL     1      -9.595  12.639 -34.325  1.00  0.00     0.037 A 
BRANCH  40  44
HETATM   44  O6  UNL     1     -10.976  10.408 -31.777  1.00  0.00    -0.359 OA
ATOM     45  H6  UNL     1     -10.678  10.100 -30.928  1.00  0.00     0.217 HD
ENDBRANCH  40  44
ENDBRANCH   1  37
TORSDOF 14
ENDMDL
MODEL 2
REMARK VINA RESULT: -6.075051744      2.343      3.204
REMARK  14 active torsions:
REMARK  status: ('A' for Active; 'I' for Inactive)
REMARK    1  A    between atoms: O1_2  and  C2_3 
REMARK    2  A    between atoms: C2_3  and  C3_5 
REMARK    3  A    between atoms: C3_5  and  N1_6 
REMARK    4  A    between atoms: C3_5  and  C19_37 
REMARK    5  A    between atoms: N1_6  and  C4_7 
REMARK    6  A    between atoms: C4_7  and  C5_8 
REMARK    7  A    between atoms: C4_7  and  C13_28 
REMARK       I    between atoms: C5_8  and  N2_10 
REMARK    8  A    between atoms: N2_10  and  C6_12 
REMARK    9  A    between atoms: C6_12  and  C7_13 
REMARK   10  A    between atoms: C6_12  and  C10_25 
REMARK   11  A    between atoms: C8_16  and  N4_17 
REMARK   12  A    between atoms: C9_21  and  N5_22 
REMARK   13  A    between atoms: C16_31  and  O6_32 
REMARK   14  A    between atoms: C21_40  and  N6_41 
ROOT
HETATM    1  C4  UNL     1      -8.202  13.249 -35.816  1.00  0.00     0.288 C 
ENDROOT
BRANCH   1   2
HETATM    2  N1  UNL     1      -7.367  12.444 -35.164  1.00  0.00    -0.420 NA
BRANCH   2   3
HETATM    3  C3  UNL     1      -6.595  11.564 -34.815  1.00  0.00     0.203 C 
BRANCH   3   4
HETATM    4  C2  UNL     1      -7.043  10.574 -33.814  1.00  0.00     0.325 C 
HETATM    5  O2  UNL     1      -6.599   9.440 -33.756  1.00  0.00    -0.256 OA
BRANCH   4   6
HETATM    6  O1  UNL     1      -8.026  10.965 -32.888  1.00  0.00    -0.321 OA
HETATM    7  C1  UNL     1      -9.249  10.270 -32.912  1.00  0.00     0.213 C 
ENDBRANCH   4   6
ENDBRANCH   3   4
BRANCH   3   8
HETATM    8  C19 UNL     1      -5.191  11.451 -35.341  1.00  0.00     0.087 A 
HETATM    9  C20 UNL     1      -4.212  12.334 -35.013  1.00  0.00     0.086 A 
HETATM   10  S2  UNL     1      -2.853  11.733 -35.911  1.00  0.00    -0.064 SA
HETATM   11  C21 UNL     1      -3.624  10.412 -36.632  1.00  0.00     0.142 A 
HETATM   12  N7  UNL     1      -4.864  10.480 -36.167  1.00  0.00    -0.334 N 
ATOM     13  H7  UNL     1      -5.559   9.787 -36.448  1.00  0.00     0.168 HD
BRANCH  11  14
HETATM   14  N6  UNL     1      -3.150   9.502 -37.472  1.00  0.00    -0.380 N 
ATOM     15  H62 UNL     1      -3.434   8.524 -37.527  1.00  0.00     0.158 HD
ATOM     16  H61 UNL     1      -2.446   9.591 -38.204  1.00  0.00     0.158 HD
ENDBRANCH  11  14
ENDBRANCH   3   8
ENDBRANCH   2   3
ENDBRANCH   1   2
BRANCH   1  17
HETATM   17  C5  UNL     1      -9.249  12.514 -36.681  1.00  0.00     0.258 C 
HETATM   18  O3  UNL     1      -9.239  11.302 -36.471  1.00  0.00    -0.270 OA
HETATM   19  N2  UNL     1     -10.048  13.206 -37.547  1.00  0.00    -0.348 N 
ATOM     20  H2  UNL     1      -9.890  14.213 -37.532  1.00  0.00     0.163 HD
BRANCH  19  21
HETATM   21  C6  UNL     1     -11.077  12.792 -38.482  1.00  0.00     0.141 C 
BRANCH  21  22
HETATM   22  C7  UNL     1     -10.509  12.183 -39.723  1.00  0.00     0.075 A 
HETATM   23  N3  UNL     1      -9.650  12.839 -40.480  1.00  0.00    -0.336 N 
HETATM   24  C8  UNL     1      -9.118  12.225 -41.526  1.00  0.00     0.144 A 
ATOM     25  H3  UNL     1      -9.399  13.804 -40.263  1.00  0.00     0.168 HD
HETATM   26  S1  UNL     1      -9.815  10.680 -41.483  1.00  0.00    -0.028 SA
HETATM   27  C9  UNL     1     -10.798  10.893 -40.074  1.00  0.00     0.171 A 
BRANCH  24  28
HETATM   28  N4  UNL     1      -8.257  12.664 -42.411  1.00  0.00    -0.380 N 
ATOM     29  H42 UNL     1      -8.408  12.740 -43.417  1.00  0.00     0.158 HD
ATOM     30  H41 UNL     1      -7.304  13.005 -42.284  1.00  0.00     0.158 HD
ENDBRANCH  24  28
BRANCH  27  31
HETATM   31  N5  UNL     1     -11.701   9.928 -39.539  1.00  0.00    -0.106 N 
HETATM   32  O4  UNL     1     -11.237   8.858 -39.072  1.00  0.00    -0.531 OA
HETATM   33  O5  UNL     1     -13.052  10.064 -39.487  1.00  0.00    -0.531 OA
ENDBRANCH  27  31
ENDBRANCH  21  22
BRANCH  21  34
HETATM   34  C10 UNL     1     -12.074  13.915 -38.800  1.00  0.00     0.006 C 
HETATM   35  C11 UNL     1     -13.478  13.459 -38.410  1.00  0.00     0.012 C 
HETATM   36  C12 UNL     1     -11.811  15.082 -37.818  1.00  0.00     0.012 C 
ENDBRANCH  21  34
ENDBRANCH  19  21
ENDBRANCH   1  17
BRANCH   1  37
HETATM   37  C13 UNL     1      -8.987  14.215 -34.947  1.00  0.00    -0.012 A 
HETATM   38  C14 UNL     1     -10.006  13.729 -34.187  1.00  0.00     0.013 A 
HETATM   39  C15 UNL     1     -10.754  14.573 -33.364  1.00  0.00     0.039 A 
HETATM   40  C16 UNL     1     -10.458  15.902 -33.320  1.00  0.00     0.087 A 
HETATM   41  C17 UNL     1      -9.426  16.416 -34.084  1.00  0.00     0.067 A 
HETATM   42 CL1  UNL     1      -8.978  18.096 -34.091  1.00  0.00    -0.081 Cl
HETATM   43  C18 UNL     1      -8.695  15.556 -34.898  1.00  0.00     0.037 A 
BRANCH  40  44
HETATM   44  O6  UNL     1     -11.173  16.799 -32.513  1.00  0.00    -0.359 OA
ATOM     45  H6  UNL     1     -10.993  17.733 -32.514  1.00  0.00     0.217 HD
ENDBRANCH  40  44
ENDBRANCH   1  37
TORSDOF 14
ENDMDL
MODEL 3
REMARK VINA RESULT: -5.977933991      4.872      7.679
REMARK  14 active torsions:
REMARK  status: ('A' for Active; 'I' for Inactive)
REMARK    1  A    between atoms: O1_2  and  C2_3 
REMARK    2  A    between atoms: C2_3  and  C3_5 
REMARK    3  A    between atoms: C3_5  and  N1_6 
REMARK    4  A    between atoms: C3_5  and  C19_37 
REMARK    5  A    between atoms: N1_6  and  C4_7 
REMARK    6  A    between atoms: C4_7  and  C5_8 
REMARK    7  A    between atoms: C4_7  and  C13_28 
REMARK       I    between atoms: C5_8  and  N2_10 
REMARK    8  A    between atoms: N2_10  and  C6_12 
REMARK    9  A    between atoms: C6_12  and  C7_13 
REMARK   10  A    between atoms: C6_12  and  C10_25 
REMARK   11  A    between atoms: C8_16  and  N4_17 
REMARK   12  A    between atoms: C9_21  and  N5_22 
REMARK   13  A    between atoms: C16_31  and  O6_32 
REMARK   14  A    between atoms: C21_40  and  N6_41 
ROOT
HETATM    1  C4  UNL     1      -9.328  14.021 -35.258  1.00  0.00     0.288 C 
ENDROOT
BRANCH   1   2
HETATM    2  N1  UNL     1     -10.207  14.056 -36.255  1.00  0.00    -0.420 NA
BRANCH   2   3
HETATM    3  C3  UNL     1     -10.812  14.245 -37.300  1.00  0.00     0.203 C 
BRANCH   3   4
HETATM    4  C2  UNL     1     -11.192  15.624 -37.667  1.00  0.00     0.325 C 
HETATM    5  O2  UNL     1     -12.326  15.939 -37.986  1.00  0.00    -0.256 OA
BRANCH   4   6
HETATM    6  O1  UNL     1     -10.195  16.615 -37.646  1.00  0.00    -0.321 OA
HETATM    7  C1  UNL     1      -9.171  16.524 -38.606  1.00  0.00     0.213 C 
ENDBRANCH   4   6
ENDBRANCH   3   4
BRANCH   3   8
HETATM    8  C19 UNL     1     -11.213  13.131 -38.226  1.00  0.00     0.087 A 
HETATM    9  C20 UNL     1     -10.329  12.209 -38.689  1.00  0.00     0.086 A 
HETATM   10  S2  UNL     1     -11.326  11.217 -39.709  1.00  0.00    -0.064 SA
HETATM   11  C21 UNL     1     -12.783  12.043 -39.472  1.00  0.00     0.142 A 
HETATM   12  N7  UNL     1     -12.457  13.023 -38.640  1.00  0.00    -0.334 N 
ATOM     13  H7  UNL     1     -13.165  13.687 -38.325  1.00  0.00     0.168 HD
BRANCH  11  14
HETATM   14  N6  UNL     1     -13.986  11.811 -39.979  1.00  0.00    -0.380 N 
ATOM     15  H62 UNL     1     -14.325  10.922 -40.348  1.00  0.00     0.158 HD
ATOM     16  H61 UNL     1     -14.781  12.439 -40.092  1.00  0.00     0.158 HD
ENDBRANCH  11  14
ENDBRANCH   3   8
ENDBRANCH   2   3
ENDBRANCH   1   2
BRANCH   1  17
HETATM   17  C5  UNL     1      -9.478  15.167 -34.235  1.00  0.00     0.258 C 
HETATM   18  O3  UNL     1      -9.383  14.757 -33.078  1.00  0.00    -0.270 OA
HETATM   19  N2  UNL     1      -9.687  16.452 -34.651  1.00  0.00    -0.348 N 
ATOM     20  H2  UNL     1      -9.706  16.554 -35.666  1.00  0.00     0.163 HD
BRANCH  19  21
HETATM   21  C6  UNL     1      -9.886  17.699 -33.938  1.00  0.00     0.141 C 
BRANCH  21  22
HETATM   22  C7  UNL     1     -11.092  18.442 -34.412  1.00  0.00     0.075 A 
HETATM   23  N3  UNL     1     -11.687  18.134 -35.549  1.00  0.00    -0.336 N 
HETATM   24  C8  UNL     1     -12.797  18.772 -35.886  1.00  0.00     0.144 A 
ATOM     25  H3  UNL     1     -11.297  17.415 -36.160  1.00  0.00     0.168 HD
HETATM   26  S1  UNL     1     -13.051  19.844 -34.597  1.00  0.00    -0.028 SA
HETATM   27  C9  UNL     1     -11.671  19.415 -33.645  1.00  0.00     0.171 A 
BRANCH  24  28
HETATM   28  N4  UNL     1     -13.553  18.643 -36.949  1.00  0.00    -0.380 N 
ATOM     29  H42 UNL     1     -13.569  17.847 -37.587  1.00  0.00     0.158 HD
ATOM     30  H41 UNL     1     -14.248  19.279 -37.340  1.00  0.00     0.158 HD
ENDBRANCH  24  28
BRANCH  27  31
HETATM   31  N5  UNL     1     -11.285  20.032 -32.420  1.00  0.00    -0.106 N 
HETATM   32  O4  UNL     1     -11.083  21.273 -32.404  1.00  0.00    -0.531 OA
HETATM   33  O5  UNL     1     -11.111  19.387 -31.236  1.00  0.00    -0.531 OA
ENDBRANCH  27  31
ENDBRANCH  21  22
BRANCH  21  34
HETATM   34  C10 UNL     1      -8.633  18.584 -33.933  1.00  0.00     0.006 C 
HETATM   35  C11 UNL     1      -7.779  18.233 -32.717  1.00  0.00     0.012 C 
HETATM   36  C12 UNL     1      -7.734  18.151 -35.116  1.00  0.00     0.012 C 
ENDBRANCH  21  34
ENDBRANCH  19  21
ENDBRANCH   1  17
BRANCH   1  37
HETATM   37  C13 UNL     1      -9.317  12.739 -34.444  1.00  0.00    -0.012 A 
HETATM   38  C14 UNL     1      -8.161  12.027 -34.365  1.00  0.00     0.013 A 
HETATM   39  C15 UNL     1      -8.095  10.845 -33.622  1.00  0.00     0.039 A 
HETATM   40  C16 UNL     1      -9.204  10.402 -32.968  1.00  0.00     0.087 A 
HETATM   41  C17 UNL     1     -10.389  11.111 -33.035  1.00  0.00     0.067 A 
HETATM   42 CL1  UNL     1     -11.851  10.622 -32.232  1.00  0.00    -0.081 Cl
HETATM   43  C18 UNL     1     -10.431  12.286 -33.782  1.00  0.00     0.037 A 
BRANCH  40  44
HETATM   44  O6  UNL     1      -9.199   9.223 -32.207  1.00  0.00    -0.359 OA
ATOM     45  H6  UNL     1      -9.138   9.235 -31.258  1.00  0.00     0.217 HD
ENDBRANCH  40  44
ENDBRANCH   1  37
TORSDOF 14
ENDMDL
MODEL 4
REMARK VINA RESULT: -5.911150956      4.280      6.431
REMARK  14 active torsions:
REMARK  status: ('A' for Active; 'I' for Inactive)
REMARK    1  A    between atoms: O1_2  and  C2_3 
REMARK    2  A    between atoms: C2_3  and  C3_5 
REMARK    3  A    between atoms: C3_5  and  N1_6 
REMARK    4  A    between atoms: C3_5  and  C19_37 
REMARK    5  A    between atoms: N1_6  and  C4_7 
REMARK    6  A    between atoms: C4_7  and  C5_8 
REMARK    7  A    between atoms: C4_7  and  C13_28 
REMARK       I    between atoms: C5_8  and  N2_10 
REMARK    8  A    between atoms: N2_10  and  C6_12 
REMARK    9  A    between atoms: C6_12  and  C7_13 
REMARK   10  A    between atoms: C6_12  and  C10_25 
REMARK   11  A    between atoms: C8_16  and  N4_17 
REMARK   12  A    between atoms: C9_21  and  N5_22 
REMARK   13  A    between atoms: C16_31  and  O6_32 
REMARK   14  A    between atoms: C21_40  and  N6_41 
ROOT
HETATM    1  C4  UNL     1      -9.981  14.070 -34.938  1.00  0.00     0.288 C 
ENDROOT
BRANCH   1   2
HETATM    2  N1  UNL     1      -9.671  15.211 -34.329  1.00  0.00    -0.420 NA
BRANCH   2   3
HETATM    3  C3  UNL     1      -9.608  16.190 -33.601  1.00  0.00     0.203 C 
BRANCH   3   4
HETATM    4  C2  UNL     1     -10.741  16.486 -32.701  1.00  0.00     0.325 C 
HETATM    5  O2  UNL     1     -11.482  15.625 -32.259  1.00  0.00    -0.256 OA
BRANCH   4   6
HETATM    6  O1  UNL     1     -10.968  17.825 -32.339  1.00  0.00    -0.321 OA
HETATM    7  C1  UNL     1     -11.724  18.615 -33.225  1.00  0.00     0.213 C 
ENDBRANCH   4   6
ENDBRANCH   3   4
BRANCH   3   8
HETATM    8  C19 UNL     1      -8.434  17.128 -33.592  1.00  0.00     0.087 A 
HETATM    9  C20 UNL     1      -7.608  17.280 -34.659  1.00  0.00     0.086 A 
HETATM   10  S2  UNL     1      -6.453  18.439 -34.075  1.00  0.00    -0.064 SA
HETATM   11  C21 UNL     1      -7.103  18.645 -32.528  1.00  0.00     0.142 A 
HETATM   12  N7  UNL     1      -8.155  17.837 -32.518  1.00  0.00    -0.334 N 
ATOM     13  H7  UNL     1      -8.741  17.765 -31.686  1.00  0.00     0.168 HD
BRANCH  11  14
HETATM   14  N6  UNL     1      -6.693  19.411 -31.526  1.00  0.00    -0.380 N 
ATOM     15  H62 UNL     1      -7.261  20.078 -31.003  1.00  0.00     0.158 HD
ATOM     16  H61 UNL     1      -5.774  19.482 -31.089  1.00  0.00     0.158 HD
ENDBRANCH  11  14
ENDBRANCH   3   8
ENDBRANCH   2   3
ENDBRANCH   1   2
BRANCH   1  17
HETATM   17  C5  UNL     1      -9.760  14.083 -36.466  1.00  0.00     0.258 C 
HETATM   18  O3  UNL     1      -9.075  15.044 -36.816  1.00  0.00    -0.270 OA
HETATM   19  N2  UNL     1     -10.296  13.107 -37.257  1.00  0.00    -0.348 N 
ATOM     20  H2  UNL     1     -10.811  12.396 -36.737  1.00  0.00     0.163 HD
BRANCH  19  21
HETATM   21  C6  UNL     1     -10.279  12.879 -38.690  1.00  0.00     0.141 C 
BRANCH  21  22
HETATM   22  C7  UNL     1     -11.640  12.607 -39.242  1.00  0.00     0.075 A 
HETATM   23  N3  UNL     1     -12.045  11.377 -39.499  1.00  0.00    -0.336 N 
HETATM   24  C8  UNL     1     -13.288  11.184 -39.914  1.00  0.00     0.144 A 
ATOM     25  H3  UNL     1     -11.410  10.587 -39.380  1.00  0.00     0.168 HD
HETATM   26  S1  UNL     1     -13.944  12.746 -39.957  1.00  0.00    -0.028 SA
HETATM   27  C9  UNL     1     -12.545  13.616 -39.423  1.00  0.00     0.171 A 
BRANCH  24  28
HETATM   28  N4  UNL     1     -13.906  10.072 -40.229  1.00  0.00    -0.380 N 
ATOM     29  H42 UNL     1     -13.520   9.129 -40.178  1.00  0.00     0.158 HD
ATOM     30  H41 UNL     1     -14.856   9.926 -40.572  1.00  0.00     0.158 HD
ENDBRANCH  24  28
BRANCH  27  31
HETATM   31  N5  UNL     1     -12.444  15.033 -39.307  1.00  0.00    -0.106 N 
HETATM   32  O4  UNL     1     -12.354  15.542 -38.161  1.00  0.00    -0.531 OA
HETATM   33  O5  UNL     1     -12.436  15.907 -40.348  1.00  0.00    -0.531 OA
ENDBRANCH  27  31
ENDBRANCH  21  22
BRANCH  21  34
HETATM   34  C10 UNL     1      -9.266  11.804 -39.106  1.00  0.00     0.006 C 
HETATM   35  C11 UNL     1      -9.005  11.919 -40.605  1.00  0.00     0.012 C 
HETATM   36  C12 UNL     1      -7.894  12.173 -38.492  1.00  0.00     0.012 C 
ENDBRANCH  21  34
ENDBRANCH  19  21
ENDBRANCH   1  17
BRANCH   1  37
HETATM   37  C13 UNL     1      -9.254  12.839 -34.426  1.00  0.00    -0.012 A 
HETATM   38  C14 UNL     1      -9.862  12.067 -33.486  1.00  0.00     0.013 A 
HETATM   39  C15 UNL     1      -9.240  10.919 -32.987  1.00  0.00     0.039 A 
HETATM   40  C16 UNL     1      -8.008  10.569 -33.451  1.00  0.00     0.087 A 
HETATM   41  C17 UNL     1      -7.373  11.340 -34.407  1.00  0.00     0.067 A 
HETATM   42 CL1  UNL     1      -5.803  10.970 -35.056  1.00  0.00    -0.081 Cl
HETATM   43  C18 UNL     1      -8.012  12.480 -34.888  1.00  0.00     0.037 A 
BRANCH  40  44
HETATM   44  O6  UNL     1      -7.334   9.429 -32.989  1.00  0.00    -0.359 OA
ATOM     45  H6  UNL     1      -7.351   8.606 -33.463  1.00  0.00     0.217 HD
ENDBRANCH  40  44
ENDBRANCH   1  37
TORSDOF 14
ENDMDL
MODEL 5
REMARK VINA RESULT: -5.877267059      4.990      7.862
REMARK  14 active torsions:
REMARK  status: ('A' for Active; 'I' for Inactive)
REMARK    1  A    between atoms: O1_2  and  C2_3 
REMARK    2  A    between atoms: C2_3  and  C3_5 
REMARK    3  A    between atoms: C3_5  and  N1_6 
REMARK    4  A    between atoms: C3_5  and  C19_37 
REMARK    5  A    between atoms: N1_6  and  C4_7 
REMARK    6  A    between atoms: C4_7  and  C5_8 
REMARK    7  A    between atoms: C4_7  and  C13_28 
REMARK       I    between atoms: C5_8  and  N2_10 
REMARK    8  A    between atoms: N2_10  and  C6_12 
REMARK    9  A    between atoms: C6_12  and  C7_13 
REMARK   10  A    between atoms: C6_12  and  C10_25 
REMARK   11  A    between atoms: C8_16  and  N4_17 
REMARK   12  A    between atoms: C9_21  and  N5_22 
REMARK   13  A    between atoms: C16_31  and  O6_32 
REMARK   14  A    between atoms: C21_40  and  N6_41 
ROOT
HETATM    1  C4  UNL     1      -9.273  14.094 -35.237  1.00  0.00     0.288 C 
ENDROOT
BRANCH   1   2
HETATM    2  N1  UNL     1     -10.165  14.143 -36.222  1.00  0.00    -0.420 NA
BRANCH   2   3
HETATM    3  C3  UNL     1     -10.750  14.202 -37.294  1.00  0.00     0.203 C 
BRANCH   3   4
HETATM    4  C2  UNL     1     -11.351  15.485 -37.711  1.00  0.00     0.325 C 
HETATM    5  O2  UNL     1     -10.773  16.554 -37.608  1.00  0.00    -0.256 OA
BRANCH   4   6
HETATM    6  O1  UNL     1     -12.648  15.466 -38.253  1.00  0.00    -0.321 OA
HETATM    7  C1  UNL     1     -12.902  16.305 -39.353  1.00  0.00     0.213 C 
ENDBRANCH   4   6
ENDBRANCH   3   4
BRANCH   3   8
HETATM    8  C19 UNL     1     -10.910  13.017 -38.205  1.00  0.00     0.087 A 
HETATM    9  C20 UNL     1      -9.893  12.161 -38.481  1.00  0.00     0.086 A 
HETATM   10  S2  UNL     1     -10.636  11.039 -39.578  1.00  0.00    -0.064 SA
HETATM   11  C21 UNL     1     -12.177  11.737 -39.605  1.00  0.00     0.142 A 
HETATM   12  N7  UNL     1     -12.064  12.777 -38.791  1.00  0.00    -0.334 N 
ATOM     13  H7  UNL     1     -12.865  13.386 -38.620  1.00  0.00     0.168 HD
BRANCH  11  14
HETATM   14  N6  UNL     1     -13.265  11.374 -40.269  1.00  0.00    -0.380 N 
ATOM     15  H62 UNL     1     -13.709  10.456 -40.246  1.00  0.00     0.158 HD
ATOM     16  H61 UNL     1     -13.857  11.912 -40.901  1.00  0.00     0.158 HD
ENDBRANCH  11  14
ENDBRANCH   3   8
ENDBRANCH   2   3
ENDBRANCH   1   2
BRANCH   1  17
HETATM   17  C5  UNL     1      -9.404  15.233 -34.203  1.00  0.00     0.258 C 
HETATM   18  O3  UNL     1      -9.336  14.807 -33.050  1.00  0.00    -0.270 OA
HETATM   19  N2  UNL     1      -9.572  16.527 -34.607  1.00  0.00    -0.348 N 
ATOM     20  H2  UNL     1      -9.576  16.641 -35.620  1.00  0.00     0.163 HD
BRANCH  19  21
HETATM   21  C6  UNL     1      -9.746  17.771 -33.881  1.00  0.00     0.141 C 
BRANCH  21  22
HETATM   22  C7  UNL     1     -10.981  18.504 -34.291  1.00  0.00     0.075 A 
HETATM   23  N3  UNL     1     -11.621  18.205 -35.407  1.00  0.00    -0.336 N 
HETATM   24  C8  UNL     1     -12.754  18.832 -35.685  1.00  0.00     0.144 A 
ATOM     25  H3  UNL     1     -11.248  17.501 -36.045  1.00  0.00     0.168 HD
HETATM   26  S1  UNL     1     -12.967  19.879 -34.370  1.00  0.00    -0.028 SA
HETATM   27  C9  UNL     1     -11.540  19.456 -33.484  1.00  0.00     0.171 A 
BRANCH  24  28
HETATM   28  N4  UNL     1     -13.553  18.707 -36.716  1.00  0.00    -0.380 N 
ATOM     29  H42 UNL     1     -14.439  18.203 -36.738  1.00  0.00     0.158 HD
ATOM     30  H41 UNL     1     -13.460  19.071 -37.665  1.00  0.00     0.158 HD
ENDBRANCH  24  28
BRANCH  27  31
HETATM   31  N5  UNL     1     -11.110  20.060 -32.267  1.00  0.00    -0.106 N 
HETATM   32  O4  UNL     1     -11.128  19.378 -31.212  1.00  0.00    -0.531 OA
HETATM   33  O5  UNL     1     -10.671  21.340 -32.139  1.00  0.00    -0.531 OA
ENDBRANCH  27  31
ENDBRANCH  21  22
BRANCH  21  34
HETATM   34  C10 UNL     1      -8.502  18.668 -33.939  1.00  0.00     0.006 C 
HETATM   35  C11 UNL     1      -7.665  18.441 -32.683  1.00  0.00     0.012 C 
HETATM   36  C12 UNL     1      -7.580  18.138 -35.063  1.00  0.00     0.012 C 
ENDBRANCH  21  34
ENDBRANCH  19  21
ENDBRANCH   1  17
BRANCH   1  37
HETATM   37  C13 UNL     1      -9.259  12.805 -34.434  1.00  0.00    -0.012 A 
HETATM   38  C14 UNL     1     -10.371  12.465 -33.729  1.00  0.00     0.013 A 
HETATM   39  C15 UNL     1     -10.414  11.285 -32.981  1.00  0.00     0.039 A 
HETATM   40  C16 UNL     1      -9.327  10.465 -32.960  1.00  0.00     0.087 A 
HETATM   41  C17 UNL     1      -8.187  10.793 -33.670  1.00  0.00     0.067 A 
HETATM   42 CL1  UNL     1      -6.754   9.808 -33.702  1.00  0.00    -0.081 Cl
HETATM   43  C18 UNL     1      -8.167  11.974 -34.408  1.00  0.00     0.037 A 
BRANCH  40  44
HETATM   44  O6  UNL     1      -9.309   9.269 -32.228  1.00  0.00    -0.359 OA
ATOM     45  H6  UNL     1      -9.132   8.429 -32.636  1.00  0.00     0.217 HD
ENDBRANCH  40  44
ENDBRANCH   1  37
TORSDOF 14
ENDMDL
