MODEL 1
REMARK VINA RESULT: -11.276422311      0.000      0.000
REMARK  5 active torsions:
REMARK  status: ('A' for Active; 'I' for Inactive)
REMARK    1  A    between atoms: C2_3  and  C3_4 
REMARK    2  A    between atoms: C3_4  and  C4_5 
REMARK    3  A    between atoms: C4_5  and  C5_6 
REMARK    4  A    between atoms: C10_11  and  C11_12 
REMARK    5  A    between atoms: C11_12  and  C12_13 
ROOT
HETATM    1  N1  UNL     1       6.744   8.970  13.469  1.00  0.00    -0.197 NA
HETATM    2  C1  UNL     1       7.626   8.458  12.900  1.00  0.00     0.059 C 
HETATM    3  C2  UNL     1       8.752   7.822  12.199  1.00  0.00     0.124 C 
ENDROOT
BRANCH   3   4
HETATM    4  C3  UNL     1       8.557   6.331  12.274  1.00  0.00     0.018 C 
BRANCH   4   5
HETATM    5  C4  UNL     1       7.631   5.925  11.151  1.00  0.00     0.039 C 
BRANCH   5   6
HETATM    6  C5  UNL     1       6.494   5.098  11.647  1.00  0.00    -0.057 A 
HETATM    7  C6  UNL     1       5.333   5.671  12.126  1.00  0.00     0.008 A 
HETATM    8  C7  UNL     1       4.274   4.920  12.588  1.00  0.00     0.013 A 
HETATM    9  C8  UNL     1       4.346   3.541  12.585  1.00  0.00    -0.025 A 
HETATM   10  C9  UNL     1       3.285   2.763  13.050  1.00  0.00     0.019 A 
HETATM   11  C20 UNL     1       5.474   2.942  12.122  1.00  0.00    -0.025 A 
HETATM   12  C10 UNL     1       3.341   1.388  13.053  1.00  0.00    -0.053 A 
HETATM   13  C18 UNL     1       4.489   0.793  12.580  1.00  0.00     0.008 A 
HETATM   14  C19 UNL     1       5.546   1.562  12.119  1.00  0.00     0.013 A 
HETATM   15  C21 UNL     1       6.542   3.718  11.655  1.00  0.00     0.019 A 
BRANCH  12  16
HETATM   16  C11 UNL     1       2.236   0.566  13.536  1.00  0.00     0.077 C 
BRANCH  16  17
HETATM   17  C12 UNL     1       1.181   1.313  14.240  1.00  0.00    -0.054 A 
HETATM   18  C13 UNL     1       1.454   2.312  15.154  1.00  0.00     0.007 A 
HETATM   19  C14 UNL     1       0.436   3.009  15.811  1.00  0.00     0.001 A 
HETATM   20  C15 UNL     1      -0.890   2.697  15.545  1.00  0.00     0.000 A 
HETATM   21  C16 UNL     1      -1.179   1.702  14.633  1.00  0.00     0.001 A 
HETATM   22  C17 UNL     1      -0.144   1.021  13.990  1.00  0.00     0.007 A 
ENDBRANCH  16  17
ENDBRANCH  12  16
ENDBRANCH   5   6
ENDBRANCH   4   5
ENDBRANCH   3   4
TORSDOF 5
ENDMDL
MODEL 2
REMARK VINA RESULT: -11.267342013      0.754      1.617
REMARK  5 active torsions:
REMARK  status: ('A' for Active; 'I' for Inactive)
REMARK    1  A    between atoms: C2_3  and  C3_4 
REMARK    2  A    between atoms: C3_4  and  C4_5 
REMARK    3  A    between atoms: C4_5  and  C5_6 
REMARK    4  A    between atoms: C10_11  and  C11_12 
REMARK    5  A    between atoms: C11_12  and  C12_13 
ROOT
HETATM    1  N1  UNL     1       6.220   8.918  13.634  1.00  0.00    -0.197 NA
HETATM    2  C1  UNL     1       7.174   8.777  12.975  1.00  0.00     0.059 C 
HETATM    3  C2  UNL     1       8.388   8.614  12.161  1.00  0.00     0.124 C 
ENDROOT
BRANCH   3   4
HETATM    4  C3  UNL     1       8.766   7.157  12.185  1.00  0.00     0.018 C 
BRANCH   4   5
HETATM    5  C4  UNL     1       8.036   6.468  11.055  1.00  0.00     0.039 C 
BRANCH   5   6
HETATM    6  C5  UNL     1       7.191   5.343  11.549  1.00  0.00    -0.057 A 
HETATM    7  C6  UNL     1       7.727   4.106  11.842  1.00  0.00     0.008 A 
HETATM    8  C7  UNL     1       6.960   3.056  12.299  1.00  0.00     0.013 A 
HETATM    9  C8  UNL     1       5.601   3.218  12.481  1.00  0.00    -0.025 A 
HETATM   10  C9  UNL     1       4.805   2.168  12.942  1.00  0.00     0.019 A 
HETATM   11  C20 UNL     1       5.037   4.422  12.202  1.00  0.00    -0.025 A 
HETATM   12  C10 UNL     1       3.450   2.312  13.129  1.00  0.00    -0.053 A 
HETATM   13  C18 UNL     1       2.891   3.538  12.843  1.00  0.00     0.008 A 
HETATM   14  C19 UNL     1       3.677   4.584  12.384  1.00  0.00     0.013 A 
HETATM   15  C21 UNL     1       5.831   5.480  11.738  1.00  0.00     0.019 A 
BRANCH  12  16
HETATM   16  C11 UNL     1       2.611   1.220  13.612  1.00  0.00     0.077 C 
BRANCH  16  17
HETATM   17  C12 UNL     1       1.360   1.650  14.258  1.00  0.00    -0.054 A 
HETATM   18  C13 UNL     1       1.318   2.628  15.232  1.00  0.00     0.007 A 
HETATM   19  C14 UNL     1       0.118   3.021  15.832  1.00  0.00     0.001 A 
HETATM   20  C15 UNL     1      -1.070   2.418  15.444  1.00  0.00     0.000 A 
HETATM   21  C16 UNL     1      -1.045   1.439  14.472  1.00  0.00     0.001 A 
HETATM   22  C17 UNL     1       0.166   1.066  13.888  1.00  0.00     0.007 A 
ENDBRANCH  16  17
ENDBRANCH  12  16
ENDBRANCH   5   6
ENDBRANCH   4   5
ENDBRANCH   3   4
TORSDOF 5
ENDMDL
MODEL 3
REMARK VINA RESULT: -11.255669203      0.733      1.881
REMARK  5 active torsions:
REMARK  status: ('A' for Active; 'I' for Inactive)
REMARK    1  A    between atoms: C2_3  and  C3_4 
REMARK    2  A    between atoms: C3_4  and  C4_5 
REMARK    3  A    between atoms: C4_5  and  C5_6 
REMARK    4  A    between atoms: C10_11  and  C11_12 
REMARK    5  A    between atoms: C11_12  and  C12_13 
ROOT
HETATM    1  N1  UNL     1       6.268   8.700  13.671  1.00  0.00    -0.197 NA
HETATM    2  C1  UNL     1       7.251   8.603  13.046  1.00  0.00     0.059 C 
HETATM    3  C2  UNL     1       8.499   8.492  12.277  1.00  0.00     0.124 C 
ENDROOT
BRANCH   3   4
HETATM    4  C3  UNL     1       8.844   7.030  12.167  1.00  0.00     0.018 C 
BRANCH   4   5
HETATM    5  C4  UNL     1       8.004   6.435  11.061  1.00  0.00     0.039 C 
BRANCH   5   6
HETATM    6  C5  UNL     1       7.158   5.311  11.556  1.00  0.00    -0.057 A 
HETATM    7  C6  UNL     1       7.699   4.084  11.881  1.00  0.00     0.008 A 
HETATM    8  C7  UNL     1       6.931   3.034  12.338  1.00  0.00     0.013 A 
HETATM    9  C8  UNL     1       5.567   3.186  12.488  1.00  0.00    -0.025 A 
HETATM   10  C9  UNL     1       4.771   2.137  12.949  1.00  0.00     0.019 A 
HETATM   11  C20 UNL     1       4.999   4.380  12.177  1.00  0.00    -0.025 A 
HETATM   12  C10 UNL     1       3.410   2.272  13.104  1.00  0.00    -0.053 A 
HETATM   13  C18 UNL     1       2.847   3.487  12.786  1.00  0.00     0.008 A 
HETATM   14  C19 UNL     1       3.633   4.533  12.327  1.00  0.00     0.013 A 
HETATM   15  C21 UNL     1       5.793   5.438  11.713  1.00  0.00     0.019 A 
BRANCH  12  16
HETATM   16  C11 UNL     1       2.571   1.180  13.586  1.00  0.00     0.077 C 
BRANCH  16  17
HETATM   17  C12 UNL     1       1.320   1.610  14.234  1.00  0.00    -0.054 A 
HETATM   18  C13 UNL     1       0.092   1.057  13.930  1.00  0.00     0.007 A 
HETATM   19  C14 UNL     1      -1.083   1.481  14.557  1.00  0.00     0.001 A 
HETATM   20  C15 UNL     1      -1.025   2.483  15.515  1.00  0.00     0.000 A 
HETATM   21  C16 UNL     1       0.196   3.046  15.830  1.00  0.00     0.001 A 
HETATM   22  C17 UNL     1       1.354   2.604  15.189  1.00  0.00     0.007 A 
ENDBRANCH  16  17
ENDBRANCH  12  16
ENDBRANCH   5   6
ENDBRANCH   4   5
ENDBRANCH   3   4
TORSDOF 5
ENDMDL
MODEL 4
REMARK VINA RESULT: -11.207298773      0.088      1.015
REMARK  5 active torsions:
REMARK  status: ('A' for Active; 'I' for Inactive)
REMARK    1  A    between atoms: C2_3  and  C3_4 
REMARK    2  A    between atoms: C3_4  and  C4_5 
REMARK    3  A    between atoms: C4_5  and  C5_6 
REMARK    4  A    between atoms: C10_11  and  C11_12 
REMARK    5  A    between atoms: C11_12  and  C12_13 
ROOT
HETATM    1  N1  UNL     1       6.849   8.968  13.401  1.00  0.00    -0.197 NA
HETATM    2  C1  UNL     1       7.731   8.408  12.879  1.00  0.00     0.059 C 
HETATM    3  C2  UNL     1       8.856   7.710  12.238  1.00  0.00     0.124 C 
ENDROOT
BRANCH   3   4
HETATM    4  C3  UNL     1       8.579   6.232  12.305  1.00  0.00     0.018 C 
BRANCH   4   5
HETATM    5  C4  UNL     1       7.635   5.884  11.177  1.00  0.00     0.039 C 
BRANCH   5   6
HETATM    6  C5  UNL     1       6.484   5.066  11.656  1.00  0.00    -0.057 A 
HETATM    7  C6  UNL     1       5.316   5.647  12.106  1.00  0.00     0.008 A 
HETATM    8  C7  UNL     1       4.244   4.905  12.552  1.00  0.00     0.013 A 
HETATM    9  C8  UNL     1       4.310   3.526  12.562  1.00  0.00    -0.025 A 
HETATM   10  C9  UNL     1       3.236   2.756  13.010  1.00  0.00     0.019 A 
HETATM   11  C20 UNL     1       5.445   2.918  12.127  1.00  0.00    -0.025 A 
HETATM   12  C10 UNL     1       3.286   1.381  13.025  1.00  0.00    -0.053 A 
HETATM   13  C18 UNL     1       4.441   0.777  12.582  1.00  0.00     0.008 A 
HETATM   14  C19 UNL     1       5.511   1.538  12.136  1.00  0.00     0.013 A 
HETATM   15  C21 UNL     1       6.526   3.686  11.676  1.00  0.00     0.019 A 
BRANCH  12  16
HETATM   16  C11 UNL     1       2.168   0.568  13.491  1.00  0.00     0.077 C 
BRANCH  16  17
HETATM   17  C12 UNL     1       1.123   1.319  14.208  1.00  0.00    -0.054 A 
HETATM   18  C13 UNL     1      -0.226   1.113  13.994  1.00  0.00     0.007 A 
HETATM   19  C14 UNL     1      -1.201   1.837  14.686  1.00  0.00     0.001 A 
HETATM   20  C15 UNL     1      -0.814   2.790  15.617  1.00  0.00     0.000 A 
HETATM   21  C16 UNL     1       0.530   3.007  15.843  1.00  0.00     0.001 A 
HETATM   22  C17 UNL     1       1.484   2.270  15.139  1.00  0.00     0.007 A 
ENDBRANCH  16  17
ENDBRANCH  12  16
ENDBRANCH   5   6
ENDBRANCH   4   5
ENDBRANCH   3   4
TORSDOF 5
ENDMDL
MODEL 5
REMARK VINA RESULT: -11.030590345      5.872      7.729
REMARK  5 active torsions:
REMARK  status: ('A' for Active; 'I' for Inactive)
REMARK    1  A    between atoms: C2_3  and  C3_4 
REMARK    2  A    between atoms: C3_4  and  C4_5 
REMARK    3  A    between atoms: C4_5  and  C5_6 
REMARK    4  A    between atoms: C10_11  and  C11_12 
REMARK    5  A    between atoms: C11_12  and  C12_13 
ROOT
HETATM    1  N1  UNL     1      -5.044  10.862  14.812  1.00  0.00    -0.197 NA
HETATM    2  C1  UNL     1      -4.738  11.170  13.727  1.00  0.00     0.059 C 
HETATM    3  C2  UNL     1      -4.340  11.574  12.370  1.00  0.00     0.124 C 
ENDROOT
BRANCH   3   4
HETATM    4  C3  UNL     1      -3.583  10.429  11.752  1.00  0.00     0.018 C 
BRANCH   4   5
HETATM    5  C4  UNL     1      -2.115  10.624  12.054  1.00  0.00     0.039 C 
BRANCH   5   6
HETATM    6  C5  UNL     1      -1.540   9.450  12.772  1.00  0.00    -0.057 A 
HETATM    7  C6  UNL     1      -1.760   9.242  14.118  1.00  0.00     0.008 A 
HETATM    8  C7  UNL     1      -1.235   8.163  14.796  1.00  0.00     0.013 A 
HETATM    9  C8  UNL     1      -0.456   7.238  14.130  1.00  0.00    -0.025 A 
HETATM   10  C9  UNL     1       0.086   6.138  14.797  1.00  0.00     0.019 A 
HETATM   11  C20 UNL     1      -0.217   7.410  12.804  1.00  0.00    -0.025 A 
HETATM   12  C10 UNL     1       0.864   5.207  14.149  1.00  0.00    -0.053 A 
HETATM   13  C18 UNL     1       1.098   5.393  12.805  1.00  0.00     0.008 A 
HETATM   14  C19 UNL     1       0.563   6.484  12.138  1.00  0.00     0.013 A 
HETATM   15  C21 UNL     1      -0.758   8.512  12.129  1.00  0.00     0.019 A 
BRANCH  12  16
HETATM   16  C11 UNL     1       1.433   4.054  14.838  1.00  0.00     0.077 C 
BRANCH  16  17
HETATM   17  C12 UNL     1       0.750   2.779  14.564  1.00  0.00    -0.054 A 
HETATM   18  C13 UNL     1      -0.620   2.633  14.641  1.00  0.00     0.007 A 
HETATM   19  C14 UNL     1      -1.248   1.412  14.376  1.00  0.00     0.001 A 
HETATM   20  C15 UNL     1      -0.481   0.311  14.024  1.00  0.00     0.000 A 
HETATM   21  C16 UNL     1       0.890   0.441  13.942  1.00  0.00     0.001 A 
HETATM   22  C17 UNL     1       1.492   1.671  14.211  1.00  0.00     0.007 A 
ENDBRANCH  16  17
ENDBRANCH  12  16
ENDBRANCH   5   6
ENDBRANCH   4   5
ENDBRANCH   3   4
TORSDOF 5
ENDMDL
