MODEL 1
REMARK VINA RESULT: -7.167201771      0.000      0.000
REMARK  9 active torsions:
REMARK  status: ('A' for Active; 'I' for Inactive)
REMARK       I    between atoms: C1_2  and  N2_4 
REMARK    1  A    between atoms: N2_4  and  C2_6 
REMARK    2  A    between atoms: C6_10  and  S1_11 
REMARK    3  A    between atoms: S1_11  and  C7_12 
REMARK    4  A    between atoms: C8_13  and  O2_14 
REMARK    5  A    between atoms: C9_16  and  N3_17 
REMARK    6  A    between atoms: C11_22  and  O3_23 
REMARK    7  A    between atoms: O3_23  and  S2_24 
REMARK    8  A    between atoms: C12_28  and  O7_29 
REMARK    9  A    between atoms: O7_29  and  S3_30 
ROOT
HETATM    1  C7  UNL     1      28.686  15.865  21.345  1.00  0.00     0.111 C 
HETATM    2  C8  UNL     1      29.673  16.954  21.454  1.00  0.00     0.165 C 
HETATM    3  C9  UNL     1      29.801  17.897  20.332  1.00  0.00     0.215 C 
HETATM    4  C10 UNL     1      28.718  17.878  19.303  1.00  0.00     0.071 C 
HETATM    5  C11 UNL     1      27.416  17.595  20.060  1.00  0.00     0.178 C 
HETATM    6  C12 UNL     1      27.540  16.104  20.408  1.00  0.00     0.192 C 
ENDROOT
BRANCH   1   7
HETATM    7  S1  UNL     1      28.015  15.442  22.980  1.00  0.00    -0.152 SA
BRANCH   7   8
HETATM    8  C6  UNL     1      29.358  14.796  24.009  1.00  0.00     0.070 C 
HETATM    9  C2  UNL     1      29.707  15.722  25.135  1.00  0.00     0.099 C 
HETATM   10  C3  UNL     1      28.402  15.803  25.883  1.00  0.00     0.026 C 
HETATM   11  C4  UNL     1      27.986  14.342  25.933  1.00  0.00     0.003 C 
HETATM   12  C5  UNL     1      28.744  13.638  24.813  1.00  0.00     0.017 C 
BRANCH   9  13
HETATM   13  N2  UNL     1      30.248  16.991  24.742  1.00  0.00    -0.340 N 
HETATM   14  C1  UNL     1      31.469  17.522  25.202  1.00  0.00     0.329 C 
HETATM   15  N1  UNL     1      31.916  18.782  24.756  1.00  0.00    -0.040 NA
HETATM   16  O1  UNL     1      32.147  16.856  26.012  1.00  0.00    -0.251 OA
ATOM     17  H2  UNL     1      29.708  17.550  24.082  1.00  0.00     0.164 HD
ENDBRANCH   9  13
ENDBRANCH   7   8
ENDBRANCH   1   7
BRANCH   2  18
HETATM   18  O2  UNL     1      30.945  16.394  21.705  1.00  0.00    -0.392 OA
ATOM     19  H2  UNL     1      31.499  17.056  22.101  1.00  0.00     0.210 HD
ENDBRANCH   2  18
BRANCH   6  20
HETATM   20  O7  UNL     1      26.327  15.588  20.859  1.00  0.00    -0.248 OA
BRANCH  20  21
HETATM   21  S3  UNL     1      25.958  14.116  20.174  1.00  0.00     0.252 S 
HETATM   22  O8  UNL     1      24.499  13.919  19.969  1.00  0.00    -0.572 OA
HETATM   23  O9  UNL     1      26.439  12.964  21.044  1.00  0.00    -0.572 OA
HETATM   24  O10 UNL     1      26.699  14.010  18.659  1.00  0.00    -0.572 OA
ENDBRANCH  20  21
ENDBRANCH   6  20
BRANCH   3  25
HETATM   25  N3  UNL     1      31.068  17.714  19.599  1.00  0.00    -0.072 N 
ATOM     26  H33 UNL     1      31.769  18.392  19.897  1.00  0.00     0.274 HD
ATOM     27  H32 UNL     1      31.541  16.857  19.885  1.00  0.00     0.274 HD
ATOM     28  H31 UNL     1      30.932  17.742  18.589  1.00  0.00     0.274 HD
ENDBRANCH   3  25
BRANCH   5  29
HETATM   29  O3  UNL     1      26.340  17.746  19.213  1.00  0.00    -0.249 OA
BRANCH  29  30
HETATM   30  S2  UNL     1      25.272  18.908  19.757  1.00  0.00     0.252 S 
HETATM   31  O4  UNL     1      24.713  19.671  18.594  1.00  0.00    -0.572 OA
HETATM   32  O5  UNL     1      25.916  19.843  20.740  1.00  0.00    -0.572 OA
HETATM   33  O6  UNL     1      23.964  18.187  20.559  1.00  0.00    -0.572 OA
ENDBRANCH  29  30
ENDBRANCH   5  29
TORSDOF 9
ENDMDL
MODEL 2
REMARK VINA RESULT: -7.024039361      2.523      5.114
REMARK  9 active torsions:
REMARK  status: ('A' for Active; 'I' for Inactive)
REMARK       I    between atoms: C1_2  and  N2_4 
REMARK    1  A    between atoms: N2_4  and  C2_6 
REMARK    2  A    between atoms: C6_10  and  S1_11 
REMARK    3  A    between atoms: S1_11  and  C7_12 
REMARK    4  A    between atoms: C8_13  and  O2_14 
REMARK    5  A    between atoms: C9_16  and  N3_17 
REMARK    6  A    between atoms: C11_22  and  O3_23 
REMARK    7  A    between atoms: O3_23  and  S2_24 
REMARK    8  A    between atoms: C12_28  and  O7_29 
REMARK    9  A    between atoms: O7_29  and  S3_30 
ROOT
HETATM    1  C7  UNL     1      27.917  15.726  23.769  1.00  0.00     0.111 C 
HETATM    2  C8  UNL     1      28.613  14.870  24.746  1.00  0.00     0.165 C 
HETATM    3  C9  UNL     1      28.391  13.417  24.687  1.00  0.00     0.215 C 
HETATM    4  C10 UNL     1      27.729  12.881  23.460  1.00  0.00     0.071 C 
HETATM    5  C11 UNL     1      28.242  13.733  22.293  1.00  0.00     0.178 C 
HETATM    6  C12 UNL     1      27.500  15.064  22.490  1.00  0.00     0.192 C 
ENDROOT
BRANCH   1   7
HETATM    7  S1  UNL     1      28.921  17.185  23.363  1.00  0.00    -0.152 SA
BRANCH   7   8
HETATM    8  C6  UNL     1      29.743  17.762  24.871  1.00  0.00     0.070 C 
HETATM    9  C2  UNL     1      30.911  18.653  24.576  1.00  0.00     0.099 C 
HETATM   10  C3  UNL     1      30.257  19.777  23.816  1.00  0.00     0.026 C 
HETATM   11  C4  UNL     1      29.029  20.051  24.669  1.00  0.00     0.003 C 
HETATM   12  C5  UNL     1      28.787  18.792  25.495  1.00  0.00     0.017 C 
BRANCH   9  13
HETATM   13  N2  UNL     1      32.004  18.028  23.890  1.00  0.00    -0.340 N 
HETATM   14  C1  UNL     1      32.913  17.127  24.479  1.00  0.00     0.329 C 
HETATM   15  N1  UNL     1      33.958  16.564  23.719  1.00  0.00    -0.040 NA
HETATM   16  O1  UNL     1      32.776  16.836  25.685  1.00  0.00    -0.251 OA
ATOM     17  H2  UNL     1      32.133  18.252  22.904  1.00  0.00     0.164 HD
ENDBRANCH   9  13
ENDBRANCH   7   8
ENDBRANCH   1   7
BRANCH   2  18
HETATM   18  O2  UNL     1      28.294  15.311  26.050  1.00  0.00    -0.392 OA
ATOM     19  H2  UNL     1      27.388  15.097  26.233  1.00  0.00     0.210 HD
ENDBRANCH   2  18
BRANCH   6  20
HETATM   20  O7  UNL     1      27.623  15.881  21.368  1.00  0.00    -0.248 OA
BRANCH  20  21
HETATM   21  S3  UNL     1      26.158  16.469  20.838  1.00  0.00     0.252 S 
HETATM   22  O8  UNL     1      25.138  15.405  20.649  1.00  0.00    -0.572 OA
HETATM   23  O9  UNL     1      26.299  17.185  19.502  1.00  0.00    -0.572 OA
HETATM   24  O10 UNL     1      25.550  17.553  21.983  1.00  0.00    -0.572 OA
ENDBRANCH  20  21
ENDBRANCH   6  20
BRANCH   3  25
HETATM   25  N3  UNL     1      27.592  12.935  25.829  1.00  0.00    -0.072 N 
ATOM     26  H33 UNL     1      27.721  13.527  26.649  1.00  0.00     0.274 HD
ATOM     27  H32 UNL     1      26.595  13.088  25.675  1.00  0.00     0.274 HD
ATOM     28  H31 UNL     1      27.787  11.957  26.045  1.00  0.00     0.274 HD
ENDBRANCH   3  25
BRANCH   5  29
HETATM   29  O3  UNL     1      27.827  13.188  21.098  1.00  0.00    -0.249 OA
BRANCH  29  30
HETATM   30  S2  UNL     1      29.066  12.396  20.307  1.00  0.00     0.252 S 
HETATM   31  O4  UNL     1      30.129  13.377  19.914  1.00  0.00    -0.572 OA
HETATM   32  O5  UNL     1      28.571  11.645  19.104  1.00  0.00    -0.572 OA
HETATM   33  O6  UNL     1      29.790  11.252  21.326  1.00  0.00    -0.572 OA
ENDBRANCH  29  30
ENDBRANCH   5  29
TORSDOF 9
ENDMDL
MODEL 3
REMARK VINA RESULT: -6.945461164      2.204      4.837
REMARK  9 active torsions:
REMARK  status: ('A' for Active; 'I' for Inactive)
REMARK       I    between atoms: C1_2  and  N2_4 
REMARK    1  A    between atoms: N2_4  and  C2_6 
REMARK    2  A    between atoms: C6_10  and  S1_11 
REMARK    3  A    between atoms: S1_11  and  C7_12 
REMARK    4  A    between atoms: C8_13  and  O2_14 
REMARK    5  A    between atoms: C9_16  and  N3_17 
REMARK    6  A    between atoms: C11_22  and  O3_23 
REMARK    7  A    between atoms: O3_23  and  S2_24 
REMARK    8  A    between atoms: C12_28  and  O7_29 
REMARK    9  A    between atoms: O7_29  and  S3_30 
ROOT
HETATM    1  C7  UNL     1      28.656  15.842  22.680  1.00  0.00     0.111 C 
HETATM    2  C8  UNL     1      29.468  14.671  23.057  1.00  0.00     0.165 C 
HETATM    3  C9  UNL     1      28.778  13.400  23.329  1.00  0.00     0.215 C 
HETATM    4  C10 UNL     1      27.349  13.300  22.907  1.00  0.00     0.071 C 
HETATM    5  C11 UNL     1      27.236  14.091  21.599  1.00  0.00     0.178 C 
HETATM    6  C12 UNL     1      27.317  15.550  22.074  1.00  0.00     0.192 C 
ENDROOT
BRANCH   1   7
HETATM    7  S1  UNL     1      29.578  16.924  21.548  1.00  0.00    -0.152 SA
BRANCH   7   8
HETATM    8  C6  UNL     1      30.100  18.403  22.455  1.00  0.00     0.070 C 
HETATM    9  C2  UNL     1      31.575  18.415  22.721  1.00  0.00     0.099 C 
HETATM   10  C3  UNL     1      32.140  18.372  21.325  1.00  0.00     0.026 C 
HETATM   11  C4  UNL     1      31.280  19.406  20.614  1.00  0.00     0.003 C 
HETATM   12  C5  UNL     1      30.012  19.559  21.446  1.00  0.00     0.017 C 
BRANCH   9  13
HETATM   13  N2  UNL     1      32.052  17.379  23.588  1.00  0.00    -0.340 N 
HETATM   14  C1  UNL     1      33.070  17.540  24.550  1.00  0.00     0.329 C 
HETATM   15  N1  UNL     1      33.470  16.456  25.357  1.00  0.00    -0.040 NA
HETATM   16  O1  UNL     1      33.609  18.659  24.673  1.00  0.00    -0.251 OA
ATOM     17  H2  UNL     1      31.624  16.457  23.503  1.00  0.00     0.164 HD
ENDBRANCH   9  13
ENDBRANCH   7   8
ENDBRANCH   1   7
BRANCH   2  18
HETATM   18  O2  UNL     1      30.248  14.999  24.188  1.00  0.00    -0.392 OA
ATOM     19  H2  UNL     1      30.360  14.221  24.720  1.00  0.00     0.210 HD
ENDBRANCH   2  18
BRANCH   6  20
HETATM   20  O7  UNL     1      26.954  16.432  21.058  1.00  0.00    -0.248 OA
BRANCH  20  21
HETATM   21  S3  UNL     1      25.868  17.587  21.567  1.00  0.00     0.252 S 
HETATM   22  O8  UNL     1      25.604  17.533  23.029  1.00  0.00    -0.572 OA
HETATM   23  O9  UNL     1      24.524  17.429  20.872  1.00  0.00    -0.572 OA
HETATM   24  O10 UNL     1      26.490  19.121  21.224  1.00  0.00    -0.572 OA
ENDBRANCH  20  21
ENDBRANCH   6  20
BRANCH   3  25
HETATM   25  N3  UNL     1      28.809  13.052  24.762  1.00  0.00    -0.072 N 
ATOM     26  H33 UNL     1      29.117  12.090  24.904  1.00  0.00     0.274 HD
ATOM     27  H32 UNL     1      29.566  13.536  25.245  1.00  0.00     0.274 HD
ATOM     28  H31 UNL     1      27.912  13.224  25.216  1.00  0.00     0.274 HD
ENDBRANCH   3  25
BRANCH   5  29
HETATM   29  O3  UNL     1      25.991  13.894  21.041  1.00  0.00    -0.249 OA
BRANCH  29  30
HETATM   30  S2  UNL     1      26.088  13.250  19.504  1.00  0.00     0.252 S 
HETATM   31  O4  UNL     1      24.718  13.148  18.906  1.00  0.00    -0.572 OA
HETATM   32  O5  UNL     1      26.766  11.910  19.501  1.00  0.00    -0.572 OA
HETATM   33  O6  UNL     1      27.003  14.256  18.492  1.00  0.00    -0.572 OA
ENDBRANCH  29  30
ENDBRANCH   5  29
TORSDOF 9
ENDMDL
MODEL 4
REMARK VINA RESULT: -6.884281759      2.344      4.479
REMARK  9 active torsions:
REMARK  status: ('A' for Active; 'I' for Inactive)
REMARK       I    between atoms: C1_2  and  N2_4 
REMARK    1  A    between atoms: N2_4  and  C2_6 
REMARK    2  A    between atoms: C6_10  and  S1_11 
REMARK    3  A    between atoms: S1_11  and  C7_12 
REMARK    4  A    between atoms: C8_13  and  O2_14 
REMARK    5  A    between atoms: C9_16  and  N3_17 
REMARK    6  A    between atoms: C11_22  and  O3_23 
REMARK    7  A    between atoms: O3_23  and  S2_24 
REMARK    8  A    between atoms: C12_28  and  O7_29 
REMARK    9  A    between atoms: O7_29  and  S3_30 
ROOT
HETATM    1  C7  UNL     1      28.267  15.444  23.484  1.00  0.00     0.111 C 
HETATM    2  C8  UNL     1      28.685  14.085  23.870  1.00  0.00     0.165 C 
HETATM    3  C9  UNL     1      27.849  12.950  23.452  1.00  0.00     0.215 C 
HETATM    4  C10 UNL     1      26.813  13.218  22.411  1.00  0.00     0.071 C 
HETATM    5  C11 UNL     1      27.427  14.248  21.455  1.00  0.00     0.178 C 
HETATM    6  C12 UNL     1      27.384  15.545  22.277  1.00  0.00     0.192 C 
ENDROOT
BRANCH   1   7
HETATM    7  S1  UNL     1      29.714  16.514  23.230  1.00  0.00    -0.152 SA
BRANCH   7   8
HETATM    8  C6  UNL     1      30.171  17.257  24.817  1.00  0.00     0.070 C 
HETATM    9  C2  UNL     1      31.027  18.476  24.648  1.00  0.00     0.099 C 
HETATM   10  C3  UNL     1      30.130  19.373  23.835  1.00  0.00     0.026 C 
HETATM   11  C4  UNL     1      28.803  19.221  24.563  1.00  0.00     0.003 C 
HETATM   12  C5  UNL     1      28.889  17.917  25.350  1.00  0.00     0.017 C 
BRANCH   9  13
HETATM   13  N2  UNL     1      32.319  18.246  24.071  1.00  0.00    -0.340 N 
HETATM   14  C1  UNL     1      33.281  17.354  24.583  1.00  0.00     0.329 C 
HETATM   15  N1  UNL     1      34.527  17.197  23.942  1.00  0.00    -0.040 NA
HETATM   16  O1  UNL     1      33.011  16.705  25.615  1.00  0.00    -0.251 OA
ATOM     17  H2  UNL     1      32.559  18.766  23.227  1.00  0.00     0.164 HD
ENDBRANCH   9  13
ENDBRANCH   7   8
ENDBRANCH   1   7
BRANCH   2  18
HETATM   18  O2  UNL     1      28.828  14.032  25.275  1.00  0.00    -0.392 OA
ATOM     19  H2  UNL     1      28.984  13.132  25.534  1.00  0.00     0.210 HD
ENDBRANCH   2  18
BRANCH   6  20
HETATM   20  O7  UNL     1      27.645  16.657  21.479  1.00  0.00    -0.248 OA
BRANCH  20  21
HETATM   21  S3  UNL     1      26.400  17.762  21.487  1.00  0.00     0.252 S 
HETATM   22  O8  UNL     1      26.872  19.171  21.530  1.00  0.00    -0.572 OA
HETATM   23  O9  UNL     1      25.493  17.566  22.694  1.00  0.00    -0.572 OA
HETATM   24  O10 UNL     1      25.487  17.579  20.076  1.00  0.00    -0.572 OA
ENDBRANCH  20  21
ENDBRANCH   6  20
BRANCH   3  25
HETATM   25  N3  UNL     1      27.138  12.340  24.591  1.00  0.00    -0.072 N 
ATOM     26  H33 UNL     1      27.725  11.659  25.073  1.00  0.00     0.274 HD
ATOM     27  H32 UNL     1      27.011  13.009  25.350  1.00  0.00     0.274 HD
ATOM     28  H31 UNL     1      26.249  11.926  24.309  1.00  0.00     0.274 HD
ENDBRANCH   3  25
BRANCH   5  29
HETATM   29  O3  UNL     1      26.610  14.412  20.357  1.00  0.00    -0.249 OA
BRANCH  29  30
HETATM   30  S2  UNL     1      27.447  14.245  18.922  1.00  0.00     0.252 S 
HETATM   31  O4  UNL     1      26.633  13.448  17.948  1.00  0.00    -0.572 OA
HETATM   32  O5  UNL     1      28.791  13.610  19.130  1.00  0.00    -0.572 OA
HETATM   33  O6  UNL     1      27.731  15.760  18.218  1.00  0.00    -0.572 OA
ENDBRANCH  29  30
ENDBRANCH   5  29
TORSDOF 9
ENDMDL
MODEL 5
REMARK VINA RESULT: -6.748840564      2.510      3.962
REMARK  9 active torsions:
REMARK  status: ('A' for Active; 'I' for Inactive)
REMARK       I    between atoms: C1_2  and  N2_4 
REMARK    1  A    between atoms: N2_4  and  C2_6 
REMARK    2  A    between atoms: C6_10  and  S1_11 
REMARK    3  A    between atoms: S1_11  and  C7_12 
REMARK    4  A    between atoms: C8_13  and  O2_14 
REMARK    5  A    between atoms: C9_16  and  N3_17 
REMARK    6  A    between atoms: C11_22  and  O3_23 
REMARK    7  A    between atoms: O3_23  and  S2_24 
REMARK    8  A    between atoms: C12_28  and  O7_29 
REMARK    9  A    between atoms: O7_29  and  S3_30 
ROOT
HETATM    1  C7  UNL     1      29.394  16.239  21.936  1.00  0.00     0.111 C 
HETATM    2  C8  UNL     1      29.600  16.882  20.626  1.00  0.00     0.165 C 
HETATM    3  C9  UNL     1      29.535  16.045  19.419  1.00  0.00     0.215 C 
HETATM    4  C10 UNL     1      28.962  14.675  19.573  1.00  0.00     0.071 C 
HETATM    5  C11 UNL     1      27.840  14.797  20.610  1.00  0.00     0.178 C 
HETATM    6  C12 UNL     1      28.611  14.961  21.929  1.00  0.00     0.192 C 
ENDROOT
BRANCH   1   7
HETATM    7  S1  UNL     1      28.606  17.392  23.100  1.00  0.00    -0.152 SA
BRANCH   7   8
HETATM    8  C6  UNL     1      29.652  17.536  24.572  1.00  0.00     0.070 C 
HETATM    9  C2  UNL     1      30.730  18.564  24.404  1.00  0.00     0.099 C 
HETATM   10  C3  UNL     1      29.928  19.813  24.148  1.00  0.00     0.026 C 
HETATM   11  C4  UNL     1      28.852  19.712  25.219  1.00  0.00     0.003 C 
HETATM   12  C5  UNL     1      28.787  18.244  25.627  1.00  0.00     0.017 C 
BRANCH   9  13
HETATM   13  N2  UNL     1      31.709  18.270  23.399  1.00  0.00    -0.340 N 
HETATM   14  C1  UNL     1      33.103  18.341  23.589  1.00  0.00     0.329 C 
HETATM   15  N1  UNL     1      33.987  18.032  22.536  1.00  0.00    -0.040 NA
HETATM   16  O1  UNL     1      33.541  18.682  24.708  1.00  0.00    -0.251 OA
ATOM     17  H2  UNL     1      31.372  17.990  22.478  1.00  0.00     0.164 HD
ENDBRANCH   9  13
ENDBRANCH   7   8
ENDBRANCH   1   7
BRANCH   2  18
HETATM   18  O2  UNL     1      30.846  17.548  20.634  1.00  0.00    -0.392 OA
ATOM     19  H2  UNL     1      30.819  18.258  20.004  1.00  0.00     0.210 HD
ENDBRANCH   2  18
BRANCH   6  20
HETATM   20  O7  UNL     1      27.767  14.811  23.028  1.00  0.00    -0.248 OA
BRANCH  20  21
HETATM   21  S3  UNL     1      28.349  13.717  24.140  1.00  0.00     0.252 S 
HETATM   22  O8  UNL     1      29.826  13.777  24.297  1.00  0.00    -0.572 OA
HETATM   23  O9  UNL     1      28.008  12.288  23.742  1.00  0.00    -0.572 OA
HETATM   24  O10 UNL     1      27.668  14.046  25.651  1.00  0.00    -0.572 OA
ENDBRANCH  20  21
ENDBRANCH   6  20
BRANCH   3  25
HETATM   25  N3  UNL     1      30.862  15.869  18.798  1.00  0.00    -0.072 N 
ATOM     26  H33 UNL     1      31.251  16.761  18.494  1.00  0.00     0.274 HD
ATOM     27  H32 UNL     1      31.565  15.615  19.492  1.00  0.00     0.274 HD
ATOM     28  H31 UNL     1      30.838  15.195  18.032  1.00  0.00     0.274 HD
ENDBRANCH   3  25
BRANCH   5  29
HETATM   29  O3  UNL     1      27.132  13.616  20.675  1.00  0.00    -0.249 OA
BRANCH  29  30
HETATM   30  S2  UNL     1      25.494  13.854  20.457  1.00  0.00     0.252 S 
HETATM   31  O4  UNL     1      25.179  15.318  20.522  1.00  0.00    -0.572 OA
HETATM   32  O5  UNL     1      24.681  13.095  21.465  1.00  0.00    -0.572 OA
HETATM   33  O6  UNL     1      25.009  13.303  18.930  1.00  0.00    -0.572 OA
ENDBRANCH  29  30
ENDBRANCH   5  29
TORSDOF 9
ENDMDL
