MODEL 1
REMARK VINA RESULT: -6.425474133      0.000      0.000
REMARK  11 active torsions:
REMARK  status: ('A' for Active; 'I' for Inactive)
REMARK    1  A    between atoms: O1_2  and  C2_3 
REMARK    2  A    between atoms: C2_3  and  C4_5 
REMARK       I    between atoms: C4_5  and  N1_7 
REMARK    3  A    between atoms: N1_7  and  C5_9 
REMARK    4  A    between atoms: C8_13  and  O4_14 
REMARK    5  A    between atoms: O4_14  and  C9_15 
REMARK    6  A    between atoms: C12_18  and  O5_19 
REMARK    7  A    between atoms: O5_19  and  C13_20 
REMARK    8  A    between atoms: C17_27  and  O6_28 
REMARK    9  A    between atoms: C18_30  and  N3_31 
REMARK   10  A    between atoms: C20_36  and  N4_37 
REMARK   11  A    between atoms: C21_41  and  O7_42 
ROOT
HETATM    1  C9  UNL     1      26.787  13.553  19.490  1.00  0.00     0.155 C 
HETATM    2  C10 UNL     1      26.238  13.965  20.838  1.00  0.00     0.036 C 
HETATM    3  C11 UNL     1      26.553  13.020  21.943  1.00  0.00     0.036 C 
HETATM    4  C12 UNL     1      27.909  13.348  22.566  1.00  0.00     0.154 C 
HETATM    5  C18 UNL     1      29.020  12.629  21.858  1.00  0.00     0.214 C 
HETATM    6  C19 UNL     1      28.687  12.205  20.480  1.00  0.00     0.070 C 
HETATM    7  C20 UNL     1      28.202  13.157  19.499  1.00  0.00     0.214 C 
ENDROOT
BRANCH   1   8
HETATM    8  O4  UNL     1      26.016  12.499  19.008  1.00  0.00    -0.351 OA
BRANCH   8   9
HETATM    9  C8  UNL     1      26.269  12.218  17.669  1.00  0.00     0.291 C 
HETATM   10  O3  UNL     1      26.438  10.884  17.503  1.00  0.00    -0.352 OA
HETATM   11  C6  UNL     1      25.846  10.478  16.341  1.00  0.00     0.146 C 
HETATM   12  C5  UNL     1      24.912  11.518  15.856  1.00  0.00     0.146 C 
HETATM   13  C7  UNL     1      26.963  10.146  15.348  1.00  0.00     0.042 C 
HETATM   14  C21 UNL     1      25.153  12.681  16.776  1.00  0.00     0.198 C 
BRANCH  12  15
HETATM   15  N1  UNL     1      23.515  11.130  15.996  1.00  0.00    -0.349 N 
HETATM   16  C4  UNL     1      22.813  10.496  14.946  1.00  0.00     0.246 C 
HETATM   17  O2  UNL     1      23.402  10.263  13.860  1.00  0.00    -0.271 OA
ATOM     18  H1  UNL     1      23.032  11.320  16.875  1.00  0.00     0.163 HD
BRANCH  16  19
HETATM   19  C2  UNL     1      21.396  10.106  15.115  1.00  0.00     0.208 C 
HETATM   20  C3  UNL     1      20.854  10.844  16.331  1.00  0.00     0.049 C 
BRANCH  19  21
HETATM   21  O1  UNL     1      21.344   8.728  15.321  1.00  0.00    -0.382 OA
HETATM   22  C1  UNL     1      20.663   8.086  14.286  1.00  0.00     0.202 C 
ENDBRANCH  19  21
ENDBRANCH  16  19
ENDBRANCH  12  15
BRANCH  14  23
HETATM   23  O7  UNL     1      23.993  12.931  17.499  1.00  0.00    -0.388 OA
ATOM     24  H7  UNL     1      23.899  13.869  17.616  1.00  0.00     0.210 HD
ENDBRANCH  14  23
ENDBRANCH   8   9
ENDBRANCH   1   8
BRANCH   7  25
HETATM   25  N4  UNL     1      28.990  14.403  19.573  1.00  0.00    -0.072 N 
ATOM     26  H43 UNL     1      29.483  14.620  18.706  1.00  0.00     0.274 HD
ATOM     27  H42 UNL     1      28.413  15.243  19.605  1.00  0.00     0.274 HD
ATOM     28  H41 UNL     1      29.611  14.310  20.377  1.00  0.00     0.274 HD
ENDBRANCH   7  25
BRANCH   4  29
HETATM   29  O5  UNL     1      27.998  14.724  22.543  1.00  0.00    -0.350 OA
BRANCH  29  30
HETATM   30  C13 UNL     1      27.829  15.361  23.750  1.00  0.00     0.350 C 
HETATM   31  N2  UNL     1      27.013  16.557  23.643  1.00  0.00    -0.046 N 
HETATM   32  C14 UNL     1      27.917  17.584  23.072  1.00  0.00     0.235 C 
ATOM     33  H22 UNL     1      26.150  16.425  23.116  1.00  0.00     0.280 HD
ATOM     34  H21 UNL     1      26.571  16.836  24.519  1.00  0.00     0.280 HD
HETATM   35  C15 UNL     1      28.854  18.053  24.181  1.00  0.00     0.030 C 
HETATM   36  C16 UNL     1      28.887  16.954  25.270  1.00  0.00     0.038 C 
HETATM   37  C17 UNL     1      29.064  15.662  24.502  1.00  0.00     0.174 C 
BRANCH  37  38
HETATM   38  O6  UNL     1      30.164  15.927  23.640  1.00  0.00    -0.391 OA
ATOM     39  H6  UNL     1      30.909  16.283  24.110  1.00  0.00     0.210 HD
ENDBRANCH  37  38
ENDBRANCH  29  30
ENDBRANCH   4  29
BRANCH   5  40
HETATM   40  N3  UNL     1      30.301  13.267  22.020  1.00  0.00    -0.072 N 
ATOM     41  H33 UNL     1      30.747  12.972  22.888  1.00  0.00     0.274 HD
ATOM     42  H32 UNL     1      30.978  12.901  21.351  1.00  0.00     0.274 HD
ATOM     43  H31 UNL     1      30.250  14.284  21.965  1.00  0.00     0.274 HD
ENDBRANCH   5  40
TORSDOF 11
ENDMDL
MODEL 2
REMARK VINA RESULT: -6.318413839      0.979      1.254
REMARK  11 active torsions:
REMARK  status: ('A' for Active; 'I' for Inactive)
REMARK    1  A    between atoms: O1_2  and  C2_3 
REMARK    2  A    between atoms: C2_3  and  C4_5 
REMARK       I    between atoms: C4_5  and  N1_7 
REMARK    3  A    between atoms: N1_7  and  C5_9 
REMARK    4  A    between atoms: C8_13  and  O4_14 
REMARK    5  A    between atoms: O4_14  and  C9_15 
REMARK    6  A    between atoms: C12_18  and  O5_19 
REMARK    7  A    between atoms: O5_19  and  C13_20 
REMARK    8  A    between atoms: C17_27  and  O6_28 
REMARK    9  A    between atoms: C18_30  and  N3_31 
REMARK   10  A    between atoms: C20_36  and  N4_37 
REMARK   11  A    between atoms: C21_41  and  O7_42 
ROOT
HETATM    1  C9  UNL     1      27.484  13.479  19.839  1.00  0.00     0.155 C 
HETATM    2  C10 UNL     1      26.810  13.823  21.148  1.00  0.00     0.036 C 
HETATM    3  C11 UNL     1      27.264  13.005  22.305  1.00  0.00     0.036 C 
HETATM    4  C12 UNL     1      28.501  13.625  22.954  1.00  0.00     0.154 C 
HETATM    5  C18 UNL     1      29.761  13.118  22.315  1.00  0.00     0.214 C 
HETATM    6  C19 UNL     1      29.575  12.583  20.948  1.00  0.00     0.070 C 
HETATM    7  C20 UNL     1      28.948  13.379  19.910  1.00  0.00     0.214 C 
ENDROOT
BRANCH   1   8
HETATM    8  O4  UNL     1      26.960  12.272  19.381  1.00  0.00    -0.351 OA
BRANCH   8   9
HETATM    9  C8  UNL     1      26.991  12.166  17.995  1.00  0.00     0.291 C 
HETATM   10  O3  UNL     1      27.092  10.864  17.635  1.00  0.00    -0.352 OA
HETATM   11  C6  UNL     1      26.313  10.617  16.542  1.00  0.00     0.146 C 
HETATM   12  C5  UNL     1      25.344  11.719  16.349  1.00  0.00     0.146 C 
HETATM   13  C7  UNL     1      27.248  10.408  15.348  1.00  0.00     0.042 C 
HETATM   14  C21 UNL     1      25.761  12.751  17.359  1.00  0.00     0.198 C 
BRANCH  12  15
HETATM   15  N1  UNL     1      23.976  11.327  16.661  1.00  0.00    -0.349 N 
HETATM   16  C4  UNL     1      23.095  10.851  15.664  1.00  0.00     0.246 C 
HETATM   17  O2  UNL     1      23.495  10.767  14.475  1.00  0.00    -0.271 OA
ATOM     18  H1  UNL     1      23.647  11.397  17.624  1.00  0.00     0.163 HD
BRANCH  16  19
HETATM   19  C2  UNL     1      21.712  10.454  16.007  1.00  0.00     0.208 C 
HETATM   20  C3  UNL     1      21.040   9.966  14.732  1.00  0.00     0.049 C 
BRANCH  19  21
HETATM   21  O1  UNL     1      21.049  11.574  16.507  1.00  0.00    -0.382 OA
HETATM   22  C1  UNL     1      20.660  12.434  15.479  1.00  0.00     0.202 C 
ENDBRANCH  19  21
ENDBRANCH  16  19
ENDBRANCH  12  15
BRANCH  14  23
HETATM   23  O7  UNL     1      24.737  12.914  18.284  1.00  0.00    -0.388 OA
ATOM     24  H7  UNL     1      24.751  13.808  18.604  1.00  0.00     0.210 HD
ENDBRANCH  14  23
ENDBRANCH   8   9
ENDBRANCH   1   8
BRANCH   7  25
HETATM   25  N4  UNL     1      29.465  14.760  19.951  1.00  0.00    -0.072 N 
ATOM     26  H43 UNL     1      29.512  15.145  20.894  1.00  0.00     0.274 HD
ATOM     27  H42 UNL     1      30.460  14.824  19.737  1.00  0.00     0.274 HD
ATOM     28  H41 UNL     1      28.882  15.310  19.320  1.00  0.00     0.274 HD
ENDBRANCH   7  25
BRANCH   4  29
HETATM   29  O5  UNL     1      28.312  14.988  22.871  1.00  0.00    -0.350 OA
BRANCH  29  30
HETATM   30  C13 UNL     1      28.046  15.636  24.055  1.00  0.00     0.350 C 
HETATM   31  N2  UNL     1      27.017  16.650  23.920  1.00  0.00    -0.046 N 
HETATM   32  C14 UNL     1      27.701  17.802  23.285  1.00  0.00     0.235 C 
ATOM     33  H22 UNL     1      26.186  16.335  23.420  1.00  0.00     0.280 HD
ATOM     34  H21 UNL     1      26.545  16.880  24.794  1.00  0.00     0.280 HD
HETATM   35  C15 UNL     1      28.551  18.489  24.350  1.00  0.00     0.030 C 
HETATM   36  C16 UNL     1      28.810  17.465  25.482  1.00  0.00     0.038 C 
HETATM   37  C17 UNL     1      29.215  16.197  24.762  1.00  0.00     0.174 C 
BRANCH  37  38
HETATM   38  O6  UNL     1      30.230  16.625  23.864  1.00  0.00    -0.391 OA
ATOM     39  H6  UNL     1      31.058  16.191  24.027  1.00  0.00     0.210 HD
ENDBRANCH  37  38
ENDBRANCH  29  30
ENDBRANCH   4  29
BRANCH   5  40
HETATM   40  N3  UNL     1      30.879  14.009  22.487  1.00  0.00    -0.072 N 
ATOM     41  H33 UNL     1      30.630  14.795  23.089  1.00  0.00     0.274 HD
ATOM     42  H32 UNL     1      31.602  13.579  23.065  1.00  0.00     0.274 HD
ATOM     43  H31 UNL     1      31.268  14.338  21.604  1.00  0.00     0.274 HD
ENDBRANCH   5  40
TORSDOF 11
ENDMDL
MODEL 3
REMARK VINA RESULT: -6.114584047      5.388      6.271
REMARK  11 active torsions:
REMARK  status: ('A' for Active; 'I' for Inactive)
REMARK    1  A    between atoms: O1_2  and  C2_3 
REMARK    2  A    between atoms: C2_3  and  C4_5 
REMARK       I    between atoms: C4_5  and  N1_7 
REMARK    3  A    between atoms: N1_7  and  C5_9 
REMARK    4  A    between atoms: C8_13  and  O4_14 
REMARK    5  A    between atoms: O4_14  and  C9_15 
REMARK    6  A    between atoms: C12_18  and  O5_19 
REMARK    7  A    between atoms: O5_19  and  C13_20 
REMARK    8  A    between atoms: C17_27  and  O6_28 
REMARK    9  A    between atoms: C18_30  and  N3_31 
REMARK   10  A    between atoms: C20_36  and  N4_37 
REMARK   11  A    between atoms: C21_41  and  O7_42 
ROOT
HETATM    1  C9  UNL     1      27.965  16.420  18.917  1.00  0.00     0.155 C 
HETATM    2  C10 UNL     1      28.310  17.851  19.266  1.00  0.00     0.036 C 
HETATM    3  C11 UNL     1      27.156  18.664  19.734  1.00  0.00     0.036 C 
HETATM    4  C12 UNL     1      26.959  18.506  21.241  1.00  0.00     0.154 C 
HETATM    5  C18 UNL     1      26.056  17.349  21.552  1.00  0.00     0.214 C 
HETATM    6  C19 UNL     1      25.970  16.339  20.474  1.00  0.00     0.070 C 
HETATM    7  C20 UNL     1      27.164  15.719  19.931  1.00  0.00     0.214 C 
ENDROOT
BRANCH   1   8
HETATM    8  O4  UNL     1      27.280  16.418  17.705  1.00  0.00    -0.351 OA
BRANCH   8   9
HETATM    9  C8  UNL     1      28.088  16.784  16.633  1.00  0.00     0.291 C 
HETATM   10  O3  UNL     1      28.221  15.739  15.781  1.00  0.00    -0.352 OA
HETATM   11  C6  UNL     1      28.188  16.180  14.489  1.00  0.00     0.146 C 
HETATM   12  C5  UNL     1      27.645  17.555  14.436  1.00  0.00     0.146 C 
HETATM   13  C7  UNL     1      29.606  16.060  13.925  1.00  0.00     0.042 C 
HETATM   14  C21 UNL     1      27.526  17.956  15.880  1.00  0.00     0.198 C 
BRANCH  12  15
HETATM   15  N1  UNL     1      26.311  17.611  13.854  1.00  0.00    -0.349 N 
HETATM   16  C4  UNL     1      26.105  17.982  12.505  1.00  0.00     0.246 C 
HETATM   17  O2  UNL     1      27.095  18.276  11.787  1.00  0.00    -0.271 OA
ATOM     18  H1  UNL     1      25.505  17.377  14.434  1.00  0.00     0.163 HD
BRANCH  16  19
HETATM   19  C2  UNL     1      24.741  18.026  11.936  1.00  0.00     0.208 C 
HETATM   20  C3  UNL     1      24.871  18.250  10.436  1.00  0.00     0.049 C 
BRANCH  19  21
HETATM   21  O1  UNL     1      24.056  19.087  12.527  1.00  0.00    -0.382 OA
HETATM   22  C1  UNL     1      23.795  20.100  11.604  1.00  0.00     0.202 C 
ENDBRANCH  19  21
ENDBRANCH  16  19
ENDBRANCH  12  15
BRANCH  14  23
HETATM   23  O7  UNL     1      26.185  18.160  16.181  1.00  0.00    -0.388 OA
ATOM     24  H7  UNL     1      26.094  18.989  16.635  1.00  0.00     0.210 HD
ENDBRANCH  14  23
ENDBRANCH   8   9
ENDBRANCH   1   8
BRANCH   7  25
HETATM   25  N4  UNL     1      28.086  15.356  21.024  1.00  0.00    -0.072 N 
ATOM     26  H43 UNL     1      28.982  14.998  20.692  1.00  0.00     0.274 HD
ATOM     27  H42 UNL     1      28.450  16.164  21.529  1.00  0.00     0.274 HD
ATOM     28  H41 UNL     1      27.587  14.699  21.622  1.00  0.00     0.274 HD
ENDBRANCH   7  25
BRANCH   4  29
HETATM   29  O5  UNL     1      28.230  18.411  21.768  1.00  0.00    -0.350 OA
BRANCH  29  30
HETATM   30  C13 UNL     1      28.682  19.511  22.459  1.00  0.00     0.350 C 
HETATM   31  N2  UNL     1      30.068  19.828  22.164  1.00  0.00    -0.046 N 
HETATM   32  C14 UNL     1      30.856  18.843  22.943  1.00  0.00     0.235 C 
ATOM     33  H22 UNL     1      30.288  19.840  21.169  1.00  0.00     0.280 HD
ATOM     34  H21 UNL     1      30.319  20.799  22.350  1.00  0.00     0.280 HD
HETATM   35  C15 UNL     1      30.836  19.277  24.406  1.00  0.00     0.030 C 
HETATM   36  C16 UNL     1      29.614  20.206  24.608  1.00  0.00     0.038 C 
HETATM   37  C17 UNL     1      28.473  19.488  23.921  1.00  0.00     0.174 C 
BRANCH  37  38
HETATM   38  O6  UNL     1      28.534  18.169  24.449  1.00  0.00    -0.391 OA
ATOM     39  H6  UNL     1      28.192  17.524  23.842  1.00  0.00     0.210 HD
ENDBRANCH  37  38
ENDBRANCH  29  30
ENDBRANCH   4  29
BRANCH   5  40
HETATM   40  N3  UNL     1      26.245  16.825  22.881  1.00  0.00    -0.072 N 
ATOM     41  H33 UNL     1      25.892  17.476  23.582  1.00  0.00     0.274 HD
ATOM     42  H32 UNL     1      25.620  16.037  23.054  1.00  0.00     0.274 HD
ATOM     43  H31 UNL     1      27.213  16.571  23.076  1.00  0.00     0.274 HD
ENDBRANCH   5  40
TORSDOF 11
ENDMDL
MODEL 4
REMARK VINA RESULT: -5.986124668      2.410     10.120
REMARK  11 active torsions:
REMARK  status: ('A' for Active; 'I' for Inactive)
REMARK    1  A    between atoms: O1_2  and  C2_3 
REMARK    2  A    between atoms: C2_3  and  C4_5 
REMARK       I    between atoms: C4_5  and  N1_7 
REMARK    3  A    between atoms: N1_7  and  C5_9 
REMARK    4  A    between atoms: C8_13  and  O4_14 
REMARK    5  A    between atoms: O4_14  and  C9_15 
REMARK    6  A    between atoms: C12_18  and  O5_19 
REMARK    7  A    between atoms: O5_19  and  C13_20 
REMARK    8  A    between atoms: C17_27  and  O6_28 
REMARK    9  A    between atoms: C18_30  and  N3_31 
REMARK   10  A    between atoms: C20_36  and  N4_37 
REMARK   11  A    between atoms: C21_41  and  O7_42 
ROOT
HETATM    1  C9  UNL     1      24.661  11.702  16.748  1.00  0.00     0.155 C 
HETATM    2  C10 UNL     1      23.179  11.624  16.460  1.00  0.00     0.036 C 
HETATM    3  C11 UNL     1      22.721  12.509  15.355  1.00  0.00     0.036 C 
HETATM    4  C12 UNL     1      22.865  11.807  14.005  1.00  0.00     0.154 C 
HETATM    5  C18 UNL     1      24.222  12.046  13.411  1.00  0.00     0.214 C 
HETATM    6  C19 UNL     1      25.258  12.426  14.397  1.00  0.00     0.070 C 
HETATM    7  C20 UNL     1      25.522  11.602  15.561  1.00  0.00     0.214 C 
ENDROOT
BRANCH   1   8
HETATM    8  O4  UNL     1      24.917  12.903  17.404  1.00  0.00    -0.351 OA
BRANCH   8   9
HETATM    9  C8  UNL     1      25.972  12.807  18.306  1.00  0.00     0.291 C 
HETATM   10  O3  UNL     1      26.964  13.657  17.945  1.00  0.00    -0.352 OA
HETATM   11  C6  UNL     1      27.510  14.239  19.052  1.00  0.00     0.146 C 
HETATM   12  C5  UNL     1      26.614  14.055  20.216  1.00  0.00     0.146 C 
HETATM   13  C7  UNL     1      28.902  13.634  19.251  1.00  0.00     0.042 C 
HETATM   14  C21 UNL     1      25.544  13.130  19.709  1.00  0.00     0.198 C 
BRANCH  12  15
HETATM   15  N1  UNL     1      25.965  15.294  20.626  1.00  0.00    -0.349 N 
HETATM   16  C4  UNL     1      26.506  16.113  21.644  1.00  0.00     0.246 C 
HETATM   17  O2  UNL     1      27.572  15.766  22.214  1.00  0.00    -0.271 OA
ATOM     18  H1  UNL     1      25.098  15.576  20.168  1.00  0.00     0.163 HD
BRANCH  16  19
HETATM   19  C2  UNL     1      25.831  17.368  22.039  1.00  0.00     0.208 C 
HETATM   20  C3  UNL     1      24.946  17.803  20.881  1.00  0.00     0.049 C 
BRANCH  19  21
HETATM   21  O1  UNL     1      26.810  18.329  22.289  1.00  0.00    -0.382 OA
HETATM   22  C1  UNL     1      27.066  19.099  21.155  1.00  0.00     0.202 C 
ENDBRANCH  19  21
ENDBRANCH  16  19
ENDBRANCH  12  15
BRANCH  14  23
HETATM   23  O7  UNL     1      24.325  13.798  19.729  1.00  0.00    -0.388 OA
ATOM     24  H7  UNL     1      23.936  13.755  18.864  1.00  0.00     0.210 HD
ENDBRANCH  14  23
ENDBRANCH   8   9
ENDBRANCH   1   8
BRANCH   7  25
HETATM   25  N4  UNL     1      25.550  10.178  15.177  1.00  0.00    -0.072 N 
ATOM     26  H43 UNL     1      24.849   9.616  15.660  1.00  0.00     0.274 HD
ATOM     27  H42 UNL     1      25.217  10.010  14.227  1.00  0.00     0.274 HD
ATOM     28  H41 UNL     1      26.504   9.851  15.333  1.00  0.00     0.274 HD
ENDBRANCH   7  25
BRANCH   4  29
HETATM   29  O5  UNL     1      22.559  10.484  14.247  1.00  0.00    -0.350 OA
BRANCH  29  30
HETATM   30  C13 UNL     1      21.323  10.060  13.818  1.00  0.00     0.350 C 
HETATM   31  N2  UNL     1      20.687   9.148  14.750  1.00  0.00    -0.046 N 
HETATM   32  C14 UNL     1      21.363   7.847  14.528  1.00  0.00     0.235 C 
ATOM     33  H22 UNL     1      20.707   9.465  15.719  1.00  0.00     0.280 HD
ATOM     34  H21 UNL     1      19.672   9.107  14.663  1.00  0.00     0.280 HD
HETATM   35  C15 UNL     1      20.820   7.252  13.232  1.00  0.00     0.030 C 
HETATM   36  C16 UNL     1      20.223   8.408  12.393  1.00  0.00     0.038 C 
HETATM   37  C17 UNL     1      21.270   9.500  12.452  1.00  0.00     0.174 C 
BRANCH  37  38
HETATM   38  O6  UNL     1      22.475   8.834  12.099  1.00  0.00    -0.391 OA
ATOM     39  H6  UNL     1      22.480   8.561  11.189  1.00  0.00     0.210 HD
ENDBRANCH  37  38
ENDBRANCH  29  30
ENDBRANCH   4  29
BRANCH   5  40
HETATM   40  N3  UNL     1      24.609  11.034  12.461  1.00  0.00    -0.072 N 
ATOM     41  H33 UNL     1      23.827  10.413  12.253  1.00  0.00     0.274 HD
ATOM     42  H32 UNL     1      24.751  11.440  11.535  1.00  0.00     0.274 HD
ATOM     43  H31 UNL     1      25.427  10.502  12.754  1.00  0.00     0.274 HD
ENDBRANCH   5  40
TORSDOF 11
ENDMDL
MODEL 5
REMARK VINA RESULT: -5.972662946      3.371      4.719
REMARK  11 active torsions:
REMARK  status: ('A' for Active; 'I' for Inactive)
REMARK    1  A    between atoms: O1_2  and  C2_3 
REMARK    2  A    between atoms: C2_3  and  C4_5 
REMARK       I    between atoms: C4_5  and  N1_7 
REMARK    3  A    between atoms: N1_7  and  C5_9 
REMARK    4  A    between atoms: C8_13  and  O4_14 
REMARK    5  A    between atoms: O4_14  and  C9_15 
REMARK    6  A    between atoms: C12_18  and  O5_19 
REMARK    7  A    between atoms: O5_19  and  C13_20 
REMARK    8  A    between atoms: C17_27  and  O6_28 
REMARK    9  A    between atoms: C18_30  and  N3_31 
REMARK   10  A    between atoms: C20_36  and  N4_37 
REMARK   11  A    between atoms: C21_41  and  O7_42 
ROOT
HETATM    1  C9  UNL     1      29.769  13.741  22.031  1.00  0.00     0.155 C 
HETATM    2  C10 UNL     1      29.018  14.968  21.565  1.00  0.00     0.036 C 
HETATM    3  C11 UNL     1      27.648  15.101  22.130  1.00  0.00     0.036 C 
HETATM    4  C12 UNL     1      27.686  15.822  23.476  1.00  0.00     0.154 C 
HETATM    5  C18 UNL     1      27.878  14.854  24.606  1.00  0.00     0.214 C 
HETATM    6  C19 UNL     1      28.484  13.565  24.204  1.00  0.00     0.070 C 
HETATM    7  C20 UNL     1      29.741  13.520  23.483  1.00  0.00     0.214 C 
ENDROOT
BRANCH   1   8
HETATM    8  O4  UNL     1      29.234  12.629  21.385  1.00  0.00    -0.351 OA
BRANCH   8   9
HETATM    9  C8  UNL     1      30.190  11.911  20.675  1.00  0.00     0.291 C 
HETATM   10  O3  UNL     1      30.130  10.602  21.019  1.00  0.00    -0.352 OA
HETATM   11  C6  UNL     1      30.310   9.817  19.916  1.00  0.00     0.146 C 
HETATM   12  C5  UNL     1      30.129  10.621  18.687  1.00  0.00     0.146 C 
HETATM   13  C7  UNL     1      31.696   9.176  20.029  1.00  0.00     0.042 C 
HETATM   14  C21 UNL     1      29.996  12.031  19.190  1.00  0.00     0.198 C 
BRANCH  12  15
HETATM   15  N1  UNL     1      28.900  10.292  17.976  1.00  0.00    -0.349 N 
HETATM   16  C4  UNL     1      28.921   9.753  16.669  1.00  0.00     0.246 C 
HETATM   17  O2  UNL     1      30.025   9.555  16.100  1.00  0.00    -0.271 OA
ATOM     18  H1  UNL     1      28.003  10.454  18.433  1.00  0.00     0.163 HD
BRANCH  16  19
HETATM   19  C2  UNL     1      27.661   9.422  15.970  1.00  0.00     0.208 C 
HETATM   20  C3  UNL     1      26.546  10.230  16.618  1.00  0.00     0.049 C 
BRANCH  19  21
HETATM   21  O1  UNL     1      27.423   8.056  16.124  1.00  0.00    -0.382 OA
HETATM   22  C1  UNL     1      27.286   7.423  14.889  1.00  0.00     0.202 C 
ENDBRANCH  19  21
ENDBRANCH  16  19
ENDBRANCH  12  15
BRANCH  14  23
HETATM   23  O7  UNL     1      28.727  12.502  18.878  1.00  0.00    -0.388 OA
ATOM     24  H7  UNL     1      28.805  13.184  18.222  1.00  0.00     0.210 HD
ENDBRANCH  14  23
ENDBRANCH   8   9
ENDBRANCH   1   8
BRANCH   7  25
HETATM   25  N4  UNL     1      30.697  14.476  24.075  1.00  0.00    -0.072 N 
ATOM     26  H43 UNL     1      31.167  15.058  23.381  1.00  0.00     0.274 HD
ATOM     27  H42 UNL     1      30.245  15.232  24.590  1.00  0.00     0.274 HD
ATOM     28  H41 UNL     1      31.342  13.930  24.646  1.00  0.00     0.274 HD
ENDBRANCH   7  25
BRANCH   4  29
HETATM   29  O5  UNL     1      28.673  16.776  23.352  1.00  0.00    -0.350 OA
BRANCH  29  30
HETATM   30  C13 UNL     1      28.271  18.085  23.480  1.00  0.00     0.350 C 
HETATM   31  N2  UNL     1      28.807  18.942  22.439  1.00  0.00    -0.046 N 
HETATM   32  C14 UNL     1      30.212  19.192  22.839  1.00  0.00     0.235 C 
ATOM     33  H22 UNL     1      28.705  18.564  21.497  1.00  0.00     0.280 HD
ATOM     34  H21 UNL     1      28.264  19.791  22.281  1.00  0.00     0.280 HD
HETATM   35  C15 UNL     1      30.202  20.207  23.979  1.00  0.00     0.030 C 
HETATM   36  C16 UNL     1      28.799  20.176  24.629  1.00  0.00     0.038 C 
HETATM   37  C17 UNL     1      28.493  18.703  24.803  1.00  0.00     0.174 C 
BRANCH  37  38
HETATM   38  O6  UNL     1      29.652  18.190  25.447  1.00  0.00    -0.391 OA
ATOM     39  H6  UNL     1      30.405  18.174  24.868  1.00  0.00     0.210 HD
ENDBRANCH  37  38
ENDBRANCH  29  30
ENDBRANCH   4  29
BRANCH   5  40
HETATM   40  N3  UNL     1      28.439  15.464  25.784  1.00  0.00    -0.072 N 
ATOM     41  H33 UNL     1      29.216  16.078  25.541  1.00  0.00     0.274 HD
ATOM     42  H32 UNL     1      27.798  16.153  26.178  1.00  0.00     0.274 HD
ATOM     43  H31 UNL     1      28.721  14.785  26.491  1.00  0.00     0.274 HD
ENDBRANCH   5  40
TORSDOF 11
ENDMDL
