MODEL 1
REMARK VINA RESULT: -7.342123415      0.000      0.000
REMARK  17 active torsions:
REMARK  status: ('A' for Active; 'I' for Inactive)
REMARK       I    between atoms: C2_2  and  N1_4 
REMARK    1  A    between atoms: N1_4  and  C3_6 
REMARK    2  A    between atoms: C3_6  and  C5_8 
REMARK       I    between atoms: C5_8  and  N2_10 
REMARK    3  A    between atoms: N2_10  and  C6_12 
REMARK    4  A    between atoms: C6_12  and  C7_13 
REMARK    5  A    between atoms: C7_13  and  C9_15 
REMARK    6  A    between atoms: C9_15  and  O3_16 
REMARK    7  A    between atoms: C9_15  and  C10_18 
REMARK    8  A    between atoms: C10_18  and  O4_19 
REMARK    9  A    between atoms: C10_18  and  C11_21 
REMARK   10  A    between atoms: C11_21  and  O5_22 
REMARK   11  A    between atoms: C11_21  and  C12_24 
REMARK   12  A    between atoms: C12_24  and  O6_25 
REMARK   13  A    between atoms: C12_24  and  N3_27 
REMARK   14  A    between atoms: C14_29  and  C15_30 
REMARK   15  A    between atoms: C15_30  and  N4_31 
REMARK   16  A    between atoms: C19_38  and  N6_39 
REMARK   17  A    between atoms: N6_39  and  N7_41 
ROOT
HETATM    1  C12 UNL     1       7.284  -0.346  -2.503  1.00  0.00     0.273 C 
ENDROOT
BRANCH   1   2
HETATM    2  C11 UNL     1       8.509   0.250  -1.888  1.00  0.00     0.199 C 
BRANCH   2   3
HETATM    3  C10 UNL     1       8.840  -0.265  -0.498  1.00  0.00     0.180 C 
BRANCH   3   4
HETATM    4  C9  UNL     1       8.633   0.681   0.611  1.00  0.00     0.154 C 
BRANCH   4   5
HETATM    5  C7  UNL     1       9.671   1.808   0.685  1.00  0.00     0.031 C 
HETATM    6  C8  UNL     1      10.617   1.414   1.860  1.00  0.00     0.014 C 
BRANCH   5   7
HETATM    7  C6  UNL     1       9.135   3.157   0.975  1.00  0.00     0.129 C 
BRANCH   7   8
HETATM    8  N2  UNL     1       8.993   3.906  -0.293  1.00  0.00    -0.359 N 
HETATM    9  C5  UNL     1       7.766   3.940  -0.980  1.00  0.00     0.240 C 
HETATM   10  O2  UNL     1       6.775   3.316  -0.500  1.00  0.00    -0.271 OA
ATOM     11  H2  UNL     1       9.796   4.405  -0.674  1.00  0.00     0.162 HD
BRANCH   9  12
HETATM   12  C3  UNL     1       7.664   4.700  -2.245  1.00  0.00     0.172 C 
HETATM   13  C4  UNL     1       8.080   6.155  -2.002  1.00  0.00     0.042 C 
BRANCH  12  14
HETATM   14  N1  UNL     1       8.474   4.128  -3.293  1.00  0.00    -0.349 N 
HETATM   15  C2  UNL     1       8.150   4.406  -4.646  1.00  0.00     0.214 C 
HETATM   16  C1  UNL     1       8.977   3.823  -5.746  1.00  0.00     0.117 C 
HETATM   17  O1  UNL     1       7.179   5.135  -4.970  1.00  0.00    -0.274 OA
ATOM     18  H1  UNL     1       9.269   3.532  -3.064  1.00  0.00     0.163 HD
ENDBRANCH  12  14
ENDBRANCH   9  12
ENDBRANCH   7   8
ENDBRANCH   5   7
ENDBRANCH   4   5
BRANCH   4  19
HETATM   19  O3  UNL     1       8.668   0.026   1.875  1.00  0.00    -0.392 OA
ATOM     20  H3  UNL     1       7.828   0.197   2.286  1.00  0.00     0.210 HD
ENDBRANCH   4  19
ENDBRANCH   3   4
BRANCH   3  21
HETATM   21  O4  UNL     1      10.219  -0.623  -0.533  1.00  0.00    -0.390 OA
ATOM     22  H4  UNL     1      10.297  -1.479  -0.939  1.00  0.00     0.210 HD
ENDBRANCH   3  21
ENDBRANCH   2   3
BRANCH   2  23
HETATM   23  O5  UNL     1       9.589  -0.232  -2.690  1.00  0.00    -0.388 OA
ATOM     24  H5  UNL     1       9.715   0.456  -3.332  1.00  0.00     0.210 HD
ENDBRANCH   2  23
ENDBRANCH   1   2
BRANCH   1  25
HETATM   25  O6  UNL     1       7.599  -1.269  -3.504  1.00  0.00    -0.372 OA
ATOM     26  H6  UNL     1       7.362  -0.951  -4.367  1.00  0.00     0.212 HD
ENDBRANCH   1  25
BRANCH   1  27
HETATM   27  N3  UNL     1       6.421   0.707  -3.060  1.00  0.00    -0.255 N 
HETATM   28  C13 UNL     1       6.284   0.971  -4.365  1.00  0.00     0.143 A 
HETATM   29  C14 UNL     1       5.399   2.014  -4.471  1.00  0.00     0.063 A 
HETATM   30  N8  UNL     1       5.041   2.331  -3.218  1.00  0.00    -0.287 N 
HETATM   31  N9  UNL     1       5.660   1.539  -2.370  1.00  0.00    -0.238 N 
ATOM     32  H8  UNL     1       4.389   3.072  -2.961  1.00  0.00     0.188 HD
ATOM     33  H9  UNL     1       5.569   1.563  -1.355  1.00  0.00     0.208 HD
BRANCH  29  34
HETATM   34  C15 UNL     1       4.902   2.691  -5.672  1.00  0.00     0.207 C 
BRANCH  34  35
HETATM   35  N4  UNL     1       3.565   2.332  -6.032  1.00  0.00    -0.186 N 
HETATM   36  C16 UNL     1       3.321   1.138  -6.600  1.00  0.00     0.115 A 
HETATM   37  C17 UNL     1       2.037   0.751  -6.965  1.00  0.00     0.092 A 
HETATM   38  C18 UNL     1       0.971   1.605  -6.745  1.00  0.00     0.260 A 
HETATM   39  O7  UNL     1      -0.220   1.279  -7.069  1.00  0.00    -0.268 OA
HETATM   40  N5  UNL     1       1.253   2.791  -6.175  1.00  0.00    -0.154 N 
HETATM   41  C19 UNL     1       2.500   3.141  -5.832  1.00  0.00     0.701 A 
ATOM     42  H5  UNL     1       0.492   3.445  -5.998  1.00  0.00     0.187 HD
BRANCH  41  43
HETATM   43  N6  UNL     1       2.730   4.278  -5.292  1.00  0.00    -0.138 N 
ATOM     44  H6  UNL     1       3.639   4.724  -5.413  1.00  0.00     0.205 HD
BRANCH  43  45
HETATM   45  N7  UNL     1       1.741   4.911  -4.538  1.00  0.00    -0.331 N 
ATOM     46  H72 UNL     1       1.305   4.401  -3.769  1.00  0.00     0.177 HD
ATOM     47  H71 UNL     1       1.462   5.868  -4.756  1.00  0.00     0.177 HD
ENDBRANCH  43  45
ENDBRANCH  41  43
ENDBRANCH  34  35
ENDBRANCH  29  34
ENDBRANCH   1  27
TORSDOF 17
ENDMDL
MODEL 2
REMARK VINA RESULT: -7.227511907      4.650      9.378
REMARK  17 active torsions:
REMARK  status: ('A' for Active; 'I' for Inactive)
REMARK       I    between atoms: C2_2  and  N1_4 
REMARK    1  A    between atoms: N1_4  and  C3_6 
REMARK    2  A    between atoms: C3_6  and  C5_8 
REMARK       I    between atoms: C5_8  and  N2_10 
REMARK    3  A    between atoms: N2_10  and  C6_12 
REMARK    4  A    between atoms: C6_12  and  C7_13 
REMARK    5  A    between atoms: C7_13  and  C9_15 
REMARK    6  A    between atoms: C9_15  and  O3_16 
REMARK    7  A    between atoms: C9_15  and  C10_18 
REMARK    8  A    between atoms: C10_18  and  O4_19 
REMARK    9  A    between atoms: C10_18  and  C11_21 
REMARK   10  A    between atoms: C11_21  and  O5_22 
REMARK   11  A    between atoms: C11_21  and  C12_24 
REMARK   12  A    between atoms: C12_24  and  O6_25 
REMARK   13  A    between atoms: C12_24  and  N3_27 
REMARK   14  A    between atoms: C14_29  and  C15_30 
REMARK   15  A    between atoms: C15_30  and  N4_31 
REMARK   16  A    between atoms: C19_38  and  N6_39 
REMARK   17  A    between atoms: N6_39  and  N7_41 
ROOT
HETATM    1  C12 UNL     1       9.568   2.826   1.305  1.00  0.00     0.273 C 
ENDROOT
BRANCH   1   2
HETATM    2  C11 UNL     1       8.463   2.774   0.300  1.00  0.00     0.199 C 
BRANCH   2   3
HETATM    3  C10 UNL     1       7.448   1.667   0.526  1.00  0.00     0.180 C 
BRANCH   3   4
HETATM    4  C9  UNL     1       6.625   1.293  -0.636  1.00  0.00     0.154 C 
BRANCH   4   5
HETATM    5  C7  UNL     1       7.428   0.839  -1.861  1.00  0.00     0.031 C 
HETATM    6  C8  UNL     1       6.372   0.252  -2.846  1.00  0.00     0.014 C 
BRANCH   5   7
HETATM    7  C6  UNL     1       8.441  -0.211  -1.612  1.00  0.00     0.129 C 
BRANCH   7   8
HETATM    8  N2  UNL     1       9.765   0.275  -2.059  1.00  0.00    -0.359 N 
HETATM    9  C5  UNL     1      10.781  -0.626  -2.425  1.00  0.00     0.240 C 
HETATM   10  O2  UNL     1      10.551  -1.869  -2.366  1.00  0.00    -0.271 OA
ATOM     11  H2  UNL     1       9.944   1.278  -2.102  1.00  0.00     0.162 HD
BRANCH   9  12
HETATM   12  C3  UNL     1      12.092  -0.100  -2.867  1.00  0.00     0.172 C 
HETATM   13  C4  UNL     1      13.045  -1.269  -3.141  1.00  0.00     0.042 C 
BRANCH  12  14
HETATM   14  N1  UNL     1      11.980   0.727  -4.043  1.00  0.00    -0.349 N 
HETATM   15  C2  UNL     1      11.787   2.123  -3.890  1.00  0.00     0.214 C 
HETATM   16  C1  UNL     1      11.669   2.997  -5.097  1.00  0.00     0.117 C 
HETATM   17  O1  UNL     1      11.708   2.673  -2.763  1.00  0.00    -0.274 OA
ATOM     18  H1  UNL     1      12.040   0.312  -4.973  1.00  0.00     0.163 HD
ENDBRANCH  12  14
ENDBRANCH   9  12
ENDBRANCH   7   8
ENDBRANCH   5   7
ENDBRANCH   4   5
BRANCH   4  19
HETATM   19  O3  UNL     1       5.811   2.377  -1.074  1.00  0.00    -0.392 OA
ATOM     20  H3  UNL     1       6.213   3.167  -0.731  1.00  0.00     0.210 HD
ENDBRANCH   4  19
ENDBRANCH   3   4
BRANCH   3  21
HETATM   21  O4  UNL     1       6.584   2.134   1.559  1.00  0.00    -0.390 OA
ATOM     22  H4  UNL     1       7.082   2.706   2.131  1.00  0.00     0.210 HD
ENDBRANCH   3  21
ENDBRANCH   2   3
BRANCH   2  23
HETATM   23  O5  UNL     1       7.712   3.968   0.525  1.00  0.00    -0.388 OA
ATOM     24  H5  UNL     1       7.302   3.819   1.368  1.00  0.00     0.210 HD
ENDBRANCH   2  23
ENDBRANCH   1   2
BRANCH   1  25
HETATM   25  O6  UNL     1       9.204   3.549   2.444  1.00  0.00    -0.372 OA
ATOM     26  H6  UNL     1       8.668   3.033   3.035  1.00  0.00     0.212 HD
ENDBRANCH   1  25
BRANCH   1  27
HETATM   27  N3  UNL     1      10.777   3.420   0.712  1.00  0.00    -0.255 N 
HETATM   28  C13 UNL     1      12.031   3.105   1.059  1.00  0.00     0.143 A 
HETATM   29  C14 UNL     1      12.864   3.869   0.282  1.00  0.00     0.063 A 
HETATM   30  N8  UNL     1      12.069   4.613  -0.501  1.00  0.00    -0.287 N 
HETATM   31  N9  UNL     1      10.811   4.337  -0.238  1.00  0.00    -0.238 N 
ATOM     32  H8  UNL     1      12.391   5.288  -1.195  1.00  0.00     0.188 HD
ATOM     33  H9  UNL     1       9.999   4.759  -0.690  1.00  0.00     0.208 HD
BRANCH  29  34
HETATM   34  C15 UNL     1      14.329   3.915   0.260  1.00  0.00     0.207 C 
BRANCH  34  35
HETATM   35  N4  UNL     1      14.942   2.719  -0.227  1.00  0.00    -0.186 N 
HETATM   36  C16 UNL     1      14.916   2.440  -1.543  1.00  0.00     0.115 A 
HETATM   37  C17 UNL     1      15.500   1.288  -2.058  1.00  0.00     0.092 A 
HETATM   38  C18 UNL     1      16.127   0.395  -1.208  1.00  0.00     0.260 A 
HETATM   39  O7  UNL     1      16.673  -0.672  -1.650  1.00  0.00    -0.268 OA
HETATM   40  N5  UNL     1      16.134   0.707   0.101  1.00  0.00    -0.154 N 
HETATM   41  C19 UNL     1      15.564   1.824   0.573  1.00  0.00     0.701 A 
ATOM     42  H5  UNL     1      16.588   0.071   0.756  1.00  0.00     0.187 HD
BRANCH  41  43
HETATM   43  N6  UNL     1      15.590   2.087   1.825  1.00  0.00    -0.138 N 
ATOM     44  H6  UNL     1      14.761   2.469   2.282  1.00  0.00     0.205 HD
BRANCH  43  45
HETATM   45  N7  UNL     1      16.747   1.853   2.569  1.00  0.00    -0.331 N 
ATOM     46  H72 UNL     1      16.815   0.997   3.119  1.00  0.00     0.177 HD
ATOM     47  H71 UNL     1      17.509   2.531   2.560  1.00  0.00     0.177 HD
ENDBRANCH  43  45
ENDBRANCH  41  43
ENDBRANCH  34  35
ENDBRANCH  29  34
ENDBRANCH   1  27
TORSDOF 17
ENDMDL
MODEL 3
REMARK VINA RESULT: -7.159276291      2.754      4.153
REMARK  17 active torsions:
REMARK  status: ('A' for Active; 'I' for Inactive)
REMARK       I    between atoms: C2_2  and  N1_4 
REMARK    1  A    between atoms: N1_4  and  C3_6 
REMARK    2  A    between atoms: C3_6  and  C5_8 
REMARK       I    between atoms: C5_8  and  N2_10 
REMARK    3  A    between atoms: N2_10  and  C6_12 
REMARK    4  A    between atoms: C6_12  and  C7_13 
REMARK    5  A    between atoms: C7_13  and  C9_15 
REMARK    6  A    between atoms: C9_15  and  O3_16 
REMARK    7  A    between atoms: C9_15  and  C10_18 
REMARK    8  A    between atoms: C10_18  and  O4_19 
REMARK    9  A    between atoms: C10_18  and  C11_21 
REMARK   10  A    between atoms: C11_21  and  O5_22 
REMARK   11  A    between atoms: C11_21  and  C12_24 
REMARK   12  A    between atoms: C12_24  and  O6_25 
REMARK   13  A    between atoms: C12_24  and  N3_27 
REMARK   14  A    between atoms: C14_29  and  C15_30 
REMARK   15  A    between atoms: C15_30  and  N4_31 
REMARK   16  A    between atoms: C19_38  and  N6_39 
REMARK   17  A    between atoms: N6_39  and  N7_41 
ROOT
HETATM    1  C12 UNL     1       9.497   0.423   1.055  1.00  0.00     0.273 C 
ENDROOT
BRANCH   1   2
HETATM    2  C11 UNL     1      10.318   1.643   1.325  1.00  0.00     0.199 C 
BRANCH   2   3
HETATM    3  C10 UNL     1      10.529   2.549   0.124  1.00  0.00     0.180 C 
BRANCH   3   4
HETATM    4  C9  UNL     1      11.884   2.559  -0.450  1.00  0.00     0.154 C 
BRANCH   4   5
HETATM    5  C7  UNL     1      11.925   2.706  -1.976  1.00  0.00     0.031 C 
HETATM    6  C8  UNL     1      12.370   4.178  -2.232  1.00  0.00     0.014 C 
BRANCH   5   7
HETATM    7  C6  UNL     1      10.636   2.500  -2.675  1.00  0.00     0.129 C 
BRANCH   7   8
HETATM    8  N2  UNL     1      10.178   3.790  -3.239  1.00  0.00    -0.359 N 
HETATM    9  C5  UNL     1       8.956   4.360  -2.841  1.00  0.00     0.240 C 
HETATM   10  O2  UNL     1       8.243   3.754  -1.989  1.00  0.00    -0.271 OA
ATOM     11  H2  UNL     1      10.758   4.272  -3.926  1.00  0.00     0.162 HD
BRANCH   9  12
HETATM   12  C3  UNL     1       8.533   5.651  -3.428  1.00  0.00     0.172 C 
HETATM   13  C4  UNL     1       7.744   6.452  -2.385  1.00  0.00     0.042 C 
BRANCH  12  14
HETATM   14  N1  UNL     1       9.652   6.430  -3.899  1.00  0.00    -0.349 N 
HETATM   15  C2  UNL     1       9.704   6.809  -5.264  1.00  0.00     0.214 C 
HETATM   16  C1  UNL     1      10.855   7.616  -5.772  1.00  0.00     0.117 C 
HETATM   17  O1  UNL     1       8.809   6.490  -6.086  1.00  0.00    -0.274 OA
ATOM     18  H1  UNL     1      10.396   6.705  -3.258  1.00  0.00     0.163 HD
ENDBRANCH  12  14
ENDBRANCH   9  12
ENDBRANCH   7   8
ENDBRANCH   5   7
ENDBRANCH   4   5
BRANCH   4  19
HETATM   19  O3  UNL     1      12.593   1.361  -0.148  1.00  0.00    -0.392 OA
ATOM     20  H3  UNL     1      12.999   1.499   0.700  1.00  0.00     0.210 HD
ENDBRANCH   4  19
ENDBRANCH   3   4
BRANCH   3  21
HETATM   21  O4  UNL     1      10.218   3.866   0.569  1.00  0.00    -0.390 OA
ATOM     22  H4  UNL     1       9.396   3.837   1.045  1.00  0.00     0.210 HD
ENDBRANCH   3  21
ENDBRANCH   2   3
BRANCH   2  23
HETATM   23  O5  UNL     1       9.514   2.433   2.203  1.00  0.00    -0.388 OA
ATOM     24  H5  UNL     1       9.870   2.244   3.063  1.00  0.00     0.210 HD
ENDBRANCH   2  23
ENDBRANCH   1   2
BRANCH   1  25
HETATM   25  O6  UNL     1      10.247  -0.585   0.444  1.00  0.00    -0.372 OA
ATOM     26  H6  UNL     1       9.699  -1.297   0.134  1.00  0.00     0.212 HD
ENDBRANCH   1  25
BRANCH   1  27
HETATM   27  N3  UNL     1       8.341   0.757   0.208  1.00  0.00    -0.255 N 
HETATM   28  C13 UNL     1       8.051   0.163  -0.956  1.00  0.00     0.143 A 
HETATM   29  C14 UNL     1       6.905   0.752  -1.431  1.00  0.00     0.063 A 
HETATM   30  N8  UNL     1       6.557   1.678  -0.525  1.00  0.00    -0.287 N 
HETATM   31  N9  UNL     1       7.426   1.676   0.462  1.00  0.00    -0.238 N 
ATOM     32  H8  UNL     1       5.743   2.289  -0.591  1.00  0.00     0.188 HD
ATOM     33  H9  UNL     1       7.399   2.281   1.283  1.00  0.00     0.208 HD
BRANCH  29  34
HETATM   34  C15 UNL     1       6.163   0.476  -2.663  1.00  0.00     0.207 C 
BRANCH  34  35
HETATM   35  N4  UNL     1       6.565   1.276  -3.778  1.00  0.00    -0.186 N 
HETATM   36  C16 UNL     1       7.739   1.034  -4.388  1.00  0.00     0.115 A 
HETATM   37  C17 UNL     1       8.167   1.787  -5.474  1.00  0.00     0.092 A 
HETATM   38  C18 UNL     1       7.378   2.818  -5.952  1.00  0.00     0.260 A 
HETATM   39  O7  UNL     1       7.743   3.529  -6.948  1.00  0.00    -0.268 OA
HETATM   40  N5  UNL     1       6.211   3.031  -5.317  1.00  0.00    -0.154 N 
HETATM   41  C19 UNL     1       5.819   2.290  -4.271  1.00  0.00     0.701 A 
ATOM     42  H5  UNL     1       5.602   3.782  -5.643  1.00  0.00     0.187 HD
BRANCH  41  43
HETATM   43  N6  UNL     1       4.701   2.522  -3.692  1.00  0.00    -0.138 N 
ATOM     44  H6  UNL     1       4.612   2.384  -2.686  1.00  0.00     0.205 HD
BRANCH  43  45
HETATM   45  N7  UNL     1       3.605   2.964  -4.433  1.00  0.00    -0.331 N 
ATOM     46  H72 UNL     1       3.563   2.749  -5.429  1.00  0.00     0.177 HD
ATOM     47  H71 UNL     1       2.859   3.493  -3.981  1.00  0.00     0.177 HD
ENDBRANCH  43  45
ENDBRANCH  41  43
ENDBRANCH  34  35
ENDBRANCH  29  34
ENDBRANCH   1  27
TORSDOF 17
ENDMDL
MODEL 4
REMARK VINA RESULT: -7.156040207      1.425      1.801
REMARK  17 active torsions:
REMARK  status: ('A' for Active; 'I' for Inactive)
REMARK       I    between atoms: C2_2  and  N1_4 
REMARK    1  A    between atoms: N1_4  and  C3_6 
REMARK    2  A    between atoms: C3_6  and  C5_8 
REMARK       I    between atoms: C5_8  and  N2_10 
REMARK    3  A    between atoms: N2_10  and  C6_12 
REMARK    4  A    between atoms: C6_12  and  C7_13 
REMARK    5  A    between atoms: C7_13  and  C9_15 
REMARK    6  A    between atoms: C9_15  and  O3_16 
REMARK    7  A    between atoms: C9_15  and  C10_18 
REMARK    8  A    between atoms: C10_18  and  O4_19 
REMARK    9  A    between atoms: C10_18  and  C11_21 
REMARK   10  A    between atoms: C11_21  and  O5_22 
REMARK   11  A    between atoms: C11_21  and  C12_24 
REMARK   12  A    between atoms: C12_24  and  O6_25 
REMARK   13  A    between atoms: C12_24  and  N3_27 
REMARK   14  A    between atoms: C14_29  and  C15_30 
REMARK   15  A    between atoms: C15_30  and  N4_31 
REMARK   16  A    between atoms: C19_38  and  N6_39 
REMARK   17  A    between atoms: N6_39  and  N7_41 
ROOT
HETATM    1  C12 UNL     1       7.234  -0.493  -2.428  1.00  0.00     0.273 C 
ENDROOT
BRANCH   1   2
HETATM    2  C11 UNL     1       8.527   0.017  -1.878  1.00  0.00     0.199 C 
BRANCH   2   3
HETATM    3  C10 UNL     1       8.758  -0.287  -0.407  1.00  0.00     0.180 C 
BRANCH   3   4
HETATM    4  C9  UNL     1       8.278   0.725   0.548  1.00  0.00     0.154 C 
BRANCH   4   5
HETATM    5  C7  UNL     1       8.692   2.163   0.207  1.00  0.00     0.031 C 
HETATM    6  C8  UNL     1       9.546   2.639   1.421  1.00  0.00     0.014 C 
BRANCH   5   7
HETATM    7  C6  UNL     1       7.580   3.126   0.036  1.00  0.00     0.129 C 
BRANCH   7   8
HETATM    8  N2  UNL     1       8.107   4.373  -0.561  1.00  0.00    -0.359 N 
HETATM    9  C5  UNL     1       8.288   4.490  -1.951  1.00  0.00     0.240 C 
HETATM   10  O2  UNL     1       7.994   3.508  -2.694  1.00  0.00    -0.271 OA
ATOM     11  H2  UNL     1       8.343   5.160   0.044  1.00  0.00     0.162 HD
BRANCH   9  12
HETATM   12  C3  UNL     1       8.817   5.754  -2.510  1.00  0.00     0.172 C 
HETATM   13  C4  UNL     1       7.668   6.752  -2.693  1.00  0.00     0.042 C 
BRANCH  12  14
HETATM   14  N1  UNL     1       9.842   6.333  -1.677  1.00  0.00    -0.349 N 
HETATM   15  C2  UNL     1      10.934   7.000  -2.288  1.00  0.00     0.214 C 
HETATM   16  C1  UNL     1      12.006   7.607  -1.442  1.00  0.00     0.117 C 
HETATM   17  O1  UNL     1      11.046   7.105  -3.535  1.00  0.00    -0.274 OA
ATOM     18  H1  UNL     1       9.781   6.265  -0.661  1.00  0.00     0.163 HD
ENDBRANCH  12  14
ENDBRANCH   9  12
ENDBRANCH   7   8
ENDBRANCH   5   7
ENDBRANCH   4   5
BRANCH   4  19
HETATM   19  O3  UNL     1       8.759   0.475   1.865  1.00  0.00    -0.392 OA
ATOM     20  H3  UNL     1       8.654  -0.457   2.013  1.00  0.00     0.210 HD
ENDBRANCH   4  19
ENDBRANCH   3   4
BRANCH   3  21
HETATM   21  O4  UNL     1      10.168  -0.421  -0.252  1.00  0.00    -0.390 OA
ATOM     22  H4  UNL     1      10.385  -1.345  -0.265  1.00  0.00     0.210 HD
ENDBRANCH   3  21
ENDBRANCH   2   3
BRANCH   2  23
HETATM   23  O5  UNL     1       9.532  -0.752  -2.540  1.00  0.00    -0.388 OA
ATOM     24  H5  UNL     1      10.323  -0.554  -2.054  1.00  0.00     0.210 HD
ENDBRANCH   2  23
ENDBRANCH   1   2
BRANCH   1  25
HETATM   25  O6  UNL     1       7.434  -1.452  -3.424  1.00  0.00    -0.372 OA
ATOM     26  H6  UNL     1       8.008  -1.136  -4.112  1.00  0.00     0.212 HD
ENDBRANCH   1  25
BRANCH   1  27
HETATM   27  N3  UNL     1       6.431   0.615  -2.968  1.00  0.00    -0.255 N 
HETATM   28  C13 UNL     1       6.283   0.888  -4.271  1.00  0.00     0.143 A 
HETATM   29  C14 UNL     1       5.466   1.987  -4.359  1.00  0.00     0.063 A 
HETATM   30  N8  UNL     1       5.158   2.327  -3.099  1.00  0.00    -0.287 N 
HETATM   31  N9  UNL     1       5.742   1.496  -2.264  1.00  0.00    -0.238 N 
ATOM     32  H8  UNL     1       4.562   3.109  -2.829  1.00  0.00     0.188 HD
ATOM     33  H9  UNL     1       5.675   1.526  -1.246  1.00  0.00     0.208 HD
BRANCH  29  34
HETATM   34  C15 UNL     1       4.989   2.694  -5.550  1.00  0.00     0.207 C 
BRANCH  34  35
HETATM   35  N4  UNL     1       3.681   2.304  -5.975  1.00  0.00    -0.186 N 
HETATM   36  C16 UNL     1       3.498   1.111  -6.570  1.00  0.00     0.115 A 
HETATM   37  C17 UNL     1       2.243   0.692  -6.997  1.00  0.00     0.092 A 
HETATM   38  C18 UNL     1       1.144   1.512  -6.815  1.00  0.00     0.260 A 
HETATM   39  O7  UNL     1      -0.022   1.157  -7.197  1.00  0.00    -0.268 OA
HETATM   40  N5  UNL     1       1.366   2.697  -6.217  1.00  0.00    -0.154 N 
HETATM   41  C19 UNL     1       2.585   3.079  -5.813  1.00  0.00     0.701 A 
ATOM     42  H5  UNL     1       0.578   3.327  -6.066  1.00  0.00     0.187 HD
BRANCH  41  43
HETATM   43  N6  UNL     1       2.757   4.214  -5.247  1.00  0.00    -0.138 N 
ATOM     44  H6  UNL     1       3.664   4.676  -5.300  1.00  0.00     0.205 HD
BRANCH  43  45
HETATM   45  N7  UNL     1       1.707   4.822  -4.559  1.00  0.00    -0.331 N 
ATOM     46  H72 UNL     1       1.098   4.245  -3.978  1.00  0.00     0.177 HD
ATOM     47  H71 UNL     1       1.555   5.827  -4.637  1.00  0.00     0.177 HD
ENDBRANCH  43  45
ENDBRANCH  41  43
ENDBRANCH  34  35
ENDBRANCH  29  34
ENDBRANCH   1  27
TORSDOF 17
ENDMDL
MODEL 5
REMARK VINA RESULT: -7.141341604      2.895      4.265
REMARK  17 active torsions:
REMARK  status: ('A' for Active; 'I' for Inactive)
REMARK       I    between atoms: C2_2  and  N1_4 
REMARK    1  A    between atoms: N1_4  and  C3_6 
REMARK    2  A    between atoms: C3_6  and  C5_8 
REMARK       I    between atoms: C5_8  and  N2_10 
REMARK    3  A    between atoms: N2_10  and  C6_12 
REMARK    4  A    between atoms: C6_12  and  C7_13 
REMARK    5  A    between atoms: C7_13  and  C9_15 
REMARK    6  A    between atoms: C9_15  and  O3_16 
REMARK    7  A    between atoms: C9_15  and  C10_18 
REMARK    8  A    between atoms: C10_18  and  O4_19 
REMARK    9  A    between atoms: C10_18  and  C11_21 
REMARK   10  A    between atoms: C11_21  and  O5_22 
REMARK   11  A    between atoms: C11_21  and  C12_24 
REMARK   12  A    between atoms: C12_24  and  O6_25 
REMARK   13  A    between atoms: C12_24  and  N3_27 
REMARK   14  A    between atoms: C14_29  and  C15_30 
REMARK   15  A    between atoms: C15_30  and  N4_31 
REMARK   16  A    between atoms: C19_38  and  N6_39 
REMARK   17  A    between atoms: N6_39  and  N7_41 
ROOT
HETATM    1  C12 UNL     1       8.515   0.699   0.982  1.00  0.00     0.273 C 
ENDROOT
BRANCH   1   2
HETATM    2  C11 UNL     1       9.763   1.468   1.278  1.00  0.00     0.199 C 
BRANCH   2   3
HETATM    3  C10 UNL     1       9.709   2.939   0.905  1.00  0.00     0.180 C 
BRANCH   3   4
HETATM    4  C9  UNL     1      10.994   3.567   0.556  1.00  0.00     0.154 C 
BRANCH   4   5
HETATM    5  C7  UNL     1      11.530   3.185  -0.830  1.00  0.00     0.031 C 
HETATM    6  C8  UNL     1      12.289   4.449  -1.335  1.00  0.00     0.014 C 
BRANCH   5   7
HETATM    7  C6  UNL     1      10.506   2.843  -1.842  1.00  0.00     0.129 C 
BRANCH   7   8
HETATM    8  N2  UNL     1      10.034   4.085  -2.494  1.00  0.00    -0.359 N 
HETATM    9  C5  UNL     1       8.661   4.365  -2.612  1.00  0.00     0.240 C 
HETATM   10  O2  UNL     1       7.824   3.535  -2.151  1.00  0.00    -0.271 OA
ATOM     11  H2  UNL     1      10.715   4.748  -2.864  1.00  0.00     0.162 HD
BRANCH   9  12
HETATM   12  C3  UNL     1       8.230   5.617  -3.270  1.00  0.00     0.172 C 
HETATM   13  C4  UNL     1       7.733   6.607  -2.210  1.00  0.00     0.042 C 
BRANCH  12  14
HETATM   14  N1  UNL     1       9.287   6.219  -4.045  1.00  0.00    -0.349 N 
HETATM   15  C2  UNL     1       9.298   6.044  -5.452  1.00  0.00     0.214 C 
HETATM   16  C1  UNL     1      10.385   6.660  -6.273  1.00  0.00     0.117 C 
HETATM   17  O1  UNL     1       8.418   5.380  -6.055  1.00  0.00    -0.274 OA
ATOM     18  H1  UNL     1      10.017   6.765  -3.587  1.00  0.00     0.163 HD
ENDBRANCH  12  14
ENDBRANCH   9  12
ENDBRANCH   7   8
ENDBRANCH   5   7
ENDBRANCH   4   5
BRANCH   4  19
HETATM   19  O3  UNL     1      12.018   3.225   1.486  1.00  0.00    -0.392 OA
ATOM     20  H3  UNL     1      12.265   4.035   1.917  1.00  0.00     0.210 HD
ENDBRANCH   4  19
ENDBRANCH   3   4
BRANCH   3  21
HETATM   21  O4  UNL     1       9.174   3.610   2.042  1.00  0.00    -0.390 OA
ATOM     22  H4  UNL     1       8.951   4.499   1.789  1.00  0.00     0.210 HD
ENDBRANCH   3  21
ENDBRANCH   2   3
BRANCH   2  23
HETATM   23  O5  UNL     1       9.848   1.486   2.704  1.00  0.00    -0.388 OA
ATOM     24  H5  UNL     1      10.113   0.601   2.924  1.00  0.00     0.210 HD
ENDBRANCH   2  23
ENDBRANCH   1   2
BRANCH   1  25
HETATM   25  O6  UNL     1       8.317  -0.345   1.890  1.00  0.00    -0.372 OA
ATOM     26  H6  UNL     1       7.463  -0.747   1.787  1.00  0.00     0.212 HD
ENDBRANCH   1  25
BRANCH   1  27
HETATM   27  N3  UNL     1       8.554   0.160  -0.386  1.00  0.00    -0.255 N 
HETATM   28  C13 UNL     1       7.589   0.325  -1.299  1.00  0.00     0.143 A 
HETATM   29  C14 UNL     1       8.001  -0.323  -2.437  1.00  0.00     0.063 A 
HETATM   30  N8  UNL     1       9.200  -0.852  -2.154  1.00  0.00    -0.287 N 
HETATM   31  N9  UNL     1       9.530  -0.557  -0.915  1.00  0.00    -0.238 N 
ATOM     32  H8  UNL     1       9.770  -1.398  -2.800  1.00  0.00     0.188 HD
ATOM     33  H9  UNL     1      10.391  -0.834  -0.444  1.00  0.00     0.208 HD
BRANCH  29  34
HETATM   34  C15 UNL     1       7.321  -0.452  -3.728  1.00  0.00     0.207 C 
BRANCH  34  35
HETATM   35  N4  UNL     1       6.763   0.770  -4.218  1.00  0.00    -0.186 N 
HETATM   36  C16 UNL     1       5.458   1.035  -4.027  1.00  0.00     0.115 A 
HETATM   37  C17 UNL     1       4.876   2.212  -4.486  1.00  0.00     0.092 A 
HETATM   38  C18 UNL     1       5.645   3.143  -5.159  1.00  0.00     0.260 A 
HETATM   39  O7  UNL     1       5.141   4.234  -5.594  1.00  0.00    -0.268 OA
HETATM   40  N5  UNL     1       6.946   2.845  -5.331  1.00  0.00    -0.154 N 
HETATM   41  C19 UNL     1       7.484   1.704  -4.879  1.00  0.00     0.701 A 
ATOM     42  H5  UNL     1       7.544   3.509  -5.822  1.00  0.00     0.187 HD
BRANCH  41  43
HETATM   43  N6  UNL     1       8.726   1.454  -5.061  1.00  0.00    -0.138 N 
ATOM     44  H6  UNL     1       9.107   0.547  -4.790  1.00  0.00     0.205 HD
BRANCH  43  45
HETATM   45  N7  UNL     1       9.561   2.417  -5.629  1.00  0.00    -0.331 N 
ATOM     46  H72 UNL     1       9.881   3.194  -5.051  1.00  0.00     0.177 HD
ATOM     47  H71 UNL     1       9.844   2.340  -6.606  1.00  0.00     0.177 HD
ENDBRANCH  43  45
ENDBRANCH  41  43
ENDBRANCH  34  35
ENDBRANCH  29  34
ENDBRANCH   1  27
TORSDOF 17
ENDMDL
