MODEL 1
REMARK VINA RESULT: -7.180095273      0.000      0.000
REMARK  5 active torsions:
REMARK  status: ('A' for Active; 'I' for Inactive)
REMARK    1  A    between atoms: N1_1  and  C1_4 
REMARK    2  A    between atoms: C2_7  and  N3_8 
REMARK    3  A    between atoms: N3_8  and  O1_10 
REMARK    4  A    between atoms: O1_10  and  C3_11 
REMARK    5  A    between atoms: C3_11  and  C4_12 
ROOT
HETATM    1  C1  UNL     1      -7.023   5.731   1.582  1.00  0.00     0.693 A 
HETATM    2  N2  UNL     1      -6.907   4.952   0.473  1.00  0.00    -0.021 N 
ATOM      3  H2  UNL     1      -7.356   5.326  -0.363  1.00  0.00     0.203 HD
HETATM    4  C2  UNL     1      -6.299   3.769   0.303  1.00  0.00     0.718 A 
HETATM    5  N7  UNL     1      -5.614   3.025   1.181  1.00  0.00    -0.169 N 
ATOM      6  H7  UNL     1      -5.198   2.162   0.830  1.00  0.00     0.186 HD
HETATM    7  C6  UNL     1      -5.421   3.313   2.498  1.00  0.00     0.184 A 
HETATM    8  N8  UNL     1      -4.767   2.437   3.147  1.00  0.00    -0.381 N 
ATOM      9  H81 UNL     1      -4.622   2.653   4.133  1.00  0.00     0.157 HD
ATOM     10  H82 UNL     1      -4.469   1.629   2.600  1.00  0.00     0.157 HD
HETATM   11  C7  UNL     1      -5.822   4.402   3.235  1.00  0.00     0.303 A 
HETATM   12  O2  UNL     1      -5.497   4.414   4.445  1.00  0.00    -0.263 OA
HETATM   13  N9  UNL     1      -6.528   5.453   2.783  1.00  0.00    -0.153 N 
ATOM     14  H9  UNL     1      -6.718   6.165   3.489  1.00  0.00     0.187 HD
ENDROOT
BRANCH   4  15
HETATM   15  N3  UNL     1      -6.384   3.274  -0.879  1.00  0.00    -0.095 N 
ATOM     16  H3  UNL     1      -6.178   3.848  -1.696  1.00  0.00     0.213 HD
BRANCH  15  17
HETATM   17  O1  UNL     1      -6.756   1.963  -1.029  1.00  0.00    -0.260 OA
BRANCH  17  18
HETATM   18  C3  UNL     1      -8.135   1.652  -1.141  1.00  0.00     0.262 C 
BRANCH  18  19
HETATM   19  C4  UNL     1      -8.560   1.056   0.159  1.00  0.00     0.070 A 
HETATM   20  C5  UNL     1      -9.836   1.059   0.701  1.00  0.00     0.137 A 
HETATM   21  N4  UNL     1      -9.811   0.417   1.894  1.00  0.00    -0.296 N 
HETATM   22  N5  UNL     1      -8.567   0.034   2.077  1.00  0.00    -0.243 N 
ATOM     23  H4  UNL     1     -10.599   0.261   2.523  1.00  0.00     0.187 HD
HETATM   24  N6  UNL     1      -7.804   0.401   1.062  1.00  0.00    -0.287 N 
ATOM     25  H5  UNL     1      -8.235  -0.479   2.894  1.00  0.00     0.208 HD
ATOM     26  H6  UNL     1      -6.804   0.218   0.976  1.00  0.00     0.188 HD
ENDBRANCH  18  19
ENDBRANCH  17  18
ENDBRANCH  15  17
ENDBRANCH   4  15
BRANCH   1  27
HETATM   27  N1  UNL     1      -7.660   6.831   1.477  1.00  0.00    -0.234 N 
ATOM     28  H12 UNL     1      -8.121   7.001   0.583  1.00  0.00     0.174 HD
ATOM     29  H11 UNL     1      -7.667   7.459   2.281  1.00  0.00     0.174 HD
ENDBRANCH   1  27
TORSDOF 5
ENDMDL
MODEL 2
REMARK VINA RESULT: -7.041745435      0.737      2.365
REMARK  5 active torsions:
REMARK  status: ('A' for Active; 'I' for Inactive)
REMARK    1  A    between atoms: N1_1  and  C1_4 
REMARK    2  A    between atoms: C2_7  and  N3_8 
REMARK    3  A    between atoms: N3_8  and  O1_10 
REMARK    4  A    between atoms: O1_10  and  C3_11 
REMARK    5  A    between atoms: C3_11  and  C4_12 
ROOT
HETATM    1  C1  UNL     1      -5.436   3.285   2.542  1.00  0.00     0.693 A 
HETATM    2  N2  UNL     1      -5.634   3.087   1.211  1.00  0.00    -0.021 N 
ATOM      3  H2  UNL     1      -5.163   2.269   0.824  1.00  0.00     0.203 HD
HETATM    4  C2  UNL     1      -6.349   3.796   0.325  1.00  0.00     0.718 A 
HETATM    5  N7  UNL     1      -7.088   4.896   0.507  1.00  0.00    -0.169 N 
ATOM      6  H7  UNL     1      -7.585   5.260  -0.307  1.00  0.00     0.186 HD
HETATM    7  C6  UNL     1      -7.240   5.577   1.677  1.00  0.00     0.184 A 
HETATM    8  N8  UNL     1      -7.963   6.620   1.601  1.00  0.00    -0.381 N 
ATOM      9  H81 UNL     1      -8.076   7.129   2.477  1.00  0.00     0.157 HD
ATOM     10  H82 UNL     1      -8.339   6.816   0.674  1.00  0.00     0.157 HD
HETATM   11  C7  UNL     1      -6.732   5.312   2.928  1.00  0.00     0.303 A 
HETATM   12  O2  UNL     1      -7.042   6.112   3.842  1.00  0.00    -0.263 OA
HETATM   13  N9  UNL     1      -5.940   4.280   3.263  1.00  0.00    -0.153 N 
ATOM     14  H9  UNL     1      -5.678   4.256   4.249  1.00  0.00     0.187 HD
ENDROOT
BRANCH   4  15
HETATM   15  N3  UNL     1      -6.323   3.352  -0.881  1.00  0.00    -0.095 N 
ATOM     16  H3  UNL     1      -6.017   3.953  -1.646  1.00  0.00     0.213 HD
BRANCH  15  17
HETATM   17  O1  UNL     1      -6.710   2.061  -1.126  1.00  0.00    -0.260 OA
BRANCH  17  18
HETATM   18  C3  UNL     1      -8.093   1.771  -1.239  1.00  0.00     0.262 C 
BRANCH  18  19
HETATM   19  C4  UNL     1      -8.520   1.143   0.045  1.00  0.00     0.070 A 
HETATM   20  C5  UNL     1      -9.795   1.142   0.590  1.00  0.00     0.137 A 
HETATM   21  N4  UNL     1      -9.773   0.467   1.764  1.00  0.00    -0.296 N 
HETATM   22  N5  UNL     1      -8.532   0.069   1.935  1.00  0.00    -0.243 N 
ATOM     23  H4  UNL     1     -10.561   0.301   2.391  1.00  0.00     0.187 HD
HETATM   24  N6  UNL     1      -7.768   0.457   0.928  1.00  0.00    -0.287 N 
ATOM     25  H5  UNL     1      -8.202  -0.469   2.736  1.00  0.00     0.208 HD
ATOM     26  H6  UNL     1      -6.770   0.268   0.834  1.00  0.00     0.188 HD
ENDBRANCH  18  19
ENDBRANCH  17  18
ENDBRANCH  15  17
ENDBRANCH   4  15
BRANCH   1  27
HETATM   27  N1  UNL     1      -4.703   2.451   3.169  1.00  0.00    -0.234 N 
ATOM     28  H12 UNL     1      -3.712   2.685   3.237  1.00  0.00     0.174 HD
ATOM     29  H11 UNL     1      -5.148   1.618   3.555  1.00  0.00     0.174 HD
ENDBRANCH   1  27
TORSDOF 5
ENDMDL
MODEL 3
REMARK VINA RESULT: -6.761802012      1.926      2.265
REMARK  5 active torsions:
REMARK  status: ('A' for Active; 'I' for Inactive)
REMARK    1  A    between atoms: N1_1  and  C1_4 
REMARK    2  A    between atoms: C2_7  and  N3_8 
REMARK    3  A    between atoms: N3_8  and  O1_10 
REMARK    4  A    between atoms: O1_10  and  C3_11 
REMARK    5  A    between atoms: C3_11  and  C4_12 
ROOT
HETATM    1  C1  UNL     1      -6.957   5.649   1.648  1.00  0.00     0.693 A 
HETATM    2  N2  UNL     1      -6.852   4.874   0.534  1.00  0.00    -0.021 N 
ATOM      3  H2  UNL     1      -7.275   5.271  -0.305  1.00  0.00     0.203 HD
HETATM    4  C2  UNL     1      -6.283   3.672   0.363  1.00  0.00     0.718 A 
HETATM    5  N7  UNL     1      -5.638   2.898   1.244  1.00  0.00    -0.169 N 
ATOM      6  H7  UNL     1      -5.247   2.023   0.893  1.00  0.00     0.186 HD
HETATM    7  C6  UNL     1      -5.455   3.168   2.567  1.00  0.00     0.184 A 
HETATM    8  N8  UNL     1      -4.842   2.265   3.219  1.00  0.00    -0.381 N 
ATOM      9  H81 UNL     1      -4.705   2.467   4.209  1.00  0.00     0.157 HD
ATOM     10  H82 UNL     1      -4.564   1.451   2.669  1.00  0.00     0.157 HD
HETATM   11  C7  UNL     1      -5.830   4.265   3.307  1.00  0.00     0.303 A 
HETATM   12  O2  UNL     1      -5.522   4.256   4.522  1.00  0.00    -0.263 OA
HETATM   13  N9  UNL     1      -6.491   5.344   2.854  1.00  0.00    -0.153 N 
ATOM     14  H9  UNL     1      -6.666   6.056   3.563  1.00  0.00     0.187 HD
ENDROOT
BRANCH   4  15
HETATM   15  N3  UNL     1      -6.368   3.190  -0.824  1.00  0.00    -0.095 N 
ATOM     16  H3  UNL     1      -5.537   2.835  -1.299  1.00  0.00     0.213 HD
BRANCH  15  17
HETATM   17  O1  UNL     1      -7.588   3.158  -1.447  1.00  0.00    -0.260 OA
BRANCH  17  18
HETATM   18  C3  UNL     1      -8.547   2.203  -1.022  1.00  0.00     0.262 C 
BRANCH  18  19
HETATM   19  C4  UNL     1      -9.844   2.923  -0.860  1.00  0.00     0.070 A 
HETATM   20  C5  UNL     1     -11.117   2.382  -0.965  1.00  0.00     0.137 A 
HETATM   21  N4  UNL     1     -12.031   3.359  -0.751  1.00  0.00    -0.296 N 
HETATM   22  N5  UNL     1     -11.346   4.458  -0.525  1.00  0.00    -0.243 N 
ATOM     23  H4  UNL     1     -13.046   3.262  -0.764  1.00  0.00     0.187 HD
HETATM   24  N6  UNL     1     -10.045   4.226  -0.584  1.00  0.00    -0.287 N 
ATOM     25  H5  UNL     1     -11.762   5.369  -0.330  1.00  0.00     0.208 HD
ATOM     26  H6  UNL     1      -9.313   4.922  -0.443  1.00  0.00     0.188 HD
ENDBRANCH  18  19
ENDBRANCH  17  18
ENDBRANCH  15  17
ENDBRANCH   4  15
BRANCH   1  27
HETATM   27  N1  UNL     1      -7.553   6.771   1.543  1.00  0.00    -0.234 N 
ATOM     28  H12 UNL     1      -8.061   6.931   0.672  1.00  0.00     0.174 HD
ATOM     29  H11 UNL     1      -7.486   7.424   2.324  1.00  0.00     0.174 HD
ENDBRANCH   1  27
TORSDOF 5
ENDMDL
MODEL 4
REMARK VINA RESULT: -6.656743175      2.019      3.240
REMARK  5 active torsions:
REMARK  status: ('A' for Active; 'I' for Inactive)
REMARK    1  A    between atoms: N1_1  and  C1_4 
REMARK    2  A    between atoms: C2_7  and  N3_8 
REMARK    3  A    between atoms: N3_8  and  O1_10 
REMARK    4  A    between atoms: O1_10  and  C3_11 
REMARK    5  A    between atoms: C3_11  and  C4_12 
ROOT
HETATM    1  C1  UNL     1      -5.430   3.109   2.550  1.00  0.00     0.693 A 
HETATM    2  N2  UNL     1      -5.646   2.945   1.217  1.00  0.00    -0.021 N 
ATOM      3  H2  UNL     1      -5.240   2.098   0.818  1.00  0.00     0.203 HD
HETATM    4  C2  UNL     1      -6.309   3.717   0.343  1.00  0.00     0.718 A 
HETATM    5  N7  UNL     1      -6.962   4.869   0.543  1.00  0.00    -0.169 N 
ATOM      6  H7  UNL     1      -7.432   5.280  -0.263  1.00  0.00     0.186 HD
HETATM    7  C6  UNL     1      -7.057   5.542   1.723  1.00  0.00     0.184 A 
HETATM    8  N8  UNL     1      -7.700   6.638   1.664  1.00  0.00    -0.381 N 
ATOM      9  H81 UNL     1      -7.772   7.142   2.548  1.00  0.00     0.157 HD
ATOM     10  H82 UNL     1      -8.063   6.874   0.741  1.00  0.00     0.157 HD
HETATM   11  C7  UNL     1      -6.568   5.223   2.968  1.00  0.00     0.303 A 
HETATM   12  O2  UNL     1      -6.813   6.031   3.894  1.00  0.00    -0.263 OA
HETATM   13  N9  UNL     1      -5.855   4.129   3.287  1.00  0.00    -0.153 N 
ATOM     14  H9  UNL     1      -5.593   4.072   4.271  1.00  0.00     0.187 HD
ENDROOT
BRANCH   4  15
HETATM   15  N3  UNL     1      -6.319   3.290  -0.868  1.00  0.00    -0.095 N 
ATOM     16  H3  UNL     1      -5.445   3.087  -1.352  1.00  0.00     0.213 HD
BRANCH  15  17
HETATM   17  O1  UNL     1      -7.521   3.109  -1.502  1.00  0.00    -0.260 OA
BRANCH  17  18
HETATM   18  C3  UNL     1      -8.440   2.170  -0.969  1.00  0.00     0.262 C 
BRANCH  18  19
HETATM   19  C4  UNL     1      -9.760   2.856  -0.862  1.00  0.00     0.070 A 
HETATM   20  C5  UNL     1     -11.014   2.279  -0.992  1.00  0.00     0.137 A 
HETATM   21  N4  UNL     1     -11.960   3.235  -0.828  1.00  0.00    -0.296 N 
HETATM   22  N5  UNL     1     -11.312   4.357  -0.605  1.00  0.00    -0.243 N 
ATOM     23  H4  UNL     1     -12.972   3.110  -0.868  1.00  0.00     0.187 HD
HETATM   24  N6  UNL     1     -10.005   4.159  -0.620  1.00  0.00    -0.287 N 
ATOM     25  H5  UNL     1     -11.758   5.259  -0.441  1.00  0.00     0.208 HD
ATOM     26  H6  UNL     1      -9.296   4.877  -0.472  1.00  0.00     0.188 HD
ENDBRANCH  18  19
ENDBRANCH  17  18
ENDBRANCH  15  17
ENDBRANCH   4  15
BRANCH   1  27
HETATM   27  N1  UNL     1      -4.760   2.213   3.163  1.00  0.00    -0.234 N 
ATOM     28  H12 UNL     1      -3.763   2.172   2.951  1.00  0.00     0.174 HD
ATOM     29  H11 UNL     1      -5.258   1.606   3.814  1.00  0.00     0.174 HD
ENDBRANCH   1  27
TORSDOF 5
ENDMDL
MODEL 5
REMARK VINA RESULT: -6.553749826      1.076      1.076
REMARK  5 active torsions:
REMARK  status: ('A' for Active; 'I' for Inactive)
REMARK    1  A    between atoms: N1_1  and  C1_4 
REMARK    2  A    between atoms: C2_7  and  N3_8 
REMARK    3  A    between atoms: N3_8  and  O1_10 
REMARK    4  A    between atoms: O1_10  and  C3_11 
REMARK    5  A    between atoms: C3_11  and  C4_12 
ROOT
HETATM    1  C1  UNL     1      -8.614   5.150   1.593  1.00  0.00     0.693 A 
HETATM    2  N2  UNL     1      -8.203   4.507   0.466  1.00  0.00    -0.021 N 
ATOM      3  H2  UNL     1      -8.862   4.541  -0.311  1.00  0.00     0.203 HD
HETATM    4  C2  UNL     1      -7.070   3.835   0.215  1.00  0.00     0.718 A 
HETATM    5  N7  UNL     1      -6.010   3.620   1.003  1.00  0.00    -0.169 N 
ATOM      6  H7  UNL     1      -5.229   3.104   0.598  1.00  0.00     0.186 HD
HETATM    7  C6  UNL     1      -5.876   4.027   2.297  1.00  0.00     0.184 A 
HETATM    8  N8  UNL     1      -4.792   3.674   2.860  1.00  0.00    -0.381 N 
ATOM      9  H81 UNL     1      -4.692   3.978   3.828  1.00  0.00     0.157 HD
ATOM     10  H82 UNL     1      -4.159   3.132   2.272  1.00  0.00     0.157 HD
HETATM   11  C7  UNL     1      -6.730   4.758   3.089  1.00  0.00     0.303 A 
HETATM   12  O2  UNL     1      -6.347   4.999   4.257  1.00  0.00    -0.263 OA
HETATM   13  N9  UNL     1      -7.933   5.238   2.730  1.00  0.00    -0.153 N 
ATOM     14  H9  UNL     1      -8.409   5.766   3.462  1.00  0.00     0.187 HD
ENDROOT
BRANCH   4  15
HETATM   15  N3  UNL     1      -6.988   3.319  -0.959  1.00  0.00    -0.095 N 
ATOM     16  H3  UNL     1      -7.097   3.903  -1.788  1.00  0.00     0.213 HD
BRANCH  15  17
HETATM   17  O1  UNL     1      -6.752   1.975  -1.083  1.00  0.00    -0.260 OA
BRANCH  17  18
HETATM   18  C3  UNL     1      -7.857   1.088  -1.123  1.00  0.00     0.262 C 
BRANCH  18  19
HETATM   19  C4  UNL     1      -8.156   0.689   0.283  1.00  0.00     0.070 A 
HETATM   20  C5  UNL     1      -9.407   0.479   0.843  1.00  0.00     0.137 A 
HETATM   21  N4  UNL     1      -9.255   0.130   2.144  1.00  0.00    -0.296 N 
HETATM   22  N5  UNL     1      -7.961   0.127   2.374  1.00  0.00    -0.243 N 
ATOM     23  H4  UNL     1      -9.996  -0.087   2.810  1.00  0.00     0.187 HD
HETATM   24  N6  UNL     1      -7.286   0.456   1.286  1.00  0.00    -0.287 N 
ATOM     25  H5  UNL     1      -7.535  -0.099   3.273  1.00  0.00     0.208 HD
ATOM     26  H6  UNL     1      -6.271   0.522   1.216  1.00  0.00     0.188 HD
ENDBRANCH  18  19
ENDBRANCH  17  18
ENDBRANCH  15  17
ENDBRANCH   4  15
BRANCH   1  27
HETATM   27  N1  UNL     1      -9.752   5.725   1.573  1.00  0.00    -0.234 N 
ATOM     28  H12 UNL     1      -9.946   6.311   0.761  1.00  0.00     0.174 HD
ATOM     29  H11 UNL     1     -10.384   5.563   2.357  1.00  0.00     0.174 HD
ENDBRANCH   1  27
TORSDOF 5
ENDMDL
