MODEL 1
REMARK VINA RESULT: -6.724192857      0.000      0.000
REMARK  9 active torsions:
REMARK  status: ('A' for Active; 'I' for Inactive)
REMARK    1  A    between atoms: C2_2  and  S1_4 
REMARK    2  A    between atoms: S1_4  and  C4_5 
REMARK    3  A    between atoms: N1_7  and  O1_9 
REMARK    4  A    between atoms: C10_15  and  C12_17 
REMARK    5  A    between atoms: C12_17  and  C13_18 
REMARK    6  A    between atoms: C13_18  and  N2_21 
REMARK    7  A    between atoms: N2_21  and  C16_23 
REMARK    8  A    between atoms: C16_23  and  C17_24 
REMARK    9  A    between atoms: C18_27  and  O3_28 
ROOT
HETATM    1  C4  UNL     1      39.451  38.026  54.183  1.00  0.00     0.104 C 
HETATM    2  C5  UNL     1      39.536  36.710  53.578  1.00  0.00     0.024 C 
HETATM    3  N1  UNL     1      39.769  36.519  52.325  1.00  0.00    -0.276 N 
ATOM      4  H1  UNL     1      39.906  37.311  51.698  1.00  0.00     0.193 HD
HETATM    5  C6  UNL     1      39.346  35.529  54.444  1.00  0.00     0.056 C 
HETATM    6  C7  UNL     1      38.060  35.880  55.184  1.00  0.00     0.016 C 
HETATM    7  C8  UNL     1      38.308  37.029  56.171  1.00  0.00    -0.025 C 
HETATM    8  C9  UNL     1      39.495  36.696  56.999  1.00  0.00     0.017 C 
HETATM    9  C10 UNL     1      37.072  37.009  57.088  1.00  0.00    -0.008 C 
HETATM   10  C11 UNL     1      36.895  38.307  57.853  1.00  0.00     0.019 C 
HETATM   11  C18 UNL     1      35.857  37.009  56.176  1.00  0.00     0.127 C 
HETATM   12  C19 UNL     1      35.896  38.166  55.209  1.00  0.00     0.033 C 
HETATM   13  C20 UNL     1      37.162  38.548  54.620  1.00  0.00     0.014 C 
HETATM   14  C21 UNL     1      38.450  38.223  55.313  1.00  0.00    -0.018 C 
HETATM   15  C22 UNL     1      39.028  39.464  56.010  1.00  0.00     0.018 C 
ENDROOT
BRANCH   9  16
HETATM   16  C12 UNL     1      37.238  35.911  58.015  1.00  0.00     0.042 C 
BRANCH  16  17
HETATM   17  C13 UNL     1      36.221  35.173  58.783  1.00  0.00     0.023 C 
HETATM   18  C14 UNL     1      37.106  34.170  59.583  1.00  0.00     0.038 C 
HETATM   19  C15 UNL     1      35.369  34.201  57.980  1.00  0.00     0.038 C 
BRANCH  17  20
HETATM   20  N2  UNL     1      35.413  35.832  59.685  1.00  0.00    -0.386 N 
ATOM     21  H2  UNL     1      35.889  36.558  60.220  1.00  0.00     0.159 HD
BRANCH  20  22
HETATM   22  C16 UNL     1      34.089  35.686  59.991  1.00  0.00     0.155 C 
BRANCH  22  23
HETATM   23  C17 UNL     1      33.130  36.763  60.092  1.00  0.00     0.269 C 
HETATM   24  N3  UNL     1      33.549  38.052  59.588  1.00  0.00    -0.057 NA
HETATM   25  O2  UNL     1      32.002  36.695  60.557  1.00  0.00    -0.270 OA
ENDBRANCH  22  23
ENDBRANCH  20  22
ENDBRANCH  17  20
ENDBRANCH  16  17
ENDBRANCH   9  16
BRANCH  11  26
HETATM   26  O3  UNL     1      34.740  37.343  56.983  1.00  0.00    -0.395 OA
ATOM     27  H3  UNL     1      34.023  36.786  56.702  1.00  0.00     0.210 HD
ENDBRANCH  11  26
BRANCH   1  28
HETATM   28  S1  UNL     1      41.119  38.667  54.624  1.00  0.00    -0.153 SA
BRANCH  28  29
HETATM   29  C2  UNL     1      41.925  39.373  53.168  1.00  0.00     0.040 C 
HETATM   30  C1  UNL     1      43.164  40.100  53.645  1.00  0.00     0.021 C 
HETATM   31  C3  UNL     1      41.042  40.402  52.487  1.00  0.00     0.021 C 
ENDBRANCH  28  29
ENDBRANCH   1  28
BRANCH   3  32
HETATM   32  O1  UNL     1      39.830  35.239  51.846  1.00  0.00    -0.290 OA
ATOM     33  H1  UNL     1      40.678  34.820  51.750  1.00  0.00     0.244 HD
ENDBRANCH   3  32
TORSDOF 9
ENDMDL
MODEL 2
REMARK VINA RESULT: -6.672348112      3.388      5.568
REMARK  9 active torsions:
REMARK  status: ('A' for Active; 'I' for Inactive)
REMARK    1  A    between atoms: C2_2  and  S1_4 
REMARK    2  A    between atoms: S1_4  and  C4_5 
REMARK    3  A    between atoms: N1_7  and  O1_9 
REMARK    4  A    between atoms: C10_15  and  C12_17 
REMARK    5  A    between atoms: C12_17  and  C13_18 
REMARK    6  A    between atoms: C13_18  and  N2_21 
REMARK    7  A    between atoms: N2_21  and  C16_23 
REMARK    8  A    between atoms: C16_23  and  C17_24 
REMARK    9  A    between atoms: C18_27  and  O3_28 
ROOT
HETATM    1  C4  UNL     1      36.768  40.803  58.888  1.00  0.00     0.104 C 
HETATM    2  C5  UNL     1      36.926  41.460  57.605  1.00  0.00     0.024 C 
HETATM    3  N1  UNL     1      36.398  42.601  57.321  1.00  0.00    -0.276 N 
ATOM      4  H1  UNL     1      35.834  43.095  58.013  1.00  0.00     0.193 HD
HETATM    5  C6  UNL     1      37.736  40.787  56.569  1.00  0.00     0.056 C 
HETATM    6  C7  UNL     1      37.148  39.380  56.570  1.00  0.00     0.016 C 
HETATM    7  C8  UNL     1      37.518  38.647  57.867  1.00  0.00    -0.025 C 
HETATM    8  C9  UNL     1      38.982  38.767  58.079  1.00  0.00     0.017 C 
HETATM    9  C10 UNL     1      37.204  37.171  57.566  1.00  0.00    -0.008 C 
HETATM   10  C11 UNL     1      37.084  36.334  58.825  1.00  0.00     0.019 C 
HETATM   11  C18 UNL     1      35.786  37.132  57.022  1.00  0.00     0.127 C 
HETATM   12  C19 UNL     1      34.817  37.794  57.969  1.00  0.00     0.033 C 
HETATM   13  C20 UNL     1      35.223  38.996  58.665  1.00  0.00     0.014 C 
HETATM   14  C21 UNL     1      36.674  39.284  58.899  1.00  0.00    -0.018 C 
HETATM   15  C22 UNL     1      37.070  38.971  60.351  1.00  0.00     0.018 C 
ENDROOT
BRANCH   9  16
HETATM   16  C12 UNL     1      38.275  36.661  56.737  1.00  0.00     0.042 C 
BRANCH  16  17
HETATM   17  C13 UNL     1      38.201  35.895  55.481  1.00  0.00     0.023 C 
HETATM   18  C14 UNL     1      39.681  35.958  54.995  1.00  0.00     0.038 C 
HETATM   19  C15 UNL     1      37.506  36.597  54.323  1.00  0.00     0.038 C 
BRANCH  17  20
HETATM   20  N2  UNL     1      37.819  34.571  55.492  1.00  0.00    -0.386 N 
ATOM     21  H2  UNL     1      38.173  34.040  56.287  1.00  0.00     0.159 HD
BRANCH  20  22
HETATM   22  C16 UNL     1      37.050  33.841  54.628  1.00  0.00     0.155 C 
BRANCH  22  23
HETATM   23  C17 UNL     1      36.055  32.866  55.013  1.00  0.00     0.269 C 
HETATM   24  N3  UNL     1      35.643  32.874  56.398  1.00  0.00    -0.057 NA
HETATM   25  O2  UNL     1      35.527  32.038  54.287  1.00  0.00    -0.270 OA
ENDBRANCH  22  23
ENDBRANCH  20  22
ENDBRANCH  17  20
ENDBRANCH  16  17
ENDBRANCH   9  16
BRANCH  11  26
HETATM   26  O3  UNL     1      35.365  35.779  57.073  1.00  0.00    -0.395 OA
ATOM     27  H3  UNL     1      35.727  35.350  56.307  1.00  0.00     0.210 HD
ENDBRANCH  11  26
BRANCH   1  28
HETATM   28  S1  UNL     1      37.995  41.424  60.111  1.00  0.00    -0.153 SA
BRANCH  28  29
HETATM   29  C2  UNL     1      39.386  42.207  59.262  1.00  0.00     0.040 C 
HETATM   30  C1  UNL     1      40.654  41.731  59.939  1.00  0.00     0.021 C 
HETATM   31  C3  UNL     1      39.348  43.717  59.405  1.00  0.00     0.021 C 
ENDBRANCH  28  29
ENDBRANCH   1  28
BRANCH   3  32
HETATM   32  O1  UNL     1      36.603  43.142  56.081  1.00  0.00    -0.290 OA
ATOM     33  H1  UNL     1      35.895  43.614  55.659  1.00  0.00     0.244 HD
ENDBRANCH   3  32
TORSDOF 9
ENDMDL
MODEL 3
REMARK VINA RESULT: -6.665408129      1.251      1.445
REMARK  9 active torsions:
REMARK  status: ('A' for Active; 'I' for Inactive)
REMARK    1  A    between atoms: C2_2  and  S1_4 
REMARK    2  A    between atoms: S1_4  and  C4_5 
REMARK    3  A    between atoms: N1_7  and  O1_9 
REMARK    4  A    between atoms: C10_15  and  C12_17 
REMARK    5  A    between atoms: C12_17  and  C13_18 
REMARK    6  A    between atoms: C13_18  and  N2_21 
REMARK    7  A    between atoms: N2_21  and  C16_23 
REMARK    8  A    between atoms: C16_23  and  C17_24 
REMARK    9  A    between atoms: C18_27  and  O3_28 
ROOT
HETATM    1  C4  UNL     1      39.409  38.011  54.199  1.00  0.00     0.104 C 
HETATM    2  C5  UNL     1      39.518  36.702  53.585  1.00  0.00     0.024 C 
HETATM    3  N1  UNL     1      39.749  36.523  52.330  1.00  0.00    -0.276 N 
ATOM      4  H1  UNL     1      39.867  37.322  51.708  1.00  0.00     0.193 HD
HETATM    5  C6  UNL     1      39.356  35.511  54.444  1.00  0.00     0.056 C 
HETATM    6  C7  UNL     1      38.066  35.831  55.192  1.00  0.00     0.016 C 
HETATM    7  C8  UNL     1      38.296  36.979  56.186  1.00  0.00    -0.025 C 
HETATM    8  C9  UNL     1      39.493  36.664  57.006  1.00  0.00     0.017 C 
HETATM    9  C10 UNL     1      37.065  36.928  57.108  1.00  0.00    -0.008 C 
HETATM   10  C11 UNL     1      36.866  38.217  57.882  1.00  0.00     0.019 C 
HETATM   11  C18 UNL     1      35.845  36.910  56.202  1.00  0.00     0.127 C 
HETATM   12  C19 UNL     1      35.857  38.073  55.243  1.00  0.00     0.033 C 
HETATM   13  C20 UNL     1      37.112  38.485  54.650  1.00  0.00     0.014 C 
HETATM   14  C21 UNL     1      38.410  38.181  55.335  1.00  0.00    -0.018 C 
HETATM   15  C22 UNL     1      38.966  39.429  56.038  1.00  0.00     0.018 C 
ENDROOT
BRANCH   9  16
HETATM   16  C12 UNL     1      37.257  35.827  58.027  1.00  0.00     0.042 C 
BRANCH  16  17
HETATM   17  C13 UNL     1      36.312  34.774  58.435  1.00  0.00     0.023 C 
HETATM   18  C14 UNL     1      37.157  33.994  59.488  1.00  0.00     0.038 C 
HETATM   19  C15 UNL     1      36.073  33.673  57.412  1.00  0.00     0.038 C 
BRANCH  17  20
HETATM   20  N2  UNL     1      35.110  35.104  59.023  1.00  0.00    -0.386 N 
ATOM     21  H2  UNL     1      34.497  35.669  58.434  1.00  0.00     0.159 HD
BRANCH  20  22
HETATM   22  C16 UNL     1      34.590  34.811  60.253  1.00  0.00     0.155 C 
BRANCH  22  23
HETATM   23  C17 UNL     1      33.901  33.589  60.601  1.00  0.00     0.269 C 
HETATM   24  N3  UNL     1      32.920  33.679  61.659  1.00  0.00    -0.057 NA
HETATM   25  O2  UNL     1      34.062  32.491  60.092  1.00  0.00    -0.270 OA
ENDBRANCH  22  23
ENDBRANCH  20  22
ENDBRANCH  17  20
ENDBRANCH  16  17
ENDBRANCH   9  16
BRANCH  11  26
HETATM   26  O3  UNL     1      34.726  37.215  57.016  1.00  0.00    -0.395 OA
ATOM     27  H3  UNL     1      34.148  37.759  56.494  1.00  0.00     0.210 HD
ENDBRANCH  11  26
BRANCH   1  28
HETATM   28  S1  UNL     1      41.067  38.683  54.637  1.00  0.00    -0.153 SA
BRANCH  28  29
HETATM   29  C2  UNL     1      41.867  39.381  53.174  1.00  0.00     0.040 C 
HETATM   30  C1  UNL     1      43.106  40.112  53.643  1.00  0.00     0.021 C 
HETATM   31  C3  UNL     1      40.981  40.404  52.489  1.00  0.00     0.021 C 
ENDBRANCH  28  29
ENDBRANCH   1  28
BRANCH   3  32
HETATM   32  O1  UNL     1      39.833  35.248  51.842  1.00  0.00    -0.290 OA
ATOM     33  H1  UNL     1      39.457  35.051  50.992  1.00  0.00     0.244 HD
ENDBRANCH   3  32
TORSDOF 9
ENDMDL
MODEL 4
REMARK VINA RESULT: -6.625794439      3.363      4.958
REMARK  9 active torsions:
REMARK  status: ('A' for Active; 'I' for Inactive)
REMARK    1  A    between atoms: C2_2  and  S1_4 
REMARK    2  A    between atoms: S1_4  and  C4_5 
REMARK    3  A    between atoms: N1_7  and  O1_9 
REMARK    4  A    between atoms: C10_15  and  C12_17 
REMARK    5  A    between atoms: C12_17  and  C13_18 
REMARK    6  A    between atoms: C13_18  and  N2_21 
REMARK    7  A    between atoms: N2_21  and  C16_23 
REMARK    8  A    between atoms: C16_23  and  C17_24 
REMARK    9  A    between atoms: C18_27  and  O3_28 
ROOT
HETATM    1  C4  UNL     1      38.911  39.715  57.578  1.00  0.00     0.104 C 
HETATM    2  C5  UNL     1      39.029  40.036  58.987  1.00  0.00     0.024 C 
HETATM    3  N1  UNL     1      40.127  40.431  59.535  1.00  0.00    -0.276 N 
ATOM      4  H1  UNL     1      40.974  40.535  58.978  1.00  0.00     0.193 HD
HETATM    5  C6  UNL     1      37.830  39.903  59.838  1.00  0.00     0.056 C 
HETATM    6  C7  UNL     1      37.334  38.507  59.475  1.00  0.00     0.016 C 
HETATM    7  C8  UNL     1      36.779  38.494  58.043  1.00  0.00    -0.025 C 
HETATM    8  C9  UNL     1      35.814  39.612  57.897  1.00  0.00     0.017 C 
HETATM    9  C10 UNL     1      35.990  37.175  57.960  1.00  0.00    -0.008 C 
HETATM   10  C11 UNL     1      35.721  36.748  56.530  1.00  0.00     0.019 C 
HETATM   11  C18 UNL     1      36.923  36.080  58.448  1.00  0.00     0.127 C 
HETATM   12  C19 UNL     1      38.219  36.079  57.677  1.00  0.00     0.033 C 
HETATM   13  C20 UNL     1      38.821  37.344  57.311  1.00  0.00     0.014 C 
HETATM   14  C21 UNL     1      37.980  38.577  57.186  1.00  0.00    -0.018 C 
HETATM   15  C22 UNL     1      37.707  38.908  55.710  1.00  0.00     0.018 C 
ENDROOT
BRANCH   9  16
HETATM   16  C12 UNL     1      34.738  37.376  58.657  1.00  0.00     0.042 C 
BRANCH  16  17
HETATM   17  C13 UNL     1      34.135  36.583  59.742  1.00  0.00     0.023 C 
HETATM   18  C14 UNL     1      32.682  37.149  59.765  1.00  0.00     0.038 C 
HETATM   19  C15 UNL     1      34.588  36.943  61.149  1.00  0.00     0.038 C 
BRANCH  17  20
HETATM   20  N2  UNL     1      34.049  35.211  59.640  1.00  0.00    -0.386 N 
ATOM     21  H2  UNL     1      33.959  34.867  58.683  1.00  0.00     0.159 HD
BRANCH  20  22
HETATM   22  C16 UNL     1      34.062  34.228  60.590  1.00  0.00     0.155 C 
BRANCH  22  23
HETATM   23  C17 UNL     1      34.399  32.842  60.356  1.00  0.00     0.269 C 
HETATM   24  N3  UNL     1      35.753  32.568  59.931  1.00  0.00    -0.057 NA
HETATM   25  O2  UNL     1      33.657  31.880  60.481  1.00  0.00    -0.270 OA
ENDBRANCH  22  23
ENDBRANCH  20  22
ENDBRANCH  17  20
ENDBRANCH  16  17
ENDBRANCH   9  16
BRANCH  11  26
HETATM   26  O3  UNL     1      36.348  34.846  58.053  1.00  0.00    -0.395 OA
ATOM     27  H3  UNL     1      36.806  34.165  58.530  1.00  0.00     0.210 HD
ENDBRANCH  11  26
BRANCH   1  28
HETATM   28  S1  UNL     1      38.607  41.228  56.573  1.00  0.00    -0.153 SA
BRANCH  28  29
HETATM   29  C2  UNL     1      37.858  42.518  57.593  1.00  0.00     0.040 C 
HETATM   30  C1  UNL     1      36.655  43.047  56.840  1.00  0.00     0.021 C 
HETATM   31  C3  UNL     1      38.803  43.687  57.796  1.00  0.00     0.021 C 
ENDBRANCH  28  29
ENDBRANCH   1  28
BRANCH   3  32
HETATM   32  O1  UNL     1      40.141  40.709  60.875  1.00  0.00    -0.290 OA
ATOM     33  H1  UNL     1      39.582  41.401  61.210  1.00  0.00     0.244 HD
ENDBRANCH   3  32
TORSDOF 9
ENDMDL
MODEL 5
REMARK VINA RESULT: -6.594764964      3.017      7.434
REMARK  9 active torsions:
REMARK  status: ('A' for Active; 'I' for Inactive)
REMARK    1  A    between atoms: C2_2  and  S1_4 
REMARK    2  A    between atoms: S1_4  and  C4_5 
REMARK    3  A    between atoms: N1_7  and  O1_9 
REMARK    4  A    between atoms: C10_15  and  C12_17 
REMARK    5  A    between atoms: C12_17  and  C13_18 
REMARK    6  A    between atoms: C13_18  and  N2_21 
REMARK    7  A    between atoms: N2_21  and  C16_23 
REMARK    8  A    between atoms: C16_23  and  C17_24 
REMARK    9  A    between atoms: C18_27  and  O3_28 
ROOT
HETATM    1  C4  UNL     1      35.522  36.077  59.022  1.00  0.00     0.104 C 
HETATM    2  C5  UNL     1      35.637  34.648  59.243  1.00  0.00     0.024 C 
HETATM    3  N1  UNL     1      35.611  34.107  60.412  1.00  0.00    -0.276 N 
ATOM      4  H1  UNL     1      35.506  34.683  61.246  1.00  0.00     0.193 HD
HETATM    5  C6  UNL     1      35.790  33.769  58.067  1.00  0.00     0.056 C 
HETATM    6  C7  UNL     1      36.918  34.453  57.301  1.00  0.00     0.016 C 
HETATM    7  C8  UNL     1      36.430  35.784  56.710  1.00  0.00    -0.025 C 
HETATM    8  C9  UNL     1      35.164  35.542  55.975  1.00  0.00     0.017 C 
HETATM    9  C10 UNL     1      37.512  36.155  55.680  1.00  0.00    -0.008 C 
HETATM   10  C11 UNL     1      37.465  37.620  55.291  1.00  0.00     0.019 C 
HETATM   11  C18 UNL     1      38.847  36.060  56.400  1.00  0.00     0.127 C 
HETATM   12  C19 UNL     1      38.858  36.907  57.648  1.00  0.00     0.033 C 
HETATM   13  C20 UNL     1      37.669  36.966  58.470  1.00  0.00     0.014 C 
HETATM   14  C21 UNL     1      36.322  36.683  57.878  1.00  0.00    -0.018 C 
HETATM   15  C22 UNL     1      35.546  37.986  57.629  1.00  0.00     0.018 C 
ENDROOT
BRANCH   9  16
HETATM   16  C12 UNL     1      37.298  35.328  54.512  1.00  0.00     0.042 C 
BRANCH  16  17
HETATM   17  C13 UNL     1      38.175  34.304  53.919  1.00  0.00     0.023 C 
HETATM   18  C14 UNL     1      37.407  33.966  52.605  1.00  0.00     0.038 C 
HETATM   19  C15 UNL     1      38.153  32.944  54.602  1.00  0.00     0.038 C 
BRANCH  17  20
HETATM   20  N2  UNL     1      39.475  34.609  53.579  1.00  0.00    -0.386 N 
ATOM     21  H2  UNL     1      40.135  34.552  54.354  1.00  0.00     0.159 HD
BRANCH  20  22
HETATM   22  C16 UNL     1      40.039  34.976  52.388  1.00  0.00     0.155 C 
BRANCH  22  23
HETATM   23  C17 UNL     1      40.060  36.316  51.849  1.00  0.00     0.269 C 
HETATM   24  N3  UNL     1      40.141  37.397  52.805  1.00  0.00    -0.057 NA
HETATM   25  O2  UNL     1      40.018  36.628  50.669  1.00  0.00    -0.270 OA
ENDBRANCH  22  23
ENDBRANCH  20  22
ENDBRANCH  17  20
ENDBRANCH  16  17
ENDBRANCH   9  16
BRANCH  11  26
HETATM   26  O3  UNL     1      39.798  36.726  55.587  1.00  0.00    -0.395 OA
ATOM     27  H3  UNL     1      39.312  37.156  54.894  1.00  0.00     0.210 HD
ENDBRANCH  11  26
BRANCH   1  28
HETATM   28  S1  UNL     1      33.759  36.607  58.984  1.00  0.00    -0.153 SA
BRANCH  28  29
HETATM   29  C2  UNL     1      33.264  37.253  60.598  1.00  0.00     0.040 C 
HETATM   30  C1  UNL     1      34.505  37.814  61.260  1.00  0.00     0.021 C 
HETATM   31  C3  UNL     1      32.739  36.153  61.501  1.00  0.00     0.021 C 
ENDBRANCH  28  29
ENDBRANCH   1  28
BRANCH   3  32
HETATM   32  O1  UNL     1      35.728  32.747  60.521  1.00  0.00    -0.290 OA
ATOM     33  H1  UNL     1      36.430  32.383  61.048  1.00  0.00     0.244 HD
ENDBRANCH   3  32
TORSDOF 9
ENDMDL
