MODEL 1
REMARK VINA RESULT: -6.361319282      0.000      0.000
REMARK  11 active torsions:
REMARK  status: ('A' for Active; 'I' for Inactive)
REMARK    1  A    between atoms: C2_2  and  C4_4 
REMARK    2  A    between atoms: C4_4  and  O1_5 
REMARK    3  A    between atoms: C5_7  and  C6_8 
REMARK    4  A    between atoms: C6_8  and  C7_9 
REMARK    5  A    between atoms: C7_9  and  C8_10 
REMARK    6  A    between atoms: C8_10  and  O2_13 
REMARK    7  A    between atoms: C18_22  and  C19_23 
REMARK    8  A    between atoms: C20_25  and  C22_27 
REMARK    9  A    between atoms: C22_27  and  C23_28 
REMARK   10  A    between atoms: C23_28  and  O4_30 
REMARK   11  A    between atoms: C23_28  and  O5_32 
ROOT
HETATM    1  C4  UNL     1      37.309  38.829  57.162  1.00  0.00     0.092 C 
HETATM    2  C5  UNL     1      38.148  38.339  55.953  1.00  0.00     0.025 C 
HETATM    3  C11 UNL     1      39.510  38.899  56.130  1.00  0.00     0.009 C 
HETATM    4  C12 UNL     1      39.432  39.456  57.530  1.00  0.00     0.014 C 
HETATM    5  C13 UNL     1      38.025  40.042  57.640  1.00  0.00     0.007 C 
HETATM    6  C14 UNL     1      37.887  41.041  56.515  1.00  0.00    -0.006 C 
HETATM    7  C15 UNL     1      39.087  41.866  56.154  1.00  0.00     0.011 C 
HETATM    8  C16 UNL     1      36.740  41.978  56.562  1.00  0.00     0.006 C 
HETATM    9  C17 UNL     1      36.777  42.655  57.854  1.00  0.00     0.013 C 
HETATM   10  C18 UNL     1      37.754  42.114  58.868  1.00  0.00     0.056 C 
HETATM   11  C20 UNL     1      37.719  40.604  59.032  1.00  0.00    -0.018 C 
HETATM   12  C21 UNL     1      36.337  40.305  59.517  1.00  0.00     0.017 C 
ENDROOT
BRANCH   1  13
HETATM   13  C2  UNL     1      36.767  37.751  57.911  1.00  0.00    -0.058 C 
HETATM   14  C1  UNL     1      37.229  36.905  58.805  1.00  0.00     0.017 C 
HETATM   15  C3  UNL     1      35.291  37.330  57.673  1.00  0.00     0.046 C 
ENDBRANCH   1  13
BRANCH   1  16
HETATM   16  O1  UNL     1      36.136  39.320  56.440  1.00  0.00    -0.384 OA
ATOM     17  H1  UNL     1      36.076  40.218  56.745  1.00  0.00     0.211 HD
ENDBRANCH   1  16
BRANCH  11  18
HETATM   18  C22 UNL     1      38.818  40.282  59.988  1.00  0.00     0.078 C 
BRANCH  18  19
HETATM   19  C23 UNL     1      38.809  40.041  61.391  1.00  0.00     0.156 C 
HETATM   20  C24 UNL     1      40.348  39.999  61.825  1.00  0.00     0.078 C 
BRANCH  19  21
HETATM   21  O4  UNL     1      38.292  40.701  62.417  1.00  0.00    -0.366 OA
ATOM     22  H4  UNL     1      38.648  41.343  63.019  1.00  0.00     0.213 HD
ENDBRANCH  19  21
BRANCH  19  23
HETATM   23  O5  UNL     1      38.517  38.661  61.721  1.00  0.00    -0.366 OA
ATOM     24  H5  UNL     1      39.088  38.048  61.274  1.00  0.00     0.213 HD
ENDBRANCH  19  23
ENDBRANCH  18  19
ENDBRANCH  11  18
BRANCH   2  25
HETATM   25  C6  UNL     1      38.189  36.838  55.832  1.00  0.00     0.011 C 
BRANCH  25  26
HETATM   26  C7  UNL     1      39.539  36.449  55.256  1.00  0.00     0.037 C 
BRANCH  26  27
HETATM   27  C8  UNL     1      39.359  36.005  53.811  1.00  0.00     0.051 C 
HETATM   28  C9  UNL     1      37.941  35.601  53.533  1.00  0.00     0.045 C 
HETATM   29  C10 UNL     1      39.774  37.068  52.848  1.00  0.00     0.045 C 
BRANCH  27  30
HETATM   30  O2  UNL     1      40.183  34.879  53.630  1.00  0.00    -0.391 OA
ATOM     31  H2  UNL     1      39.873  34.439  52.849  1.00  0.00     0.210 HD
ENDBRANCH  27  30
ENDBRANCH  26  27
ENDBRANCH  25  26
ENDBRANCH   2  25
BRANCH  10  32
HETATM   32  C19 UNL     1      37.530  43.009  60.006  1.00  0.00     0.236 C 
HETATM   33  O3  UNL     1      37.055  44.134  60.007  1.00  0.00    -0.306 OA
ENDBRANCH  10  32
TORSDOF 11
ENDMDL
MODEL 2
REMARK VINA RESULT: -6.353548638      2.919      4.870
REMARK  11 active torsions:
REMARK  status: ('A' for Active; 'I' for Inactive)
REMARK    1  A    between atoms: C2_2  and  C4_4 
REMARK    2  A    between atoms: C4_4  and  O1_5 
REMARK    3  A    between atoms: C5_7  and  C6_8 
REMARK    4  A    between atoms: C6_8  and  C7_9 
REMARK    5  A    between atoms: C7_9  and  C8_10 
REMARK    6  A    between atoms: C8_10  and  O2_13 
REMARK    7  A    between atoms: C18_22  and  C19_23 
REMARK    8  A    between atoms: C20_25  and  C22_27 
REMARK    9  A    between atoms: C22_27  and  C23_28 
REMARK   10  A    between atoms: C23_28  and  O4_30 
REMARK   11  A    between atoms: C23_28  and  O5_32 
ROOT
HETATM    1  C4  UNL     1      35.631  37.208  58.242  1.00  0.00     0.092 C 
HETATM    2  C5  UNL     1      35.624  35.657  58.214  1.00  0.00     0.025 C 
HETATM    3  C11 UNL     1      37.030  35.225  58.400  1.00  0.00     0.009 C 
HETATM    4  C12 UNL     1      37.704  36.525  58.764  1.00  0.00     0.014 C 
HETATM    5  C13 UNL     1      37.027  37.576  57.886  1.00  0.00     0.007 C 
HETATM    6  C14 UNL     1      37.196  37.115  56.456  1.00  0.00    -0.006 C 
HETATM    7  C15 UNL     1      38.485  36.445  56.080  1.00  0.00     0.011 C 
HETATM    8  C16 UNL     1      36.906  38.089  55.379  1.00  0.00     0.006 C 
HETATM    9  C17 UNL     1      37.706  39.282  55.636  1.00  0.00     0.013 C 
HETATM   10  C18 UNL     1      38.408  39.345  56.970  1.00  0.00     0.056 C 
HETATM   11  C20 UNL     1      37.530  38.997  58.159  1.00  0.00    -0.018 C 
HETATM   12  C21 UNL     1      36.453  40.034  58.155  1.00  0.00     0.017 C 
ENDROOT
BRANCH   1  13
HETATM   13  C2  UNL     1      34.797  37.729  59.267  1.00  0.00    -0.058 C 
HETATM   14  C1  UNL     1      34.907  37.910  60.564  1.00  0.00     0.017 C 
HETATM   15  C3  UNL     1      33.356  38.185  58.910  1.00  0.00     0.046 C 
ENDBRANCH   1  13
BRANCH   1  16
HETATM   16  O1  UNL     1      34.836  37.460  57.041  1.00  0.00    -0.384 OA
ATOM     17  H1  UNL     1      35.085  38.350  56.821  1.00  0.00     0.211 HD
ENDBRANCH   1  16
BRANCH  11  18
HETATM   18  C22 UNL     1      38.438  39.021  59.343  1.00  0.00     0.078 C 
BRANCH  18  19
HETATM   19  C23 UNL     1      38.312  39.642  60.617  1.00  0.00     0.156 C 
HETATM   20  C24 UNL     1      39.686  40.429  60.844  1.00  0.00     0.078 C 
BRANCH  19  21
HETATM   21  O4  UNL     1      37.452  40.520  61.112  1.00  0.00    -0.366 OA
ATOM     22  H4  UNL     1      37.516  41.447  61.311  1.00  0.00     0.213 HD
ENDBRANCH  19  21
BRANCH  19  23
HETATM   23  O5  UNL     1      38.484  38.712  61.715  1.00  0.00    -0.366 OA
ATOM     24  H5  UNL     1      39.328  38.278  61.701  1.00  0.00     0.213 HD
ENDBRANCH  19  23
ENDBRANCH  18  19
ENDBRANCH  11  18
BRANCH   2  25
HETATM   25  C6  UNL     1      34.727  35.051  59.262  1.00  0.00     0.011 C 
BRANCH  25  26
HETATM   26  C7  UNL     1      34.778  33.541  59.109  1.00  0.00     0.037 C 
BRANCH  26  27
HETATM   27  C8  UNL     1      34.272  32.889  60.388  1.00  0.00     0.051 C 
HETATM   28  C9  UNL     1      35.357  32.110  61.073  1.00  0.00     0.045 C 
HETATM   29  C10 UNL     1      33.704  33.894  61.335  1.00  0.00     0.045 C 
BRANCH  27  30
HETATM   30  O2  UNL     1      33.255  31.994  60.009  1.00  0.00    -0.391 OA
ATOM     31  H2  UNL     1      33.522  31.136  60.315  1.00  0.00     0.210 HD
ENDBRANCH  27  30
ENDBRANCH  26  27
ENDBRANCH  25  26
ENDBRANCH   2  25
BRANCH  10  32
HETATM   32  C19 UNL     1      39.097  40.635  56.883  1.00  0.00     0.236 C 
HETATM   33  O3  UNL     1      38.936  41.530  56.068  1.00  0.00    -0.306 OA
ENDBRANCH  10  32
TORSDOF 11
ENDMDL
MODEL 3
REMARK VINA RESULT: -6.298792470      1.827      2.215
REMARK  11 active torsions:
REMARK  status: ('A' for Active; 'I' for Inactive)
REMARK    1  A    between atoms: C2_2  and  C4_4 
REMARK    2  A    between atoms: C4_4  and  O1_5 
REMARK    3  A    between atoms: C5_7  and  C6_8 
REMARK    4  A    between atoms: C6_8  and  C7_9 
REMARK    5  A    between atoms: C7_9  and  C8_10 
REMARK    6  A    between atoms: C8_10  and  O2_13 
REMARK    7  A    between atoms: C18_22  and  C19_23 
REMARK    8  A    between atoms: C20_25  and  C22_27 
REMARK    9  A    between atoms: C22_27  and  C23_28 
REMARK   10  A    between atoms: C23_28  and  O4_30 
REMARK   11  A    between atoms: C23_28  and  O5_32 
ROOT
HETATM    1  C4  UNL     1      36.979  37.696  57.203  1.00  0.00     0.092 C 
HETATM    2  C5  UNL     1      37.825  36.880  56.190  1.00  0.00     0.025 C 
HETATM    3  C11 UNL     1      39.220  37.366  56.317  1.00  0.00     0.009 C 
HETATM    4  C12 UNL     1      39.131  38.236  57.545  1.00  0.00     0.014 C 
HETATM    5  C13 UNL     1      37.774  38.931  57.435  1.00  0.00     0.007 C 
HETATM    6  C14 UNL     1      37.767  39.651  56.105  1.00  0.00    -0.006 C 
HETATM    7  C15 UNL     1      39.047  40.280  55.639  1.00  0.00     0.011 C 
HETATM    8  C16 UNL     1      36.702  40.653  55.870  1.00  0.00     0.006 C 
HETATM    9  C17 UNL     1      36.742  41.606  56.973  1.00  0.00     0.013 C 
HETATM   10  C18 UNL     1      37.627  41.245  58.141  1.00  0.00     0.056 C 
HETATM   11  C20 UNL     1      37.458  39.821  58.641  1.00  0.00    -0.018 C 
HETATM   12  C21 UNL     1      36.037  39.743  59.098  1.00  0.00     0.017 C 
ENDROOT
BRANCH   1  13
HETATM   13  C2  UNL     1      36.318  36.862  58.144  1.00  0.00    -0.058 C 
HETATM   14  C1  UNL     1      36.673  36.205  59.226  1.00  0.00     0.017 C 
HETATM   15  C3  UNL     1      34.819  36.520  57.929  1.00  0.00     0.046 C 
ENDBRANCH   1  13
BRANCH   1  16
HETATM   16  O1  UNL     1      35.883  38.089  56.319  1.00  0.00    -0.384 OA
ATOM     17  H1  UNL     1      35.435  38.746  56.839  1.00  0.00     0.211 HD
ENDBRANCH   1  16
BRANCH  11  18
HETATM   18  C22 UNL     1      38.486  39.651  59.710  1.00  0.00     0.078 C 
BRANCH  18  19
HETATM   19  C23 UNL     1      38.408  39.785  61.124  1.00  0.00     0.156 C 
HETATM   20  C24 UNL     1      39.913  40.017  61.613  1.00  0.00     0.078 C 
BRANCH  19  21
HETATM   21  O4  UNL     1      37.768  40.633  61.917  1.00  0.00    -0.366 OA
ATOM     22  H4  UNL     1      38.064  41.317  62.505  1.00  0.00     0.213 HD
ENDBRANCH  19  21
BRANCH  19  23
HETATM   23  O5  UNL     1      38.220  38.516  61.798  1.00  0.00    -0.366 OA
ATOM     24  H5  UNL     1      38.266  38.592  62.744  1.00  0.00     0.213 HD
ENDBRANCH  19  23
ENDBRANCH  18  19
ENDBRANCH  11  18
BRANCH   2  25
HETATM   25  C6  UNL     1      37.744  35.392  56.416  1.00  0.00     0.011 C 
BRANCH  25  26
HETATM   26  C7  UNL     1      37.116  34.763  55.185  1.00  0.00     0.037 C 
BRANCH  26  27
HETATM   27  C8  UNL     1      36.668  33.347  55.518  1.00  0.00     0.051 C 
HETATM   28  C9  UNL     1      37.706  32.337  55.125  1.00  0.00     0.045 C 
HETATM   29  C10 UNL     1      36.345  33.194  56.967  1.00  0.00     0.045 C 
BRANCH  27  30
HETATM   30  O2  UNL     1      35.506  33.105  54.764  1.00  0.00    -0.391 OA
ATOM     31  H2  UNL     1      34.891  32.673  55.344  1.00  0.00     0.210 HD
ENDBRANCH  27  30
ENDBRANCH  26  27
ENDBRANCH  25  26
ENDBRANCH   2  25
BRANCH  10  32
HETATM   32  C19 UNL     1      37.431  42.393  59.030  1.00  0.00     0.236 C 
HETATM   33  O3  UNL     1      36.724  43.374  58.860  1.00  0.00    -0.306 OA
ENDBRANCH  10  32
TORSDOF 11
ENDMDL
MODEL 4
REMARK VINA RESULT: -6.231843588      3.278      5.055
REMARK  11 active torsions:
REMARK  status: ('A' for Active; 'I' for Inactive)
REMARK    1  A    between atoms: C2_2  and  C4_4 
REMARK    2  A    between atoms: C4_4  and  O1_5 
REMARK    3  A    between atoms: C5_7  and  C6_8 
REMARK    4  A    between atoms: C6_8  and  C7_9 
REMARK    5  A    between atoms: C7_9  and  C8_10 
REMARK    6  A    between atoms: C8_10  and  O2_13 
REMARK    7  A    between atoms: C18_22  and  C19_23 
REMARK    8  A    between atoms: C20_25  and  C22_27 
REMARK    9  A    between atoms: C22_27  and  C23_28 
REMARK   10  A    between atoms: C23_28  and  O4_30 
REMARK   11  A    between atoms: C23_28  and  O5_32 
ROOT
HETATM    1  C4  UNL     1      37.280  36.928  56.677  1.00  0.00     0.092 C 
HETATM    2  C5  UNL     1      38.702  37.531  56.823  1.00  0.00     0.025 C 
HETATM    3  C11 UNL     1      39.100  37.334  58.238  1.00  0.00     0.009 C 
HETATM    4  C12 UNL     1      38.005  36.426  58.741  1.00  0.00     0.014 C 
HETATM    5  C13 UNL     1      36.733  36.933  58.060  1.00  0.00     0.007 C 
HETATM    6  C14 UNL     1      36.607  38.395  58.421  1.00  0.00    -0.006 C 
HETATM    7  C15 UNL     1      37.017  38.819  59.800  1.00  0.00     0.011 C 
HETATM    8  C16 UNL     1      35.312  39.061  58.151  1.00  0.00     0.006 C 
HETATM    9  C17 UNL     1      34.268  38.276  58.800  1.00  0.00     0.013 C 
HETATM   10  C18 UNL     1      34.682  36.934  59.351  1.00  0.00     0.056 C 
HETATM   11  C20 UNL     1      35.500  36.086  58.391  1.00  0.00    -0.018 C 
HETATM   12  C21 UNL     1      34.596  35.848  57.226  1.00  0.00     0.017 C 
ENDROOT
BRANCH   1  13
HETATM   13  C2  UNL     1      37.230  35.904  55.694  1.00  0.00    -0.058 C 
HETATM   14  C1  UNL     1      37.544  34.628  55.653  1.00  0.00     0.017 C 
HETATM   15  C3  UNL     1      36.759  36.257  54.257  1.00  0.00     0.046 C 
ENDBRANCH   1  13
BRANCH   1  16
HETATM   16  O1  UNL     1      36.629  38.043  55.990  1.00  0.00    -0.384 OA
ATOM     17  H1  UNL     1      35.739  37.727  55.897  1.00  0.00     0.211 HD
ENDBRANCH   1  16
BRANCH  11  18
HETATM   18  C22 UNL     1      35.884  34.869  59.165  1.00  0.00     0.078 C 
BRANCH  18  19
HETATM   19  C23 UNL     1      35.417  33.526  59.104  1.00  0.00     0.156 C 
HETATM   20  C24 UNL     1      36.317  32.716  60.149  1.00  0.00     0.078 C 
BRANCH  19  21
HETATM   21  O4  UNL     1      34.235  32.970  59.329  1.00  0.00    -0.366 OA
ATOM     22  H4  UNL     1      33.827  32.613  60.108  1.00  0.00     0.213 HD
ENDBRANCH  19  21
BRANCH  19  23
HETATM   23  O5  UNL     1      35.879  32.824  57.924  1.00  0.00    -0.366 OA
ATOM     24  H5  UNL     1      35.683  31.895  57.949  1.00  0.00     0.213 HD
ENDBRANCH  19  23
ENDBRANCH  18  19
ENDBRANCH  11  18
BRANCH   2  25
HETATM   25  C6  UNL     1      39.705  36.913  55.885  1.00  0.00     0.011 C 
BRANCH  25  26
HETATM   26  C7  UNL     1      40.522  38.033  55.266  1.00  0.00     0.037 C 
BRANCH  26  27
HETATM   27  C8  UNL     1      40.154  38.169  53.794  1.00  0.00     0.051 C 
HETATM   28  C9  UNL     1      41.168  38.985  53.049  1.00  0.00     0.045 C 
HETATM   29  C10 UNL     1      40.003  36.837  53.136  1.00  0.00     0.045 C 
BRANCH  27  30
HETATM   30  O2  UNL     1      38.921  38.843  53.748  1.00  0.00    -0.391 OA
ATOM     31  H2  UNL     1      38.467  38.635  54.556  1.00  0.00     0.210 HD
ENDBRANCH  27  30
ENDBRANCH  26  27
ENDBRANCH  25  26
ENDBRANCH   2  25
BRANCH  10  32
HETATM   32  C19 UNL     1      33.423  36.442  59.917  1.00  0.00     0.236 C 
HETATM   33  O3  UNL     1      32.356  37.026  60.018  1.00  0.00    -0.306 OA
ENDBRANCH  10  32
TORSDOF 11
ENDMDL
MODEL 5
REMARK VINA RESULT: -6.137221085      1.810      2.291
REMARK  11 active torsions:
REMARK  status: ('A' for Active; 'I' for Inactive)
REMARK    1  A    between atoms: C2_2  and  C4_4 
REMARK    2  A    between atoms: C4_4  and  O1_5 
REMARK    3  A    between atoms: C5_7  and  C6_8 
REMARK    4  A    between atoms: C6_8  and  C7_9 
REMARK    5  A    between atoms: C7_9  and  C8_10 
REMARK    6  A    between atoms: C8_10  and  O2_13 
REMARK    7  A    between atoms: C18_22  and  C19_23 
REMARK    8  A    between atoms: C20_25  and  C22_27 
REMARK    9  A    between atoms: C22_27  and  C23_28 
REMARK   10  A    between atoms: C23_28  and  O4_30 
REMARK   11  A    between atoms: C23_28  and  O5_32 
ROOT
HETATM    1  C4  UNL     1      36.935  37.299  56.873  1.00  0.00     0.092 C 
HETATM    2  C5  UNL     1      37.863  36.495  55.923  1.00  0.00     0.025 C 
HETATM    3  C11 UNL     1      39.240  36.990  56.161  1.00  0.00     0.009 C 
HETATM    4  C12 UNL     1      39.050  37.851  57.385  1.00  0.00     0.014 C 
HETATM    5  C13 UNL     1      37.701  38.538  57.174  1.00  0.00     0.007 C 
HETATM    6  C14 UNL     1      37.792  39.266  55.852  1.00  0.00    -0.006 C 
HETATM    7  C15 UNL     1      39.099  39.908  55.491  1.00  0.00     0.011 C 
HETATM    8  C16 UNL     1      36.741  40.263  55.542  1.00  0.00     0.006 C 
HETATM    9  C17 UNL     1      36.688  41.208  56.652  1.00  0.00     0.013 C 
HETATM   10  C18 UNL     1      37.483  40.845  57.882  1.00  0.00     0.056 C 
HETATM   11  C20 UNL     1      37.286  39.417  58.358  1.00  0.00    -0.018 C 
HETATM   12  C21 UNL     1      35.834  39.326  58.702  1.00  0.00     0.017 C 
ENDROOT
BRANCH   1  13
HETATM   13  C2  UNL     1      36.209  36.453  57.754  1.00  0.00    -0.058 C 
HETATM   14  C1  UNL     1      36.473  35.821  58.876  1.00  0.00     0.017 C 
HETATM   15  C3  UNL     1      34.752  36.058  57.392  1.00  0.00     0.046 C 
ENDBRANCH   1  13
BRANCH   1  16
HETATM   16  O1  UNL     1      35.908  37.691  55.909  1.00  0.00    -0.384 OA
ATOM     17  H1  UNL     1      36.076  38.620  55.807  1.00  0.00     0.211 HD
ENDBRANCH   1  16
BRANCH  11  18
HETATM   18  C22 UNL     1      38.228  39.246  59.502  1.00  0.00     0.078 C 
BRANCH  18  19
HETATM   19  C23 UNL     1      38.130  39.624  60.870  1.00  0.00     0.156 C 
HETATM   20  C24 UNL     1      39.536  40.300  61.226  1.00  0.00     0.078 C 
BRANCH  19  21
HETATM   21  O4  UNL     1      37.308  40.428  61.528  1.00  0.00    -0.366 OA
ATOM     22  H4  UNL     1      36.761  41.155  61.258  1.00  0.00     0.213 HD
ENDBRANCH  19  21
BRANCH  19  23
HETATM   23  O5  UNL     1      38.266  38.500  61.774  1.00  0.00    -0.366 OA
ATOM     24  H5  UNL     1      37.490  37.954  61.801  1.00  0.00     0.213 HD
ENDBRANCH  19  23
ENDBRANCH  18  19
ENDBRANCH  11  18
BRANCH   2  25
HETATM   25  C6  UNL     1      37.775  35.006  56.132  1.00  0.00     0.011 C 
BRANCH  25  26
HETATM   26  C7  UNL     1      37.586  34.351  54.776  1.00  0.00     0.037 C 
BRANCH  26  27
HETATM   27  C8  UNL     1      37.002  32.958  54.967  1.00  0.00     0.051 C 
HETATM   28  C9  UNL     1      36.086  32.906  56.155  1.00  0.00     0.045 C 
HETATM   29  C10 UNL     1      36.271  32.492  53.752  1.00  0.00     0.045 C 
BRANCH  27  30
HETATM   30  O2  UNL     1      38.087  32.096  55.206  1.00  0.00    -0.391 OA
ATOM     31  H2  UNL     1      38.097  31.924  56.140  1.00  0.00     0.210 HD
ENDBRANCH  27  30
ENDBRANCH  26  27
ENDBRANCH  25  26
ENDBRANCH   2  25
BRANCH  10  32
HETATM   32  C19 UNL     1      37.210  41.985  58.761  1.00  0.00     0.236 C 
HETATM   33  O3  UNL     1      36.698  43.057  58.478  1.00  0.00    -0.306 OA
ENDBRANCH  10  32
TORSDOF 11
ENDMDL
