MODEL 1
REMARK VINA RESULT: -7.932163344      0.000      0.000
REMARK  9 active torsions:
REMARK  status: ('A' for Active; 'I' for Inactive)
REMARK    1  A    between atoms: O1_2  and  C2_3 
REMARK    2  A    between atoms: C2_3  and  C3_4 
REMARK    3  A    between atoms: C2_3  and  C10_13 
REMARK    4  A    between atoms: C3_4  and  N1_5 
REMARK    5  A    between atoms: N1_5  and  C4_7 
REMARK    6  A    between atoms: C11_14  and  O2_15 
REMARK    7  A    between atoms: C12_17  and  C13_18 
REMARK    8  A    between atoms: C13_18  and  C14_19 
REMARK    9  A    between atoms: C19_27  and  O3_28 
ROOT
HETATM    1  C10 UNL     1       6.943  -4.028  43.188  1.00  0.00     0.020 A 
HETATM    2  C11 UNL     1       5.746  -4.034  42.443  1.00  0.00     0.098 A 
HETATM    3  C12 UNL     1       4.687  -3.306  42.910  1.00  0.00     0.044 A 
HETATM    4  N2  UNL     1       4.770  -2.598  44.030  1.00  0.00    -0.355 N 
ATOM      5  H2  UNL     1       3.957  -2.068  44.342  1.00  0.00     0.166 HD
HETATM    6  C17 UNL     1       5.919  -2.560  44.781  1.00  0.00     0.064 A 
HETATM    7  C18 UNL     1       5.954  -1.772  45.898  1.00  0.00     0.071 A 
HETATM    8 BR1  UNL     1       4.399  -0.802  46.420  1.00  0.00    -0.046 Br
HETATM    9  C19 UNL     1       7.117  -1.701  46.628  1.00  0.00     0.085 A 
HETATM   10  C20 UNL     1       8.203  -2.429  46.193  1.00  0.00     0.039 A 
HETATM   11  C21 UNL     1       8.209  -3.213  45.101  1.00  0.00     0.017 A 
HETATM   12  C22 UNL     1       7.027  -3.303  44.335  1.00  0.00     0.004 A 
ENDROOT
BRANCH   1  13
HETATM   13  C2  UNL     1       8.101  -4.741  42.605  1.00  0.00     0.174 C 
BRANCH  13  14
HETATM   14  O1  UNL     1       7.861  -6.039  42.319  1.00  0.00    -0.384 OA
HETATM   15  C1  UNL     1       8.471  -6.703  41.323  1.00  0.00     0.202 C 
ENDBRANCH  13  14
BRANCH  13  16
HETATM   16  C3  UNL     1       8.660  -4.050  41.348  1.00  0.00     0.151 C 
BRANCH  16  17
HETATM   17  N1  UNL     1       9.894  -3.425  41.750  1.00  0.00    -0.414 N 
ATOM     18  H1  UNL     1      10.172  -2.542  41.321  1.00  0.00     0.153 HD
BRANCH  17  19
HETATM   19  C4  UNL     1      10.706  -4.001  42.708  1.00  0.00     0.076 C 
HETATM   20  C5  UNL     1      11.768  -4.971  42.493  1.00  0.00     0.024 C 
HETATM   21  C6  UNL     1      11.986  -5.692  43.859  1.00  0.00     0.002 C 
HETATM   22  C7  UNL     1      11.615  -4.829  45.019  1.00  0.00     0.000 C 
HETATM   23  C8  UNL     1      12.011  -3.415  44.780  1.00  0.00     0.002 C 
HETATM   24  C9  UNL     1      11.310  -2.869  43.585  1.00  0.00     0.024 C 
ENDBRANCH  17  19
ENDBRANCH  16  17
ENDBRANCH  13  16
ENDBRANCH   1  13
BRANCH   2  25
HETATM   25  O2  UNL     1       5.699  -4.781  41.277  1.00  0.00    -0.358 OA
ATOM     26  H2  UNL     1       4.857  -4.906  40.854  1.00  0.00     0.217 HD
ENDBRANCH   2  25
BRANCH   3  27
HETATM   27  C13 UNL     1       3.417  -3.461  42.101  1.00  0.00     0.064 C 
BRANCH  27  28
HETATM   28  C14 UNL     1       2.467  -4.473  42.611  1.00  0.00    -0.017 C 
HETATM   29  C15 UNL     1       1.550  -3.869  43.630  1.00  0.00     0.010 C 
HETATM   30  C16 UNL     1       1.816  -5.354  41.598  1.00  0.00     0.010 C 
ENDBRANCH  27  28
ENDBRANCH   3  27
BRANCH   9  31
HETATM   31  O3  UNL     1       7.239  -0.910  47.804  1.00  0.00    -0.359 OA
ATOM     32  H3  UNL     1       7.177  -1.276  48.678  1.00  0.00     0.217 HD
ENDBRANCH   9  31
TORSDOF 9
ENDMDL
MODEL 2
REMARK VINA RESULT: -7.507963285      2.160      6.439
REMARK  9 active torsions:
REMARK  status: ('A' for Active; 'I' for Inactive)
REMARK    1  A    between atoms: O1_2  and  C2_3 
REMARK    2  A    between atoms: C2_3  and  C3_4 
REMARK    3  A    between atoms: C2_3  and  C10_13 
REMARK    4  A    between atoms: C3_4  and  N1_5 
REMARK    5  A    between atoms: N1_5  and  C4_7 
REMARK    6  A    between atoms: C11_14  and  O2_15 
REMARK    7  A    between atoms: C12_17  and  C13_18 
REMARK    8  A    between atoms: C13_18  and  C14_19 
REMARK    9  A    between atoms: C19_27  and  O3_28 
ROOT
HETATM    1  C10 UNL     1       8.559  -3.962  43.563  1.00  0.00     0.020 A 
HETATM    2  C11 UNL     1       9.693  -4.784  43.397  1.00  0.00     0.098 A 
HETATM    3  C12 UNL     1      10.823  -4.482  44.103  1.00  0.00     0.044 A 
HETATM    4  N2  UNL     1      10.869  -3.448  44.934  1.00  0.00    -0.355 N 
ATOM      5  H2  UNL     1      11.732  -3.258  45.443  1.00  0.00     0.166 HD
HETATM    6  C17 UNL     1       9.785  -2.627  45.129  1.00  0.00     0.064 A 
HETATM    7  C18 UNL     1       9.881  -1.608  46.037  1.00  0.00     0.071 A 
HETATM    8 BR1  UNL     1      11.524  -1.313  46.958  1.00  0.00    -0.046 Br
HETATM    9  C19 UNL     1       8.785  -0.810  46.264  1.00  0.00     0.085 A 
HETATM   10  C20 UNL     1       7.629  -1.080  45.564  1.00  0.00     0.039 A 
HETATM   11  C21 UNL     1       7.494  -2.071  44.666  1.00  0.00     0.017 A 
HETATM   12  C22 UNL     1       8.606  -2.904  44.415  1.00  0.00     0.004 A 
ENDROOT
BRANCH   1  13
HETATM   13  C2  UNL     1       7.322  -4.375  42.866  1.00  0.00     0.174 C 
BRANCH  13  14
HETATM   14  O1  UNL     1       7.510  -4.740  41.579  1.00  0.00    -0.384 OA
HETATM   15  C1  UNL     1       6.605  -5.431  40.866  1.00  0.00     0.202 C 
ENDBRANCH  13  14
BRANCH  13  16
HETATM   16  C3  UNL     1       6.568  -5.501  43.598  1.00  0.00     0.151 C 
BRANCH  16  17
HETATM   17  N1  UNL     1       5.499  -4.863  44.321  1.00  0.00    -0.414 N 
ATOM     18  H1  UNL     1       5.396  -5.037  45.322  1.00  0.00     0.153 HD
BRANCH  17  19
HETATM   19  C4  UNL     1       4.610  -4.019  43.683  1.00  0.00     0.076 C 
HETATM   20  C5  UNL     1       3.380  -4.389  43.003  1.00  0.00     0.024 C 
HETATM   21  C6  UNL     1       3.054  -3.223  42.019  1.00  0.00     0.002 C 
HETATM   22  C7  UNL     1       3.604  -1.917  42.490  1.00  0.00     0.000 C 
HETATM   23  C8  UNL     1       3.480  -1.787  43.967  1.00  0.00     0.002 C 
HETATM   24  C9  UNL     1       4.249  -2.861  44.654  1.00  0.00     0.024 C 
ENDBRANCH  17  19
ENDBRANCH  16  17
ENDBRANCH  13  16
ENDBRANCH   1  13
BRANCH   2  25
HETATM   25  O2  UNL     1       9.606  -5.857  42.524  1.00  0.00    -0.358 OA
ATOM     26  H2  UNL     1      10.368  -6.074  41.998  1.00  0.00     0.217 HD
ENDBRANCH   2  25
BRANCH   3  27
HETATM   27  C13 UNL     1      12.016  -5.355  43.778  1.00  0.00     0.064 C 
BRANCH  27  28
HETATM   28  C14 UNL     1      12.948  -5.590  44.902  1.00  0.00    -0.017 C 
HETATM   29  C15 UNL     1      12.420  -6.658  45.810  1.00  0.00     0.010 C 
HETATM   30  C16 UNL     1      14.398  -5.688  44.564  1.00  0.00     0.010 C 
ENDBRANCH  27  28
ENDBRANCH   3  27
BRANCH   9  31
HETATM   31  O3  UNL     1       8.799   0.273  47.187  1.00  0.00    -0.359 OA
ATOM     32  H3  UNL     1       8.339   0.246  48.017  1.00  0.00     0.217 HD
ENDBRANCH   9  31
TORSDOF 9
ENDMDL
MODEL 3
REMARK VINA RESULT: -7.458426460      2.151      7.290
REMARK  9 active torsions:
REMARK  status: ('A' for Active; 'I' for Inactive)
REMARK    1  A    between atoms: O1_2  and  C2_3 
REMARK    2  A    between atoms: C2_3  and  C3_4 
REMARK    3  A    between atoms: C2_3  and  C10_13 
REMARK    4  A    between atoms: C3_4  and  N1_5 
REMARK    5  A    between atoms: N1_5  and  C4_7 
REMARK    6  A    between atoms: C11_14  and  O2_15 
REMARK    7  A    between atoms: C12_17  and  C13_18 
REMARK    8  A    between atoms: C13_18  and  C14_19 
REMARK    9  A    between atoms: C19_27  and  O3_28 
ROOT
HETATM    1  C10 UNL     1       4.731  -3.259  43.380  1.00  0.00     0.020 A 
HETATM    2  C11 UNL     1       5.620  -4.278  42.979  1.00  0.00     0.098 A 
HETATM    3  C12 UNL     1       6.789  -4.429  43.670  1.00  0.00     0.044 A 
HETATM    4  N2  UNL     1       7.093  -3.649  44.701  1.00  0.00    -0.355 N 
ATOM      5  H2  UNL     1       7.976  -3.797  45.190  1.00  0.00     0.166 HD
HETATM    6  C17 UNL     1       6.253  -2.650  45.126  1.00  0.00     0.064 A 
HETATM    7  C18 UNL     1       6.603  -1.914  46.225  1.00  0.00     0.071 A 
HETATM    8 BR1  UNL     1       8.266  -2.247  47.096  1.00  0.00    -0.046 Br
HETATM    9  C19 UNL     1       5.745  -0.941  46.678  1.00  0.00     0.085 A 
HETATM   10  C20 UNL     1       4.559  -0.754  46.001  1.00  0.00     0.039 A 
HETATM   11  C21 UNL     1       4.178  -1.456  44.919  1.00  0.00     0.017 A 
HETATM   12  C22 UNL     1       5.043  -2.461  44.435  1.00  0.00     0.004 A 
ENDROOT
BRANCH   1  13
HETATM   13  C2  UNL     1       3.431  -3.188  42.679  1.00  0.00     0.174 C 
BRANCH  13  14
HETATM   14  O1  UNL     1       3.529  -3.196  41.332  1.00  0.00    -0.384 OA
HETATM   15  C1  UNL     1       2.725  -3.920  40.535  1.00  0.00     0.202 C 
ENDBRANCH  13  14
BRANCH  13  16
HETATM   16  C3  UNL     1       2.454  -4.296  43.113  1.00  0.00     0.151 C 
BRANCH  16  17
HETATM   17  N1  UNL     1       1.331  -3.626  43.718  1.00  0.00    -0.414 N 
ATOM     18  H1  UNL     1       1.479  -2.746  44.212  1.00  0.00     0.153 HD
BRANCH  17  19
HETATM   19  C4  UNL     1       0.058  -4.157  43.641  1.00  0.00     0.076 C 
HETATM   20  C5  UNL     1      -0.348  -5.373  42.956  1.00  0.00     0.024 C 
HETATM   21  C6  UNL     1      -1.881  -5.240  42.696  1.00  0.00     0.002 C 
HETATM   22  C7  UNL     1      -2.551  -4.368  43.706  1.00  0.00     0.000 C 
HETATM   23  C8  UNL     1      -1.977  -4.583  45.061  1.00  0.00     0.002 C 
HETATM   24  C9  UNL     1      -0.528  -4.240  45.078  1.00  0.00     0.024 C 
ENDBRANCH  17  19
ENDBRANCH  16  17
ENDBRANCH  13  16
ENDBRANCH   1  13
BRANCH   2  25
HETATM   25  O2  UNL     1       5.265  -5.075  41.902  1.00  0.00    -0.358 OA
ATOM     26  H2  UNL     1       5.665  -4.898  41.058  1.00  0.00     0.217 HD
ENDBRANCH   2  25
BRANCH   3  27
HETATM   27  C13 UNL     1       7.722  -5.476  43.100  1.00  0.00     0.064 C 
BRANCH  27  28
HETATM   28  C14 UNL     1       8.915  -4.944  42.407  1.00  0.00    -0.017 C 
HETATM   29  C15 UNL     1      10.154  -5.219  43.203  1.00  0.00     0.010 C 
HETATM   30  C16 UNL     1       9.016  -5.211  40.943  1.00  0.00     0.010 C 
ENDBRANCH  27  28
ENDBRANCH   3  27
BRANCH   9  31
HETATM   31  O3  UNL     1       6.031  -0.128  47.810  1.00  0.00    -0.359 OA
ATOM     32  H3  UNL     1       5.373   0.405  48.240  1.00  0.00     0.217 HD
ENDBRANCH   9  31
TORSDOF 9
ENDMDL
MODEL 4
REMARK VINA RESULT: -7.402715955      2.707      3.894
REMARK  9 active torsions:
REMARK  status: ('A' for Active; 'I' for Inactive)
REMARK    1  A    between atoms: O1_2  and  C2_3 
REMARK    2  A    between atoms: C2_3  and  C3_4 
REMARK    3  A    between atoms: C2_3  and  C10_13 
REMARK    4  A    between atoms: C3_4  and  N1_5 
REMARK    5  A    between atoms: N1_5  and  C4_7 
REMARK    6  A    between atoms: C11_14  and  O2_15 
REMARK    7  A    between atoms: C12_17  and  C13_18 
REMARK    8  A    between atoms: C13_18  and  C14_19 
REMARK    9  A    between atoms: C19_27  and  O3_28 
ROOT
HETATM    1  C10 UNL     1       9.941  -4.476  43.884  1.00  0.00     0.020 A 
HETATM    2  C11 UNL     1       8.632  -4.872  43.540  1.00  0.00     0.098 A 
HETATM    3  C12 UNL     1       7.582  -4.181  44.077  1.00  0.00     0.044 A 
HETATM    4  N2  UNL     1       7.772  -3.154  44.897  1.00  0.00    -0.355 N 
ATOM      5  H2  UNL     1       6.961  -2.665  45.274  1.00  0.00     0.166 HD
HETATM    6  C17 UNL     1       9.030  -2.733  45.252  1.00  0.00     0.064 A 
HETATM    7  C18 UNL     1       9.157  -1.638  46.062  1.00  0.00     0.071 A 
HETATM    8 BR1  UNL     1       7.598  -0.766  46.726  1.00  0.00    -0.046 Br
HETATM    9  C19 UNL     1      10.416  -1.190  46.385  1.00  0.00     0.085 A 
HETATM   10  C20 UNL     1      11.499  -1.867  45.869  1.00  0.00     0.039 A 
HETATM   11  C21 UNL     1      11.416  -2.945  45.070  1.00  0.00     0.017 A 
HETATM   12  C22 UNL     1      10.134  -3.425  44.724  1.00  0.00     0.004 A 
ENDROOT
BRANCH   1  13
HETATM   13  C2  UNL     1      11.054  -5.176  43.208  1.00  0.00     0.174 C 
BRANCH  13  14
HETATM   14  O1  UNL     1      11.669  -4.442  42.256  1.00  0.00    -0.384 OA
HETATM   15  C1  UNL     1      11.353  -4.507  40.951  1.00  0.00     0.202 C 
ENDBRANCH  13  14
BRANCH  13  16
HETATM   16  C3  UNL     1      12.116  -5.704  44.191  1.00  0.00     0.151 C 
BRANCH  16  17
HETATM   17  N1  UNL     1      13.394  -5.359  43.623  1.00  0.00    -0.414 N 
ATOM     18  H1  UNL     1      13.432  -4.917  42.704  1.00  0.00     0.153 HD
BRANCH  17  19
HETATM   19  C4  UNL     1      14.570  -5.617  44.301  1.00  0.00     0.076 C 
HETATM   20  C5  UNL     1      14.731  -6.403  45.514  1.00  0.00     0.024 C 
HETATM   21  C6  UNL     1      16.077  -5.948  46.157  1.00  0.00     0.002 C 
HETATM   22  C7  UNL     1      17.043  -5.434  45.140  1.00  0.00     0.000 C 
HETATM   23  C8  UNL     1      16.975  -6.235  43.888  1.00  0.00     0.002 C 
HETATM   24  C9  UNL     1      15.617  -6.150  43.285  1.00  0.00     0.024 C 
ENDBRANCH  17  19
ENDBRANCH  16  17
ENDBRANCH  13  16
ENDBRANCH   1  13
BRANCH   2  25
HETATM   25  O2  UNL     1       8.474  -5.945  42.677  1.00  0.00    -0.358 OA
ATOM     26  H2  UNL     1       7.727  -5.945  42.089  1.00  0.00     0.217 HD
ENDBRANCH   2  25
BRANCH   3  27
HETATM   27  C13 UNL     1       6.221  -4.746  43.734  1.00  0.00     0.064 C 
BRANCH  27  28
HETATM   28  C14 UNL     1       5.277  -3.785  43.122  1.00  0.00    -0.017 C 
HETATM   29  C15 UNL     1       5.620  -3.554  41.682  1.00  0.00     0.010 C 
HETATM   30  C16 UNL     1       3.829  -3.985  43.417  1.00  0.00     0.010 C 
ENDBRANCH  27  28
ENDBRANCH   3  27
BRANCH   9  31
HETATM   31  O3  UNL     1      10.639  -0.062  47.223  1.00  0.00    -0.359 OA
ATOM     32  H3  UNL     1      11.329   0.570  47.061  1.00  0.00     0.217 HD
ENDBRANCH   9  31
TORSDOF 9
ENDMDL
MODEL 5
REMARK VINA RESULT: -7.283740835      1.159      1.724
REMARK  9 active torsions:
REMARK  status: ('A' for Active; 'I' for Inactive)
REMARK    1  A    between atoms: O1_2  and  C2_3 
REMARK    2  A    between atoms: C2_3  and  C3_4 
REMARK    3  A    between atoms: C2_3  and  C10_13 
REMARK    4  A    between atoms: C3_4  and  N1_5 
REMARK    5  A    between atoms: N1_5  and  C4_7 
REMARK    6  A    between atoms: C11_14  and  O2_15 
REMARK    7  A    between atoms: C12_17  and  C13_18 
REMARK    8  A    between atoms: C13_18  and  C14_19 
REMARK    9  A    between atoms: C19_27  and  O3_28 
ROOT
HETATM    1  C10 UNL     1       6.540  -4.219  42.902  1.00  0.00     0.020 A 
HETATM    2  C11 UNL     1       5.263  -4.193  42.304  1.00  0.00     0.098 A 
HETATM    3  C12 UNL     1       4.290  -3.429  42.884  1.00  0.00     0.044 A 
HETATM    4  N2  UNL     1       4.526  -2.715  43.978  1.00  0.00    -0.355 N 
ATOM      5  H2  UNL     1       3.773  -2.157  44.378  1.00  0.00     0.166 HD
HETATM    6  C17 UNL     1       5.758  -2.708  44.587  1.00  0.00     0.064 A 
HETATM    7  C18 UNL     1       5.949  -1.913  45.684  1.00  0.00     0.071 A 
HETATM    8 BR1  UNL     1       4.497  -0.890  46.375  1.00  0.00    -0.046 Br
HETATM    9  C19 UNL     1       7.192  -1.872  46.270  1.00  0.00     0.085 A 
HETATM   10  C20 UNL     1       8.196  -2.637  45.718  1.00  0.00     0.039 A 
HETATM   11  C21 UNL     1       8.049  -3.429  44.642  1.00  0.00     0.017 A 
HETATM   12  C22 UNL     1       6.782  -3.488  44.022  1.00  0.00     0.004 A 
ENDROOT
BRANCH   1  13
HETATM   13  C2  UNL     1       7.598  -4.972  42.194  1.00  0.00     0.174 C 
BRANCH  13  14
HETATM   14  O1  UNL     1       7.234  -6.220  41.825  1.00  0.00    -0.384 OA
HETATM   15  C1  UNL     1       7.869  -6.926  40.875  1.00  0.00     0.202 C 
ENDBRANCH  13  14
BRANCH  13  16
HETATM   16  C3  UNL     1       8.142  -4.228  40.960  1.00  0.00     0.151 C 
BRANCH  16  17
HETATM   17  N1  UNL     1       9.372  -3.605  41.378  1.00  0.00    -0.414 N 
ATOM     18  H1  UNL     1       9.354  -2.649  41.734  1.00  0.00     0.153 HD
BRANCH  17  19
HETATM   19  C4  UNL     1      10.574  -4.281  41.304  1.00  0.00     0.076 C 
HETATM   20  C5  UNL     1      11.118  -5.218  42.275  1.00  0.00     0.024 C 
HETATM   21  C6  UNL     1      12.657  -5.265  42.025  1.00  0.00     0.002 C 
HETATM   22  C7  UNL     1      13.009  -4.946  40.610  1.00  0.00     0.000 C 
HETATM   23  C8  UNL     1      12.020  -5.535  39.668  1.00  0.00     0.002 C 
HETATM   24  C9  UNL     1      10.662  -4.978  39.918  1.00  0.00     0.024 C 
ENDBRANCH  17  19
ENDBRANCH  16  17
ENDBRANCH  13  16
ENDBRANCH   1  13
BRANCH   2  25
HETATM   25  O2  UNL     1       5.056  -4.947  41.160  1.00  0.00    -0.358 OA
ATOM     26  H2  UNL     1       5.593  -5.720  41.025  1.00  0.00     0.217 HD
ENDBRANCH   2  25
BRANCH   3  27
HETATM   27  C13 UNL     1       2.929  -3.550  42.234  1.00  0.00     0.064 C 
BRANCH  27  28
HETATM   28  C14 UNL     1       2.039  -4.573  42.824  1.00  0.00    -0.017 C 
HETATM   29  C15 UNL     1       1.109  -3.951  43.821  1.00  0.00     0.010 C 
HETATM   30  C16 UNL     1       1.417  -5.548  41.881  1.00  0.00     0.010 C 
ENDBRANCH  27  28
ENDBRANCH   3  27
BRANCH   9  31
HETATM   31  O3  UNL     1       7.477  -1.076  47.414  1.00  0.00    -0.359 OA
ATOM     32  H3  UNL     1       8.123  -1.324  48.064  1.00  0.00     0.217 HD
ENDBRANCH   9  31
TORSDOF 9
ENDMDL
