MODEL 1
REMARK VINA RESULT: -5.799167266      0.000      0.000
REMARK  8 active torsions:
REMARK  status: ('A' for Active; 'I' for Inactive)
REMARK    1  A    between atoms: S1_2  and  N1_5 
REMARK    2  A    between atoms: N1_5  and  N2_7 
REMARK    3  A    between atoms: N2_7  and  C2_9 
REMARK    4  A    between atoms: C3_13  and  O3_14 
REMARK    5  A    between atoms: O3_14  and  C4_15 
REMARK    6  A    between atoms: C6_20  and  N5_21 
REMARK    7  A    between atoms: C7_26  and  N6_27 
REMARK    8  A    between atoms: C8_31  and  O5_32 
ROOT
HETATM    1  C2  UNL     1       1.735  76.704  16.485  1.00  0.00     0.450 C 
HETATM    2  N3  UNL     1       3.154  76.391  16.400  1.00  0.00    -0.001 N 
ATOM      3  H31 UNL     1       3.737  77.224  16.491  1.00  0.00     0.285 HD
ATOM      4  H32 UNL     1       3.430  76.119  15.457  1.00  0.00     0.285 HD
HETATM    5  C3  UNL     1       3.499  75.372  17.384  1.00  0.00     0.367 C 
HETATM    6  C7  UNL     1       2.764  75.742  18.665  1.00  0.00     0.317 C 
HETATM    7  C8  UNL     1       1.276  75.667  18.419  1.00  0.00     0.291 C 
HETATM    8  C9  UNL     1       0.699  74.450  19.000  1.00  0.00     0.131 C 
HETATM    9  N7  UNL     1       0.261  73.490  19.459  1.00  0.00    -0.191 NA
HETATM   10  O6  UNL     1       1.087  75.604  17.035  1.00  0.00    -0.291 OA
ENDROOT
BRANCH   7  11
HETATM   11  O5  UNL     1       0.596  76.785  18.876  1.00  0.00    -0.352 OA
ATOM     12  H5  UNL     1      -0.291  76.841  18.541  1.00  0.00     0.214 HD
ENDBRANCH   7  11
BRANCH   6  13
HETATM   13  N6  UNL     1       3.145  74.916  19.778  1.00  0.00    -0.065 N 
ATOM     14  H63 UNL     1       2.382  74.831  20.449  1.00  0.00     0.275 HD
ATOM     15  H62 UNL     1       3.227  73.939  19.498  1.00  0.00     0.275 HD
ATOM     16  H61 UNL     1       3.999  75.240  20.232  1.00  0.00     0.275 HD
ENDBRANCH   6  13
BRANCH   5  17
HETATM   17  O3  UNL     1       4.860  75.411  17.580  1.00  0.00    -0.303 OA
BRANCH  17  18
HETATM   18  C4  UNL     1       5.452  76.553  17.096  1.00  0.00     0.473 C 
HETATM   19  N4  UNL     1       6.870  76.299  16.942  1.00  0.00    -0.021 N 
HETATM   20  C5  UNL     1       7.525  77.543  17.212  1.00  0.00     0.299 C 
ATOM     21  H42 UNL     1       7.209  75.527  17.516  1.00  0.00     0.283 HD
ATOM     22  H41 UNL     1       7.115  75.897  16.037  1.00  0.00     0.283 HD
HETATM   23  C6  UNL     1       6.405  78.489  17.610  1.00  0.00     0.348 C 
HETATM   24  O4  UNL     1       5.372  77.620  17.993  1.00  0.00    -0.304 OA
BRANCH  23  25
HETATM   25  N5  UNL     1       6.764  79.283  18.764  1.00  0.00    -0.051 N 
ATOM     26  H53 UNL     1       6.161  79.076  19.561  1.00  0.00     0.277 HD
ATOM     27  H52 UNL     1       7.657  78.985  19.159  1.00  0.00     0.277 HD
ATOM     28  H51 UNL     1       6.767  80.279  18.549  1.00  0.00     0.277 HD
ENDBRANCH  23  25
ENDBRANCH  17  18
ENDBRANCH   5  17
BRANCH   1  29
HETATM   29  N2  UNL     1       1.238  77.036  15.223  1.00  0.00    -0.275 N 
ATOM     30  H2  UNL     1       0.377  77.576  15.136  1.00  0.00     0.185 HD
BRANCH  29  31
HETATM   31  N1  UNL     1       1.904  76.638  14.120  1.00  0.00    -0.228 N 
ATOM     32  H1  UNL     1       2.736  77.107  13.762  1.00  0.00     0.199 HD
BRANCH  31  33
HETATM   33  S1  UNL     1       1.201  75.260  13.386  1.00  0.00     0.239 S 
HETATM   34  C1  UNL     1      -0.581  75.495  13.416  1.00  0.00     0.187 C 
HETATM   35  O1  UNL     1       1.585  73.979  14.033  1.00  0.00    -0.205 OA
HETATM   36  O2  UNL     1       1.587  75.255  11.925  1.00  0.00    -0.205 OA
ENDBRANCH  31  33
ENDBRANCH  29  31
ENDBRANCH   1  29
TORSDOF 8
ENDMDL
MODEL 2
REMARK VINA RESULT: -5.745355266      2.122      5.516
REMARK  8 active torsions:
REMARK  status: ('A' for Active; 'I' for Inactive)
REMARK    1  A    between atoms: S1_2  and  N1_5 
REMARK    2  A    between atoms: N1_5  and  N2_7 
REMARK    3  A    between atoms: N2_7  and  C2_9 
REMARK    4  A    between atoms: C3_13  and  O3_14 
REMARK    5  A    between atoms: O3_14  and  C4_15 
REMARK    6  A    between atoms: C6_20  and  N5_21 
REMARK    7  A    between atoms: C7_26  and  N6_27 
REMARK    8  A    between atoms: C8_31  and  O5_32 
ROOT
HETATM    1  C2  UNL     1       0.762  75.729  16.548  1.00  0.00     0.450 C 
HETATM    2  N3  UNL     1       0.090  75.464  17.813  1.00  0.00    -0.001 N 
ATOM      3  H31 UNL     1      -0.295  74.520  17.852  1.00  0.00     0.285 HD
ATOM      4  H32 UNL     1      -0.782  75.985  17.899  1.00  0.00     0.285 HD
HETATM    5  C3  UNL     1       0.996  75.731  18.923  1.00  0.00     0.367 C 
HETATM    6  C7  UNL     1       2.351  75.165  18.522  1.00  0.00     0.317 C 
HETATM    7  C8  UNL     1       2.860  75.916  17.315  1.00  0.00     0.291 C 
HETATM    8  C9  UNL     1       3.903  76.880  17.685  1.00  0.00     0.131 C 
HETATM    9  N7  UNL     1       4.717  77.633  17.991  1.00  0.00    -0.191 NA
HETATM   10  O6  UNL     1       1.785  76.639  16.790  1.00  0.00    -0.291 OA
ENDROOT
BRANCH   7  11
HETATM   11  O5  UNL     1       3.319  75.077  16.311  1.00  0.00    -0.352 OA
ATOM     12  H5  UNL     1       3.414  75.517  15.475  1.00  0.00     0.214 HD
ENDBRANCH   7  11
BRANCH   6  13
HETATM   13  N6  UNL     1       3.306  75.206  19.595  1.00  0.00    -0.065 N 
ATOM     14  H63 UNL     1       3.103  74.492  20.294  1.00  0.00     0.275 HD
ATOM     15  H62 UNL     1       4.220  74.877  19.285  1.00  0.00     0.275 HD
ATOM     16  H61 UNL     1       3.375  76.130  20.023  1.00  0.00     0.275 HD
ENDBRANCH   6  13
BRANCH   5  17
HETATM   17  O3  UNL     1       0.512  75.082  20.035  1.00  0.00    -0.303 OA
BRANCH  17  18
HETATM   18  C4  UNL     1      -0.413  74.107  19.743  1.00  0.00     0.473 C 
HETATM   19  N4  UNL     1      -1.495  74.207  20.700  1.00  0.00    -0.021 N 
HETATM   20  C5  UNL     1      -1.966  72.870  20.903  1.00  0.00     0.299 C 
ATOM     21  H42 UNL     1      -1.231  74.681  21.563  1.00  0.00     0.283 HD
ATOM     22  H41 UNL     1      -2.227  74.859  20.420  1.00  0.00     0.283 HD
HETATM   23  C6  UNL     1      -1.034  72.004  20.073  1.00  0.00     0.348 C 
HETATM   24  O4  UNL     1       0.098  72.818  19.906  1.00  0.00    -0.304 OA
BRANCH  23  25
HETATM   25  N5  UNL     1      -0.622  70.821  20.796  1.00  0.00    -0.051 N 
ATOM     26  H53 UNL     1      -0.132  70.165  20.188  1.00  0.00     0.277 HD
ATOM     27  H52 UNL     1       0.135  71.028  21.449  1.00  0.00     0.277 HD
ATOM     28  H51 UNL     1      -1.409  70.376  21.267  1.00  0.00     0.277 HD
ENDBRANCH  23  25
ENDBRANCH  17  18
ENDBRANCH   5  17
BRANCH   1  29
HETATM   29  N2  UNL     1      -0.154  76.200  15.605  1.00  0.00    -0.275 N 
ATOM     30  H2  UNL     1      -1.145  76.260  15.837  1.00  0.00     0.185 HD
BRANCH  29  31
HETATM   31  N1  UNL     1       0.282  76.574  14.385  1.00  0.00    -0.228 N 
ATOM     32  H1  UNL     1       0.478  77.541  14.126  1.00  0.00     0.199 HD
BRANCH  31  33
HETATM   33  S1  UNL     1       0.470  75.249  13.316  1.00  0.00     0.239 S 
HETATM   34  C1  UNL     1       0.984  75.918  11.729  1.00  0.00     0.187 C 
HETATM   35  O1  UNL     1      -0.753  74.417  13.178  1.00  0.00    -0.205 OA
HETATM   36  O2  UNL     1       1.631  74.412  13.802  1.00  0.00    -0.205 OA
ENDBRANCH  31  33
ENDBRANCH  29  31
ENDBRANCH   1  29
TORSDOF 8
ENDMDL
MODEL 3
REMARK VINA RESULT: -5.613923990      2.459      6.175
REMARK  8 active torsions:
REMARK  status: ('A' for Active; 'I' for Inactive)
REMARK    1  A    between atoms: S1_2  and  N1_5 
REMARK    2  A    between atoms: N1_5  and  N2_7 
REMARK    3  A    between atoms: N2_7  and  C2_9 
REMARK    4  A    between atoms: C3_13  and  O3_14 
REMARK    5  A    between atoms: O3_14  and  C4_15 
REMARK    6  A    between atoms: C6_20  and  N5_21 
REMARK    7  A    between atoms: C7_26  and  N6_27 
REMARK    8  A    between atoms: C8_31  and  O5_32 
ROOT
HETATM    1  C2  UNL     1       2.100  75.208  18.541  1.00  0.00     0.450 C 
HETATM    2  N3  UNL     1       1.455  75.381  17.247  1.00  0.00    -0.001 N 
ATOM      3  H31 UNL     1       0.678  76.042  17.291  1.00  0.00     0.285 HD
ATOM      4  H32 UNL     1       0.930  74.553  16.967  1.00  0.00     0.285 HD
HETATM    5  C3  UNL     1       2.442  75.766  16.246  1.00  0.00     0.367 C 
HETATM    6  C7  UNL     1       3.355  76.789  16.908  1.00  0.00     0.317 C 
HETATM    7  C8  UNL     1       4.085  76.130  18.054  1.00  0.00     0.291 C 
HETATM    8  C9  UNL     1       5.475  75.824  17.697  1.00  0.00     0.131 C 
HETATM    9  N7  UNL     1       6.561  75.588  17.401  1.00  0.00    -0.191 NA
HETATM   10  O6  UNL     1       3.440  74.916  18.315  1.00  0.00    -0.291 OA
ENDROOT
BRANCH   7  11
HETATM   11  O5  UNL     1       4.043  76.876  19.221  1.00  0.00    -0.352 OA
ATOM     12  H5  UNL     1       3.410  76.547  19.849  1.00  0.00     0.214 HD
ENDBRANCH   7  11
BRANCH   6  13
HETATM   13  N6  UNL     1       4.278  77.385  15.983  1.00  0.00    -0.065 N 
ATOM     14  H63 UNL     1       4.217  76.942  15.066  1.00  0.00     0.275 HD
ATOM     15  H62 UNL     1       3.985  78.328  15.729  1.00  0.00     0.275 HD
ATOM     16  H61 UNL     1       5.238  77.381  16.329  1.00  0.00     0.275 HD
ENDBRANCH   6  13
BRANCH   5  17
HETATM   17  O3  UNL     1       1.776  76.329  15.183  1.00  0.00    -0.303 OA
BRANCH  17  18
HETATM   18  C4  UNL     1       1.297  75.407  14.283  1.00  0.00     0.473 C 
HETATM   19  N4  UNL     1       1.448  75.954  12.951  1.00  0.00    -0.021 N 
HETATM   20  C5  UNL     1       0.345  75.447  12.190  1.00  0.00     0.299 C 
ATOM     21  H42 UNL     1       1.521  76.970  12.934  1.00  0.00     0.283 HD
ATOM     22  H41 UNL     1       2.356  75.758  12.530  1.00  0.00     0.283 HD
HETATM   23  C6  UNL     1      -0.480  74.657  13.191  1.00  0.00     0.348 C 
HETATM   24  O4  UNL     1      -0.072  75.178  14.428  1.00  0.00    -0.304 OA
BRANCH  23  25
HETATM   25  N5  UNL     1      -1.894  74.925  13.045  1.00  0.00    -0.051 N 
ATOM     26  H53 UNL     1      -2.295  74.398  12.268  1.00  0.00     0.277 HD
ATOM     27  H52 UNL     1      -2.432  74.514  13.809  1.00  0.00     0.277 HD
ATOM     28  H51 UNL     1      -2.080  75.923  12.953  1.00  0.00     0.277 HD
ENDBRANCH  23  25
ENDBRANCH  17  18
ENDBRANCH   5  17
BRANCH   1  29
HETATM   29  N2  UNL     1       1.455  74.207  19.271  1.00  0.00    -0.275 N 
ATOM     30  H2  UNL     1       1.962  73.687  19.987  1.00  0.00     0.185 HD
BRANCH  29  31
HETATM   31  N1  UNL     1       0.159  73.933  19.023  1.00  0.00    -0.228 N 
ATOM     32  H1  UNL     1      -0.160  73.374  18.232  1.00  0.00     0.199 HD
BRANCH  31  33
HETATM   33  S1  UNL     1      -0.896  74.628  20.181  1.00  0.00     0.239 S 
HETATM   34  C1  UNL     1      -1.863  73.287  20.887  1.00  0.00     0.187 C 
HETATM   35  O1  UNL     1      -1.774  75.690  19.626  1.00  0.00    -0.205 OA
HETATM   36  O2  UNL     1      -0.058  75.170  21.316  1.00  0.00    -0.205 OA
ENDBRANCH  31  33
ENDBRANCH  29  31
ENDBRANCH   1  29
TORSDOF 8
ENDMDL
MODEL 4
REMARK VINA RESULT: -5.593808564      2.518      6.410
REMARK  8 active torsions:
REMARK  status: ('A' for Active; 'I' for Inactive)
REMARK    1  A    between atoms: S1_2  and  N1_5 
REMARK    2  A    between atoms: N1_5  and  N2_7 
REMARK    3  A    between atoms: N2_7  and  C2_9 
REMARK    4  A    between atoms: C3_13  and  O3_14 
REMARK    5  A    between atoms: O3_14  and  C4_15 
REMARK    6  A    between atoms: C6_20  and  N5_21 
REMARK    7  A    between atoms: C7_26  and  N6_27 
REMARK    8  A    between atoms: C8_31  and  O5_32 
ROOT
HETATM    1  C2  UNL     1       2.793  76.145  17.504  1.00  0.00     0.450 C 
HETATM    2  N3  UNL     1       1.682  75.745  18.356  1.00  0.00    -0.001 N 
ATOM      3  H31 UNL     1       1.375  76.504  18.966  1.00  0.00     0.285 HD
ATOM      4  H32 UNL     1       1.971  75.083  19.075  1.00  0.00     0.285 HD
HETATM    5  C3  UNL     1       0.592  75.225  17.540  1.00  0.00     0.367 C 
HETATM    6  C7  UNL     1       0.477  76.145  16.333  1.00  0.00     0.317 C 
HETATM    7  C8  UNL     1       1.748  76.056  15.523  1.00  0.00     0.291 C 
HETATM    8  C9  UNL     1       1.560  75.236  14.321  1.00  0.00     0.131 C 
HETATM    9  N7  UNL     1       1.398  74.589  13.384  1.00  0.00    -0.191 NA
HETATM   10  O6  UNL     1       2.706  75.421  16.320  1.00  0.00    -0.291 OA
ENDROOT
BRANCH   7  11
HETATM   11  O5  UNL     1       2.258  77.299  15.180  1.00  0.00    -0.352 OA
ATOM     12  H5  UNL     1       1.860  78.010  15.669  1.00  0.00     0.214 HD
ENDBRANCH   7  11
BRANCH   6  13
HETATM   13  N6  UNL     1      -0.673  75.850  15.522  1.00  0.00    -0.065 N 
ATOM     14  H63 UNL     1      -1.535  75.947  16.059  1.00  0.00     0.275 HD
ATOM     15  H62 UNL     1      -0.829  76.581  14.829  1.00  0.00     0.275 HD
ATOM     16  H61 UNL     1      -0.616  74.932  15.081  1.00  0.00     0.275 HD
ENDBRANCH   6  13
BRANCH   5  17
HETATM   17  O3  UNL     1      -0.560  75.266  18.290  1.00  0.00    -0.303 OA
BRANCH  17  18
HETATM   18  C4  UNL     1      -0.455  74.612  19.495  1.00  0.00     0.473 C 
HETATM   19  N4  UNL     1      -0.298  73.197  19.231  1.00  0.00    -0.021 N 
HETATM   20  C5  UNL     1      -0.946  72.520  20.313  1.00  0.00     0.299 C 
ATOM     21  H42 UNL     1      -0.639  72.915  18.312  1.00  0.00     0.283 HD
ATOM     22  H41 UNL     1       0.672  72.913  19.095  1.00  0.00     0.283 HD
HETATM   23  C6  UNL     1      -1.550  73.630  21.155  1.00  0.00     0.348 C 
HETATM   24  O4  UNL     1      -1.618  74.710  20.261  1.00  0.00    -0.304 OA
BRANCH  23  25
HETATM   25  N5  UNL     1      -2.900  73.313  21.566  1.00  0.00    -0.051 N 
ATOM     26  H53 UNL     1      -2.912  72.819  22.458  1.00  0.00     0.277 HD
ATOM     27  H52 UNL     1      -3.413  74.151  21.841  1.00  0.00     0.277 HD
ATOM     28  H51 UNL     1      -3.399  72.792  20.845  1.00  0.00     0.277 HD
ENDBRANCH  23  25
ENDBRANCH  17  18
ENDBRANCH   5  17
BRANCH   1  29
HETATM   29  N2  UNL     1       4.006  75.936  18.164  1.00  0.00    -0.275 N 
ATOM     30  H2  UNL     1       4.227  75.020  18.555  1.00  0.00     0.185 HD
BRANCH  29  31
HETATM   31  N1  UNL     1       4.883  76.954  18.281  1.00  0.00    -0.228 N 
ATOM     32  H1  UNL     1       4.897  77.601  19.070  1.00  0.00     0.199 HD
BRANCH  31  33
HETATM   33  S1  UNL     1       5.970  77.043  16.960  1.00  0.00     0.239 S 
HETATM   34  C1  UNL     1       7.297  78.157  17.441  1.00  0.00     0.187 C 
HETATM   35  O1  UNL     1       5.332  77.482  15.693  1.00  0.00    -0.205 OA
HETATM   36  O2  UNL     1       6.617  75.688  16.789  1.00  0.00    -0.205 OA
ENDBRANCH  31  33
ENDBRANCH  29  31
ENDBRANCH   1  29
TORSDOF 8
ENDMDL
MODEL 5
REMARK VINA RESULT: -5.572256954      1.893      5.142
REMARK  8 active torsions:
REMARK  status: ('A' for Active; 'I' for Inactive)
REMARK    1  A    between atoms: S1_2  and  N1_5 
REMARK    2  A    between atoms: N1_5  and  N2_7 
REMARK    3  A    between atoms: N2_7  and  C2_9 
REMARK    4  A    between atoms: C3_13  and  O3_14 
REMARK    5  A    between atoms: O3_14  and  C4_15 
REMARK    6  A    between atoms: C6_20  and  N5_21 
REMARK    7  A    between atoms: C7_26  and  N6_27 
REMARK    8  A    between atoms: C8_31  and  O5_32 
ROOT
HETATM    1  C2  UNL     1       2.298  76.224  15.815  1.00  0.00     0.450 C 
HETATM    2  N3  UNL     1       1.340  75.348  16.474  1.00  0.00    -0.001 N 
ATOM      3  H31 UNL     1       1.364  74.400  16.095  1.00  0.00     0.285 HD
ATOM      4  H32 UNL     1       0.378  75.581  16.231  1.00  0.00     0.285 HD
HETATM    5  C3  UNL     1       1.558  75.365  17.915  1.00  0.00     0.367 C 
HETATM    6  C7  UNL     1       3.065  75.323  18.125  1.00  0.00     0.317 C 
HETATM    7  C8  UNL     1       3.679  76.575  17.546  1.00  0.00     0.291 C 
HETATM    8  C9  UNL     1       4.036  77.533  18.599  1.00  0.00     0.131 C 
HETATM    9  N7  UNL     1       4.308  78.274  19.435  1.00  0.00    -0.191 NA
HETATM   10  O6  UNL     1       2.709  77.179  16.739  1.00  0.00    -0.291 OA
ENDROOT
BRANCH   7  11
HETATM   11  O5  UNL     1       4.778  76.316  16.742  1.00  0.00    -0.352 OA
ATOM     12  H5  UNL     1       4.543  76.137  15.839  1.00  0.00     0.214 HD
ENDBRANCH   7  11
BRANCH   6  13
HETATM   13  N6  UNL     1       3.426  75.165  19.507  1.00  0.00    -0.065 N 
ATOM     14  H63 UNL     1       3.444  74.179  19.771  1.00  0.00     0.275 HD
ATOM     15  H62 UNL     1       4.408  75.393  19.658  1.00  0.00     0.275 HD
ATOM     16  H61 UNL     1       2.825  75.701  20.133  1.00  0.00     0.275 HD
ENDBRANCH   6  13
BRANCH   5  17
HETATM   17  O3  UNL     1       0.965  74.247  18.451  1.00  0.00    -0.303 OA
BRANCH  17  18
HETATM   18  C4  UNL     1      -0.243  74.502  19.056  1.00  0.00     0.473 C 
HETATM   19  N4  UNL     1       0.003  75.296  20.242  1.00  0.00    -0.021 N 
HETATM   20  C5  UNL     1      -0.994  74.904  21.192  1.00  0.00     0.299 C 
ATOM     21  H42 UNL     1       0.956  75.215  20.595  1.00  0.00     0.283 HD
ATOM     22  H41 UNL     1       0.022  76.300  20.063  1.00  0.00     0.283 HD
HETATM   23  C6  UNL     1      -1.759  73.785  20.507  1.00  0.00     0.348 C 
HETATM   24  O4  UNL     1      -0.865  73.341  19.521  1.00  0.00    -0.304 OA
BRANCH  23  25
HETATM   25  N5  UNL     1      -2.006  72.680  21.407  1.00  0.00    -0.051 N 
ATOM     26  H53 UNL     1      -2.071  72.996  22.376  1.00  0.00     0.277 HD
ATOM     27  H52 UNL     1      -2.951  72.313  21.296  1.00  0.00     0.277 HD
ATOM     28  H51 UNL     1      -1.307  71.946  21.301  1.00  0.00     0.277 HD
ENDBRANCH  23  25
ENDBRANCH  17  18
ENDBRANCH   5  17
BRANCH   1  29
HETATM   29  N2  UNL     1       1.723  76.800  14.679  1.00  0.00    -0.275 N 
ATOM     30  H2  UNL     1       2.247  77.479  14.127  1.00  0.00     0.185 HD
BRANCH  29  31
HETATM   31  N1  UNL     1       0.472  76.451  14.318  1.00  0.00    -0.228 N 
ATOM     32  H1  UNL     1      -0.368  76.907  14.674  1.00  0.00     0.199 HD
BRANCH  31  33
HETATM   33  S1  UNL     1       0.446  75.157  13.196  1.00  0.00     0.239 S 
HETATM   34  C1  UNL     1      -1.010  75.379  12.166  1.00  0.00     0.187 C 
HETATM   35  O1  UNL     1       0.454  73.815  13.834  1.00  0.00    -0.205 OA
HETATM   36  O2  UNL     1       1.629  75.312  12.269  1.00  0.00    -0.205 OA
ENDBRANCH  31  33
ENDBRANCH  29  31
ENDBRANCH   1  29
TORSDOF 8
ENDMDL
