MODEL 1
REMARK VINA RESULT: -6.075128104      0.000      0.000
REMARK  5 active torsions:
REMARK  status: ('A' for Active; 'I' for Inactive)
REMARK    1  A    between atoms: O1_2  and  C2_3 
REMARK    2  A    between atoms: C2_3  and  C3_4 
REMARK    3  A    between atoms: C3_4  and  O2_5 
REMARK    4  A    between atoms: O2_5  and  C4_6 
REMARK    5  A    between atoms: C17_21  and  O4_22 
ROOT
HETATM    1  C4  UNL     1       8.598  14.348  15.362  1.00  0.00     0.056 C 
HETATM    2  C5  UNL     1       9.609  14.886  14.735  1.00  0.00     0.019 C 
HETATM    3  C6  UNL     1      10.219  14.518  13.478  1.00  0.00     0.007 C 
HETATM    4  C7  UNL     1       9.419  15.199  12.351  1.00  0.00     0.023 C 
HETATM    5  C8  UNL     1      10.137  13.034  13.140  1.00  0.00     0.137 C 
HETATM    6  C9  UNL     1      11.112  12.230  13.962  1.00  0.00     0.034 C 
HETATM    7  C10 UNL     1      12.507  12.673  13.531  1.00  0.00     0.015 C 
HETATM    8  C11 UNL     1      12.650  14.085  13.986  1.00  0.00    -0.008 C 
HETATM    9  C12 UNL     1      12.694  14.260  15.460  1.00  0.00     0.018 C 
HETATM   10  C13 UNL     1      13.913  14.759  13.428  1.00  0.00     0.178 C 
HETATM   11  F1  UNL     1      14.076  14.462  12.097  1.00  0.00    -0.249 F 
HETATM   12  C14 UNL     1      13.551  16.228  13.597  1.00  0.00     0.038 C 
HETATM   13  C15 UNL     1      12.025  16.292  13.659  1.00  0.00     0.009 C 
HETATM   14  C16 UNL     1      11.627  14.924  13.277  1.00  0.00     0.011 C 
HETATM   15  O3  UNL     1       8.884  12.549  13.052  1.00  0.00    -0.354 OA
HETATM   16  C17 UNL     1       8.234  12.170  14.170  1.00  0.00     0.271 C 
HETATM   17  C18 UNL     1       7.729  13.229  15.065  1.00  0.00     0.051 C 
HETATM   18  C19 UNL     1       6.402  13.805  14.551  1.00  0.00     0.027 C 
HETATM   19  C20 UNL     1       7.373  12.556  16.400  1.00  0.00     0.027 C 
ENDROOT
BRANCH   1  20
HETATM   20  O2  UNL     1       8.256  14.967  16.590  1.00  0.00    -0.353 OA
BRANCH  20  21
HETATM   21  C3  UNL     1       8.050  16.389  16.474  1.00  0.00     0.201 C 
BRANCH  21  22
HETATM   22  C2  UNL     1       7.296  16.927  17.639  1.00  0.00     0.193 C 
BRANCH  22  23
HETATM   23  O1  UNL     1       6.188  16.162  17.900  1.00  0.00    -0.394 OA
HETATM   24  C1  UNL     1       5.058  16.460  17.188  1.00  0.00     0.201 C 
ENDBRANCH  22  23
ENDBRANCH  21  22
ENDBRANCH  20  21
ENDBRANCH   1  20
BRANCH  16  25
HETATM   25  O4  UNL     1       8.918  11.190  14.929  1.00  0.00    -0.370 OA
ATOM     26  H4  UNL     1       8.421  10.393  15.066  1.00  0.00     0.212 HD
ENDBRANCH  16  25
TORSDOF 5
ENDMDL
MODEL 2
REMARK VINA RESULT: -6.056891962      5.673      8.643
REMARK  5 active torsions:
REMARK  status: ('A' for Active; 'I' for Inactive)
REMARK    1  A    between atoms: O1_2  and  C2_3 
REMARK    2  A    between atoms: C2_3  and  C3_4 
REMARK    3  A    between atoms: C3_4  and  O2_5 
REMARK    4  A    between atoms: O2_5  and  C4_6 
REMARK    5  A    between atoms: C17_21  and  O4_22 
ROOT
HETATM    1  C4  UNL     1      15.287  16.866  15.823  1.00  0.00     0.056 C 
HETATM    2  C5  UNL     1      16.552  16.941  15.510  1.00  0.00     0.019 C 
HETATM    3  C6  UNL     1      17.517  17.976  15.804  1.00  0.00     0.007 C 
HETATM    4  C7  UNL     1      18.088  17.700  17.208  1.00  0.00     0.023 C 
HETATM    5  C8  UNL     1      16.932  19.379  15.916  1.00  0.00     0.137 C 
HETATM    6  C9  UNL     1      16.593  19.942  14.560  1.00  0.00     0.034 C 
HETATM    7  C10 UNL     1      17.917  20.107  13.819  1.00  0.00     0.015 C 
HETATM    8  C11 UNL     1      18.428  18.729  13.577  1.00  0.00    -0.008 C 
HETATM    9  C12 UNL     1      17.621  17.925  12.624  1.00  0.00     0.018 C 
HETATM   10  C13 UNL     1      19.870  18.720  13.045  1.00  0.00     0.178 C 
HETATM   11  F1  UNL     1      20.650  19.616  13.734  1.00  0.00    -0.249 F 
HETATM   12  C14 UNL     1      20.289  17.295  13.377  1.00  0.00     0.038 C 
HETATM   13  C15 UNL     1      19.374  16.829  14.509  1.00  0.00     0.009 C 
HETATM   14  C16 UNL     1      18.685  18.073  14.903  1.00  0.00     0.011 C 
HETATM   15  O3  UNL     1      15.996  19.520  16.874  1.00  0.00    -0.354 OA
HETATM   16  C17 UNL     1      14.718  19.177  16.616  1.00  0.00     0.271 C 
HETATM   17  C18 UNL     1      14.391  17.739  16.549  1.00  0.00     0.051 C 
HETATM   18  C19 UNL     1      14.213  17.145  17.954  1.00  0.00     0.027 C 
HETATM   19  C20 UNL     1      13.006  17.625  15.896  1.00  0.00     0.027 C 
ENDROOT
BRANCH   1  20
HETATM   20  O2  UNL     1      14.628  15.695  15.371  1.00  0.00    -0.353 OA
BRANCH  20  21
HETATM   21  C3  UNL     1      15.351  14.483  15.662  1.00  0.00     0.201 C 
BRANCH  21  22
HETATM   22  C2  UNL     1      14.567  13.276  15.288  1.00  0.00     0.193 C 
BRANCH  22  23
HETATM   23  O1  UNL     1      15.282  12.474  14.434  1.00  0.00    -0.394 OA
HETATM   24  C1  UNL     1      14.803  12.361  13.157  1.00  0.00     0.201 C 
ENDBRANCH  22  23
ENDBRANCH  21  22
ENDBRANCH  20  21
ENDBRANCH   1  20
BRANCH  16  25
HETATM   25  O4  UNL     1      14.157  19.845  15.502  1.00  0.00    -0.370 OA
ATOM     26  H4  UNL     1      13.650  19.282  14.929  1.00  0.00     0.212 HD
ENDBRANCH  16  25
TORSDOF 5
ENDMDL
MODEL 3
REMARK VINA RESULT: -6.015110998      3.319      6.270
REMARK  5 active torsions:
REMARK  status: ('A' for Active; 'I' for Inactive)
REMARK    1  A    between atoms: O1_2  and  C2_3 
REMARK    2  A    between atoms: C2_3  and  C3_4 
REMARK    3  A    between atoms: C3_4  and  O2_5 
REMARK    4  A    between atoms: O2_5  and  C4_6 
REMARK    5  A    between atoms: C17_21  and  O4_22 
ROOT
HETATM    1  C4  UNL     1      13.120  14.734  12.573  1.00  0.00     0.056 C 
HETATM    2  C5  UNL     1      12.077  14.008  12.871  1.00  0.00     0.019 C 
HETATM    3  C6  UNL     1      10.675  14.358  12.867  1.00  0.00     0.007 C 
HETATM    4  C7  UNL     1      10.147  14.165  11.433  1.00  0.00     0.023 C 
HETATM    5  C8  UNL     1      10.383  15.823  13.171  1.00  0.00     0.137 C 
HETATM    6  C9  UNL     1      10.557  16.124  14.637  1.00  0.00     0.034 C 
HETATM    7  C10 UNL     1       9.479  15.330  15.370  1.00  0.00     0.015 C 
HETATM    8  C11 UNL     1       9.837  13.894  15.200  1.00  0.00    -0.008 C 
HETATM    9  C12 UNL     1      11.080  13.477  15.898  1.00  0.00     0.018 C 
HETATM   10  C13 UNL     1       8.726  12.948  15.681  1.00  0.00     0.178 C 
HETATM   11  F1  UNL     1       7.494  13.389  15.262  1.00  0.00    -0.249 F 
HETATM   12  C14 UNL     1       9.103  11.668  14.949  1.00  0.00     0.038 C 
HETATM   13  C15 UNL     1       9.948  12.091  13.747  1.00  0.00     0.009 C 
HETATM   14  C16 UNL     1       9.787  13.558  13.737  1.00  0.00     0.011 C 
HETATM   15  O3  UNL     1      10.942  16.695  12.309  1.00  0.00    -0.354 OA
HETATM   16  C17 UNL     1      12.223  17.076  12.482  1.00  0.00     0.271 C 
HETATM   17  C18 UNL     1      13.282  16.106  12.142  1.00  0.00     0.051 C 
HETATM   18  C19 UNL     1      13.547  16.082  10.629  1.00  0.00     0.027 C 
HETATM   19  C20 UNL     1      14.587  16.632  12.760  1.00  0.00     0.027 C 
ENDROOT
BRANCH   1  20
HETATM   20  O2  UNL     1      14.365  14.067  12.684  1.00  0.00    -0.353 OA
BRANCH  20  21
HETATM   21  C3  UNL     1      14.273  12.792  13.348  1.00  0.00     0.201 C 
BRANCH  21  22
HETATM   22  C2  UNL     1      15.070  12.771  14.604  1.00  0.00     0.193 C 
BRANCH  22  23
HETATM   23  O1  UNL     1      15.520  14.029  14.918  1.00  0.00    -0.394 OA
HETATM   24  C1  UNL     1      14.877  14.671  15.941  1.00  0.00     0.201 C 
ENDBRANCH  22  23
ENDBRANCH  21  22
ENDBRANCH  20  21
ENDBRANCH   1  20
BRANCH  16  25
HETATM   25  O4  UNL     1      12.488  17.645  13.751  1.00  0.00    -0.370 OA
ATOM     26  H4  UNL     1      12.302  18.575  13.803  1.00  0.00     0.212 HD
ENDBRANCH  16  25
TORSDOF 5
ENDMDL
MODEL 4
REMARK VINA RESULT: -5.978390095      4.210      7.456
REMARK  5 active torsions:
REMARK  status: ('A' for Active; 'I' for Inactive)
REMARK    1  A    between atoms: O1_2  and  C2_3 
REMARK    2  A    between atoms: C2_3  and  C3_4 
REMARK    3  A    between atoms: C3_4  and  O2_5 
REMARK    4  A    between atoms: O2_5  and  C4_6 
REMARK    5  A    between atoms: C17_21  and  O4_22 
ROOT
HETATM    1  C4  UNL     1      15.615  16.959  15.907  1.00  0.00     0.056 C 
HETATM    2  C5  UNL     1      15.123  16.101  15.055  1.00  0.00     0.019 C 
HETATM    3  C6  UNL     1      13.843  16.097  14.383  1.00  0.00     0.007 C 
HETATM    4  C7  UNL     1      13.973  16.969  13.121  1.00  0.00     0.023 C 
HETATM    5  C8  UNL     1      12.710  16.750  15.166  1.00  0.00     0.137 C 
HETATM    6  C9  UNL     1      12.237  15.862  16.288  1.00  0.00     0.034 C 
HETATM    7  C10 UNL     1      11.624  14.628  15.632  1.00  0.00     0.015 C 
HETATM    8  C11 UNL     1      12.753  13.904  14.983  1.00  0.00    -0.008 C 
HETATM    9  C12 UNL     1      13.737  13.316  15.926  1.00  0.00     0.018 C 
HETATM   10  C13 UNL     1      12.274  12.757  14.079  1.00  0.00     0.178 C 
HETATM   11  F1  UNL     1      11.201  13.151  13.317  1.00  0.00    -0.249 F 
HETATM   12  C14 UNL     1      13.499  12.559  13.196  1.00  0.00     0.038 C 
HETATM   13  C15 UNL     1      14.279  13.873  13.239  1.00  0.00     0.009 C 
HETATM   14  C16 UNL     1      13.340  14.786  13.920  1.00  0.00     0.011 C 
HETATM   15  O3  UNL     1      12.916  18.045  15.473  1.00  0.00    -0.354 OA
HETATM   16  C17 UNL     1      13.644  18.367  16.560  1.00  0.00     0.271 C 
HETATM   17  C18 UNL     1      15.106  18.182  16.490  1.00  0.00     0.051 C 
HETATM   18  C19 UNL     1      15.779  19.352  15.757  1.00  0.00     0.027 C 
HETATM   19  C20 UNL     1      15.638  18.263  17.929  1.00  0.00     0.027 C 
ENDROOT
BRANCH   1  20
HETATM   20  O2  UNL     1      16.918  16.655  16.376  1.00  0.00    -0.353 OA
BRANCH  20  21
HETATM   21  C3  UNL     1      17.749  16.023  15.384  1.00  0.00     0.201 C 
BRANCH  21  22
HETATM   22  C2  UNL     1      18.604  17.014  14.675  1.00  0.00     0.193 C 
BRANCH  22  23
HETATM   23  O1  UNL     1      18.309  17.042  13.335  1.00  0.00    -0.394 OA
HETATM   24  C1  UNL     1      17.610  18.129  12.886  1.00  0.00     0.201 C 
ENDBRANCH  22  23
ENDBRANCH  21  22
ENDBRANCH  20  21
ENDBRANCH   1  20
BRANCH  16  25
HETATM   25  O4  UNL     1      13.151  17.814  17.766  1.00  0.00    -0.370 OA
ATOM     26  H4  UNL     1      13.477  16.941  17.952  1.00  0.00     0.212 HD
ENDBRANCH  16  25
TORSDOF 5
ENDMDL
MODEL 5
REMARK VINA RESULT: -5.966856690      3.661      6.865
REMARK  5 active torsions:
REMARK  status: ('A' for Active; 'I' for Inactive)
REMARK    1  A    between atoms: O1_2  and  C2_3 
REMARK    2  A    between atoms: C2_3  and  C3_4 
REMARK    3  A    between atoms: C3_4  and  O2_5 
REMARK    4  A    between atoms: O2_5  and  C4_6 
REMARK    5  A    between atoms: C17_21  and  O4_22 
ROOT
HETATM    1  C4  UNL     1      14.282  16.146  13.880  1.00  0.00     0.056 C 
HETATM    2  C5  UNL     1      13.130  15.745  13.417  1.00  0.00     0.019 C 
HETATM    3  C6  UNL     1      11.852  15.640  14.083  1.00  0.00     0.007 C 
HETATM    4  C7  UNL     1      11.171  17.019  14.013  1.00  0.00     0.023 C 
HETATM    5  C8  UNL     1      11.934  15.346  15.577  1.00  0.00     0.137 C 
HETATM    6  C9  UNL     1      12.298  13.907  15.834  1.00  0.00     0.034 C 
HETATM    7  C10 UNL     1      11.134  13.068  15.314  1.00  0.00     0.015 C 
HETATM    8  C11 UNL     1      11.135  13.235  13.834  1.00  0.00    -0.008 C 
HETATM    9  C12 UNL     1      12.303  12.634  13.142  1.00  0.00     0.018 C 
HETATM   10  C13 UNL     1       9.881  12.641  13.173  1.00  0.00     0.178 C 
HETATM   11  F1  UNL     1       8.753  12.966  13.886  1.00  0.00    -0.249 F 
HETATM   12  C14 UNL     1       9.886  13.372  11.839  1.00  0.00     0.038 C 
HETATM   13  C15 UNL     1      10.699  14.650  12.050  1.00  0.00     0.009 C 
HETATM   14  C16 UNL     1      10.881  14.680  13.514  1.00  0.00     0.011 C 
HETATM   15  O3  UNL     1      12.603  16.271  16.292  1.00  0.00    -0.354 OA
HETATM   16  C17 UNL     1      13.947  16.215  16.366  1.00  0.00     0.271 C 
HETATM   17  C18 UNL     1      14.720  16.620  15.176  1.00  0.00     0.051 C 
HETATM   18  C19 UNL     1      14.840  18.148  15.086  1.00  0.00     0.027 C 
HETATM   19  C20 UNL     1      16.159  16.125  15.386  1.00  0.00     0.027 C 
ENDROOT
BRANCH   1  20
HETATM   20  O2  UNL     1      15.345  16.123  12.943  1.00  0.00    -0.353 OA
BRANCH  20  21
HETATM   21  C3  UNL     1      15.167  17.053  11.856  1.00  0.00     0.201 C 
BRANCH  21  22
HETATM   22  C2  UNL     1      16.340  17.957  11.713  1.00  0.00     0.193 C 
BRANCH  22  23
HETATM   23  O1  UNL     1      17.418  17.472  12.411  1.00  0.00    -0.394 OA
HETATM   24  C1  UNL     1      18.129  18.381  13.146  1.00  0.00     0.201 C 
ENDBRANCH  22  23
ENDBRANCH  21  22
ENDBRANCH  20  21
ENDBRANCH   1  20
BRANCH  16  25
HETATM   25  O4  UNL     1      14.445  14.986  16.862  1.00  0.00    -0.370 OA
ATOM     26  H4  UNL     1      14.500  14.300  16.207  1.00  0.00     0.212 HD
ENDBRANCH  16  25
TORSDOF 5
ENDMDL
