MODEL 1
REMARK VINA RESULT: -6.678390986      0.000      0.000
REMARK  3 active torsions:
REMARK  status: ('A' for Active; 'I' for Inactive)
REMARK    1  A    between atoms: C2_2  and  C4_4 
REMARK    2  A    between atoms: C4_4  and  C5_5 
REMARK    3  A    between atoms: C17_22  and  C19_24 
ROOT
HETATM    1  C5  UNL     1      12.269  15.668  10.890  1.00  0.00     0.038 A 
HETATM    2  N1  UNL     1      13.564  15.960  11.070  1.00  0.00    -0.310 N 
ATOM      3  H1  UNL     1      14.095  16.397  10.316  1.00  0.00     0.170 HD
HETATM    4  C6  UNL     1      14.167  15.682  12.238  1.00  0.00     0.328 A 
HETATM    5  O1  UNL     1      15.389  15.972  12.374  1.00  0.00    -0.246 OA
HETATM    6  N2  UNL     1      13.437  15.107  13.211  1.00  0.00    -0.279 N 
HETATM    7  C7  UNL     1      12.123  14.777  13.103  1.00  0.00     0.070 A 
HETATM    8  C8  UNL     1      11.520  15.078  11.886  1.00  0.00     0.084 A 
HETATM    9 CL1  UNL     1       9.829  14.744  11.614  1.00  0.00    -0.080 Cl
HETATM   10  C9  UNL     1      11.760  14.155  14.318  1.00  0.00    -0.024 C 
HETATM   11  C10 UNL     1      10.618  13.474  14.805  1.00  0.00    -0.071 C 
HETATM   12  C11 UNL     1      10.310  12.174  14.087  1.00  0.00     0.034 C 
HETATM   13  C12 UNL     1       8.863  11.853  13.967  1.00  0.00     0.004 C 
HETATM   14  C13 UNL     1       8.241  11.833  15.316  1.00  0.00     0.001 C 
HETATM   15  C14 UNL     1       8.610  13.052  16.080  1.00  0.00     0.004 C 
HETATM   16  C15 UNL     1       9.320  14.093  15.163  1.00  0.00     0.034 C 
HETATM   17  C16 UNL     1      12.607  14.923  15.340  1.00  0.00     0.082 C 
HETATM   18  C17 UNL     1      13.934  14.818  14.574  1.00  0.00     0.121 C 
HETATM   19  C18 UNL     1      14.906  15.894  15.029  1.00  0.00     0.049 C 
ENDROOT
BRANCH  18  20
HETATM   20  C19 UNL     1      14.563  13.515  14.678  1.00  0.00     0.260 C 
HETATM   21  N3  UNL     1      14.982  12.854  13.488  1.00  0.00    -0.060 NA
HETATM   22  O2  UNL     1      14.768  12.913  15.784  1.00  0.00    -0.274 OA
ENDBRANCH  18  20
BRANCH   1  23
HETATM   23  C4  UNL     1      11.554  15.957   9.621  1.00  0.00     0.063 C 
BRANCH  23  24
HETATM   24  C2  UNL     1      12.362  15.808   8.386  1.00  0.00    -0.017 C 
HETATM   25  C1  UNL     1      11.612  14.796   7.501  1.00  0.00     0.010 C 
HETATM   26  C3  UNL     1      12.406  17.131   7.656  1.00  0.00     0.010 C 
ENDBRANCH  23  24
ENDBRANCH   1  23
TORSDOF 3
ENDMDL
MODEL 2
REMARK VINA RESULT: -6.620331206      4.030      6.045
REMARK  3 active torsions:
REMARK  status: ('A' for Active; 'I' for Inactive)
REMARK    1  A    between atoms: C2_2  and  C4_4 
REMARK    2  A    between atoms: C4_4  and  C5_5 
REMARK    3  A    between atoms: C17_22  and  C19_24 
ROOT
HETATM    1  C5  UNL     1      11.584  15.514  15.940  1.00  0.00     0.038 A 
HETATM    2  N1  UNL     1      11.473  16.773  16.385  1.00  0.00    -0.310 N 
ATOM      3  H1  UNL     1      12.312  17.314  16.591  1.00  0.00     0.170 HD
HETATM    4  C6  UNL     1      10.261  17.326  16.559  1.00  0.00     0.328 A 
HETATM    5  O1  UNL     1      10.192  18.516  16.979  1.00  0.00    -0.246 OA
HETATM    6  N2  UNL     1       9.175  16.585  16.276  1.00  0.00    -0.279 N 
HETATM    7  C7  UNL     1       9.207  15.303  15.825  1.00  0.00     0.070 A 
HETATM    8  C8  UNL     1      10.472  14.753  15.650  1.00  0.00     0.084 A 
HETATM    9 CL1  UNL     1      10.669  13.128  15.045  1.00  0.00    -0.080 Cl
HETATM   10  C9  UNL     1       7.863  14.882  15.707  1.00  0.00    -0.024 C 
HETATM   11  C10 UNL     1       7.206  13.659  15.429  1.00  0.00    -0.071 C 
HETATM   12  C11 UNL     1       7.414  12.584  16.480  1.00  0.00     0.034 C 
HETATM   13  C12 UNL     1       7.465  11.194  15.952  1.00  0.00     0.004 C 
HETATM   14  C13 UNL     1       6.226  10.904  15.185  1.00  0.00     0.001 C 
HETATM   15  C14 UNL     1       5.945  11.994  14.216  1.00  0.00     0.004 C 
HETATM   16  C15 UNL     1       7.149  12.977  14.114  1.00  0.00     0.034 C 
HETATM   17  C16 UNL     1       7.159  16.171  15.266  1.00  0.00     0.082 C 
HETATM   18  C17 UNL     1       7.782  17.079  16.336  1.00  0.00     0.121 C 
HETATM   19  C18 UNL     1       7.712  18.537  15.913  1.00  0.00     0.049 C 
ENDROOT
BRANCH  18  20
HETATM   20  C19 UNL     1       7.187  16.922  17.650  1.00  0.00     0.260 C 
HETATM   21  N3  UNL     1       6.014  16.126  17.786  1.00  0.00    -0.060 NA
HETATM   22  O2  UNL     1       7.653  17.462  18.708  1.00  0.00    -0.274 OA
ENDBRANCH  18  20
BRANCH   1  23
HETATM   23  C4  UNL     1      12.898  14.856  15.727  1.00  0.00     0.063 C 
BRANCH  23  24
HETATM   24  C2  UNL     1      13.946  15.709  15.117  1.00  0.00    -0.017 C 
HETATM   25  C1  UNL     1      15.278  15.281  15.761  1.00  0.00     0.010 C 
HETATM   26  C3  UNL     1      14.026  15.419  13.635  1.00  0.00     0.010 C 
ENDBRANCH  23  24
ENDBRANCH   1  23
TORSDOF 3
ENDMDL
MODEL 3
REMARK VINA RESULT: -6.510382970      3.388      6.166
REMARK  3 active torsions:
REMARK  status: ('A' for Active; 'I' for Inactive)
REMARK    1  A    between atoms: C2_2  and  C4_4 
REMARK    2  A    between atoms: C4_4  and  C5_5 
REMARK    3  A    between atoms: C17_22  and  C19_24 
ROOT
HETATM    1  C5  UNL     1      10.328  15.029  15.884  1.00  0.00     0.038 A 
HETATM    2  N1  UNL     1      10.360  13.855  15.238  1.00  0.00    -0.310 N 
ATOM      3  H1  UNL     1       9.509  13.299  15.153  1.00  0.00     0.170 HD
HETATM    4  C6  UNL     1      11.507  13.408  14.701  1.00  0.00     0.328 A 
HETATM    5  O1  UNL     1      11.503  12.299  14.097  1.00  0.00    -0.246 OA
HETATM    6  N2  UNL     1      12.610  14.168  14.830  1.00  0.00    -0.279 N 
HETATM    7  C7  UNL     1      12.657  15.365  15.473  1.00  0.00     0.070 A 
HETATM    8  C8  UNL     1      11.457  15.807  16.019  1.00  0.00     0.084 A 
HETATM    9 CL1  UNL     1      11.357  17.342  16.843  1.00  0.00    -0.080 Cl
HETATM   10  C9  UNL     1      14.001  15.798  15.425  1.00  0.00    -0.024 C 
HETATM   11  C10 UNL     1      14.743  16.860  15.996  1.00  0.00    -0.071 C 
HETATM   12  C11 UNL     1      14.852  16.804  17.509  1.00  0.00     0.034 C 
HETATM   13  C12 UNL     1      14.880  18.129  18.183  1.00  0.00     0.004 C 
HETATM   14  C13 UNL     1      15.994  18.947  17.636  1.00  0.00     0.001 C 
HETATM   15  C14 UNL     1      15.969  18.936  16.152  1.00  0.00     0.004 C 
HETATM   16  C15 UNL     1      14.655  18.290  15.618  1.00  0.00     0.034 C 
HETATM   17  C16 UNL     1      14.457  15.283  14.054  1.00  0.00     0.082 C 
HETATM   18  C17 UNL     1      13.922  13.853  14.224  1.00  0.00     0.121 C 
HETATM   19  C18 UNL     1      13.741  13.182  12.873  1.00  0.00     0.049 C 
ENDROOT
BRANCH  18  20
HETATM   20  C19 UNL     1      14.750  13.021  15.076  1.00  0.00     0.260 C 
HETATM   21  N3  UNL     1      15.888  12.374  14.515  1.00  0.00    -0.060 NA
HETATM   22  O2  UNL     1      14.519  12.826  16.316  1.00  0.00    -0.274 OA
ENDBRANCH  18  20
BRANCH   1  23
HETATM   23  C4  UNL     1       9.086  15.570  16.493  1.00  0.00     0.063 C 
BRANCH  23  24
HETATM   24  C2  UNL     1       7.825  15.193  15.811  1.00  0.00    -0.017 C 
HETATM   25  C1  UNL     1       6.705  15.360  16.854  1.00  0.00     0.010 C 
HETATM   26  C3  UNL     1       7.561  16.161  14.679  1.00  0.00     0.010 C 
ENDBRANCH  23  24
ENDBRANCH   1  23
TORSDOF 3
ENDMDL
MODEL 4
REMARK VINA RESULT: -6.471825131      3.148      6.548
REMARK  3 active torsions:
REMARK  status: ('A' for Active; 'I' for Inactive)
REMARK    1  A    between atoms: C2_2  and  C4_4 
REMARK    2  A    between atoms: C4_4  and  C5_5 
REMARK    3  A    between atoms: C17_22  and  C19_24 
ROOT
HETATM    1  C5  UNL     1      11.514  16.218  16.395  1.00  0.00     0.038 A 
HETATM    2  N1  UNL     1      11.154  14.930  16.488  1.00  0.00    -0.310 N 
ATOM      3  H1  UNL     1      10.451  14.648  17.171  1.00  0.00     0.170 HD
HETATM    4  C6  UNL     1      11.713  14.010  15.685  1.00  0.00     0.328 A 
HETATM    5  O1  UNL     1      11.350  12.805  15.798  1.00  0.00    -0.246 OA
HETATM    6  N2  UNL     1      12.636  14.416  14.794  1.00  0.00    -0.279 N 
HETATM    7  C7  UNL     1      13.055  15.701  14.643  1.00  0.00     0.070 A 
HETATM    8  C8  UNL     1      12.460  16.636  15.483  1.00  0.00     0.084 A 
HETATM    9 CL1  UNL     1      12.872  18.328  15.379  1.00  0.00    -0.080 Cl
HETATM   10  C9  UNL     1      14.058  15.685  13.648  1.00  0.00    -0.024 C 
HETATM   11  C10 UNL     1      14.974  16.627  13.120  1.00  0.00    -0.071 C 
HETATM   12  C11 UNL     1      16.014  17.113  14.112  1.00  0.00     0.034 C 
HETATM   13  C12 UNL     1      16.435  18.528  13.933  1.00  0.00     0.004 C 
HETATM   14  C13 UNL     1      16.938  18.730  12.549  1.00  0.00     0.001 C 
HETATM   15  C14 UNL     1      15.983  18.170  11.560  1.00  0.00     0.004 C 
HETATM   16  C15 UNL     1      14.639  17.772  12.242  1.00  0.00     0.034 C 
HETATM   17  C16 UNL     1      13.557  14.588  12.702  1.00  0.00     0.082 C 
HETATM   18  C17 UNL     1      13.277  13.540  13.790  1.00  0.00     0.121 C 
HETATM   19  C18 UNL     1      12.297  12.493  13.290  1.00  0.00     0.049 C 
ENDROOT
BRANCH  18  20
HETATM   20  C19 UNL     1      14.473  12.891  14.293  1.00  0.00     0.260 C 
HETATM   21  N3  UNL     1      15.289  12.152  13.389  1.00  0.00    -0.060 NA
HETATM   22  O2  UNL     1      14.845  12.938  15.512  1.00  0.00    -0.274 OA
ENDBRANCH  18  20
BRANCH   1  23
HETATM   23  C4  UNL     1      10.925  17.275  17.255  1.00  0.00     0.063 C 
BRANCH  23  24
HETATM   24  C2  UNL     1       9.444  17.358  17.239  1.00  0.00    -0.017 C 
HETATM   25  C1  UNL     1       9.044  18.145  18.501  1.00  0.00     0.010 C 
HETATM   26  C3  UNL     1       9.001  18.151  16.030  1.00  0.00     0.010 C 
ENDBRANCH  23  24
ENDBRANCH   1  23
TORSDOF 3
ENDMDL
MODEL 5
REMARK VINA RESULT: -6.458729999      1.324      1.435
REMARK  3 active torsions:
REMARK  status: ('A' for Active; 'I' for Inactive)
REMARK    1  A    between atoms: C2_2  and  C4_4 
REMARK    2  A    between atoms: C4_4  and  C5_5 
REMARK    3  A    between atoms: C17_22  and  C19_24 
ROOT
HETATM    1  C5  UNL     1      13.381  16.041  11.110  1.00  0.00     0.038 A 
HETATM    2  N1  UNL     1      14.550  16.519  11.558  1.00  0.00    -0.310 N 
ATOM      3  H1  UNL     1      15.169  17.025  10.924  1.00  0.00     0.170 HD
HETATM    4  C6  UNL     1      14.912  16.336  12.839  1.00  0.00     0.328 A 
HETATM    5  O1  UNL     1      16.020  16.800  13.229  1.00  0.00    -0.246 OA
HETATM    6  N2  UNL     1      14.073  15.666  13.649  1.00  0.00    -0.279 N 
HETATM    7  C7  UNL     1      12.874  15.149  13.268  1.00  0.00     0.070 A 
HETATM    8  C8  UNL     1      12.521  15.353  11.939  1.00  0.00     0.084 A 
HETATM    9 CL1  UNL     1      10.996  14.777  11.316  1.00  0.00    -0.080 Cl
HETATM   10  C9  UNL     1      12.343  14.485  14.396  1.00  0.00    -0.024 C 
HETATM   11  C10 UNL     1      11.228  13.648  14.646  1.00  0.00    -0.071 C 
HETATM   12  C11 UNL     1      11.272  12.314  13.925  1.00  0.00     0.034 C 
HETATM   13  C12 UNL     1       9.947  11.787  13.503  1.00  0.00     0.004 C 
HETATM   14  C13 UNL     1       9.051  11.682  14.683  1.00  0.00     0.001 C 
HETATM   15  C14 UNL     1       9.067  12.945  15.464  1.00  0.00     0.004 C 
HETATM   16  C15 UNL     1       9.809  14.074  14.688  1.00  0.00     0.034 C 
HETATM   17  C16 UNL     1      12.825  15.372  15.550  1.00  0.00     0.082 C 
HETATM   18  C17 UNL     1      14.290  15.457  15.097  1.00  0.00     0.121 C 
HETATM   19  C18 UNL     1      14.976  16.664  15.714  1.00  0.00     0.049 C 
ENDROOT
BRANCH  18  20
HETATM   20  C19 UNL     1      15.058  14.260  15.383  1.00  0.00     0.260 C 
HETATM   21  N3  UNL     1      14.414  13.166  16.030  1.00  0.00    -0.060 NA
HETATM   22  O2  UNL     1      16.292  14.122  15.090  1.00  0.00    -0.274 OA
ENDBRANCH  18  20
BRANCH   1  23
HETATM   23  C4  UNL     1      12.932  16.219   9.706  1.00  0.00     0.063 C 
BRANCH  23  24
HETATM   24  C2  UNL     1      13.161  17.566   9.129  1.00  0.00    -0.017 C 
HETATM   25  C1  UNL     1      14.010  17.353   7.862  1.00  0.00     0.010 C 
HETATM   26  C3  UNL     1      11.835  18.162   8.712  1.00  0.00     0.010 C 
ENDBRANCH  23  24
ENDBRANCH   1  23
TORSDOF 3
ENDMDL
