MODEL 1
REMARK VINA RESULT: -5.807904907      0.000      0.000
REMARK  9 active torsions:
REMARK  status: ('A' for Active; 'I' for Inactive)
REMARK    1  A    between atoms: O1_2  and  C2_3 
REMARK    2  A    between atoms: C4_5  and  C5_6 
REMARK    3  A    between atoms: C5_6  and  C6_7 
REMARK    4  A    between atoms: C8_11  and  N2_12 
REMARK    5  A    between atoms: C9_17  and  N4_18 
REMARK    6  A    between atoms: C10_21  and  O2_22 
REMARK    7  A    between atoms: O2_22  and  C11_23 
REMARK    8  A    between atoms: C17_29  and  O3_30 
REMARK    9  A    between atoms: C19_32  and  O4_33 
ROOT
HETATM    1  C2  UNL     1      12.402   0.579   0.427  1.00  0.00     0.105 A 
HETATM    2  C3  UNL     1      11.653   1.165   1.443  1.00  0.00     0.050 A 
HETATM    3  C4  UNL     1      12.083   2.254   2.159  1.00  0.00    -0.015 A 
HETATM    4  C10 UNL     1      13.333   2.855   1.901  1.00  0.00     0.112 A 
HETATM    5  C17 UNL     1      14.062   2.276   0.901  1.00  0.00     0.138 A 
HETATM    6  C19 UNL     1      13.616   1.159   0.172  1.00  0.00     0.138 A 
ENDROOT
BRANCH   3   7
HETATM    7  C5  UNL     1      11.230   2.823   3.205  1.00  0.00     0.085 C 
BRANCH   7   8
HETATM    8  C6  UNL     1      10.344   3.854   2.611  1.00  0.00     0.006 A 
HETATM    9  C7  UNL     1       9.739   3.577   1.382  1.00  0.00     0.117 A 
HETATM   10  N1  UNL     1       8.933   4.487   0.813  1.00  0.00    -0.202 N 
HETATM   11  C8  UNL     1       8.689   5.675   1.401  1.00  0.00     0.677 A 
ATOM     12  H1  UNL     1       8.496   4.276  -0.084  1.00  0.00     0.183 HD
HETATM   13  N3  UNL     1       9.273   5.939   2.584  1.00  0.00    -0.177 N 
HETATM   14  C9  UNL     1      10.087   5.075   3.206  1.00  0.00     0.122 A 
ATOM     15  H3  UNL     1       9.087   6.838   3.028  1.00  0.00     0.185 HD
BRANCH  11  16
HETATM   16  N2  UNL     1       7.914   6.574   0.873  1.00  0.00    -0.234 N 
ATOM     17  H22 UNL     1       7.385   6.334   0.034  1.00  0.00     0.174 HD
ATOM     18  H21 UNL     1       7.812   7.511   1.261  1.00  0.00     0.174 HD
ENDBRANCH  11  16
BRANCH  14  19
HETATM   19  N4  UNL     1      10.650   5.311   4.329  1.00  0.00    -0.385 N 
ATOM     20  H42 UNL     1      11.421   4.759   4.704  1.00  0.00     0.157 HD
ATOM     21  H41 UNL     1      10.298   6.099   4.872  1.00  0.00     0.157 HD
ENDBRANCH  14  19
ENDBRANCH   7   8
ENDBRANCH   3   7
BRANCH   4  22
HETATM   22  O2  UNL     1      13.785   3.917   2.588  1.00  0.00    -0.342 OA
BRANCH  22  23
HETATM   23  C11 UNL     1      14.201   5.180   2.385  1.00  0.00     0.129 C 
HETATM   24  C12 UNL     1      13.283   5.804   1.303  1.00  0.00     0.032 C 
HETATM   25  C13 UNL     1      12.800   7.166   1.682  1.00  0.00     0.002 C 
HETATM   26  C14 UNL     1      13.927   8.049   2.094  1.00  0.00     0.000 C 
HETATM   27  C15 UNL     1      14.612   7.466   3.294  1.00  0.00     0.002 C 
HETATM   28  C16 UNL     1      14.040   6.072   3.620  1.00  0.00     0.032 C 
ENDBRANCH  22  23
ENDBRANCH   4  22
BRANCH   1  29
HETATM   29  O1  UNL     1      11.963  -0.521  -0.286  1.00  0.00    -0.353 OA
HETATM   30  C1  UNL     1      11.819  -1.771   0.361  1.00  0.00     0.210 C 
ENDBRANCH   1  29
BRANCH   5  31
HETATM   31  O3  UNL     1      15.313   2.778   0.538  1.00  0.00    -0.351 OA
HETATM   32  C18 UNL     1      16.378   2.329   1.398  1.00  0.00     0.210 C 
ENDBRANCH   5  31
BRANCH   6  33
HETATM   33  O4  UNL     1      14.410   0.611  -0.839  1.00  0.00    -0.351 OA
HETATM   34  C20 UNL     1      15.243  -0.497  -0.513  1.00  0.00     0.210 C 
ENDBRANCH   6  33
TORSDOF 9
ENDMDL
MODEL 2
REMARK VINA RESULT: -5.597743757      0.965      1.087
REMARK  9 active torsions:
REMARK  status: ('A' for Active; 'I' for Inactive)
REMARK    1  A    between atoms: O1_2  and  C2_3 
REMARK    2  A    between atoms: C4_5  and  C5_6 
REMARK    3  A    between atoms: C5_6  and  C6_7 
REMARK    4  A    between atoms: C8_11  and  N2_12 
REMARK    5  A    between atoms: C9_17  and  N4_18 
REMARK    6  A    between atoms: C10_21  and  O2_22 
REMARK    7  A    between atoms: O2_22  and  C11_23 
REMARK    8  A    between atoms: C17_29  and  O3_30 
REMARK    9  A    between atoms: C19_32  and  O4_33 
ROOT
HETATM    1  C2  UNL     1      12.265   1.089   0.546  1.00  0.00     0.105 A 
HETATM    2  C3  UNL     1      11.595   1.733   1.581  1.00  0.00     0.050 A 
HETATM    3  C4  UNL     1      12.164   2.722   2.342  1.00  0.00    -0.015 A 
HETATM    4  C10 UNL     1      13.489   3.153   2.114  1.00  0.00     0.112 A 
HETATM    5  C17 UNL     1      14.140   2.518   1.095  1.00  0.00     0.138 A 
HETATM    6  C19 UNL     1      13.549   1.504   0.319  1.00  0.00     0.138 A 
ENDROOT
BRANCH   3   7
HETATM    7  C5  UNL     1      11.389   3.363   3.407  1.00  0.00     0.085 C 
BRANCH   7   8
HETATM    8  C6  UNL     1      10.213   4.048   2.816  1.00  0.00     0.006 A 
HETATM    9  C7  UNL     1      10.428   5.231   2.103  1.00  0.00     0.117 A 
HETATM   10  N1  UNL     1       9.387   5.879   1.555  1.00  0.00    -0.202 N 
HETATM   11  C8  UNL     1       8.128   5.416   1.678  1.00  0.00     0.677 A 
ATOM     12  H1  UNL     1       9.554   6.741   1.036  1.00  0.00     0.183 HD
HETATM   13  N3  UNL     1       7.925   4.278   2.365  1.00  0.00    -0.177 N 
HETATM   14  C9  UNL     1       8.917   3.582   2.935  1.00  0.00     0.122 A 
ATOM     15  H3  UNL     1       6.971   3.929   2.456  1.00  0.00     0.185 HD
BRANCH  11  16
HETATM   16  N2  UNL     1       7.103   6.024   1.159  1.00  0.00    -0.234 N 
ATOM     17  H22 UNL     1       6.657   6.773   1.688  1.00  0.00     0.174 HD
ATOM     18  H21 UNL     1       6.725   5.783   0.243  1.00  0.00     0.174 HD
ENDBRANCH  11  16
BRANCH  14  19
HETATM   19  N4  UNL     1       8.741   2.500   3.592  1.00  0.00    -0.385 N 
ATOM     20  H42 UNL     1       9.097   2.344   4.535  1.00  0.00     0.157 HD
ATOM     21  H41 UNL     1       8.214   1.755   3.135  1.00  0.00     0.157 HD
ENDBRANCH  14  19
ENDBRANCH   7   8
ENDBRANCH   3   7
BRANCH   4  22
HETATM   22  O2  UNL     1      14.077   4.114   2.846  1.00  0.00    -0.342 OA
BRANCH  22  23
HETATM   23  C11 UNL     1      14.433   5.408   2.759  1.00  0.00     0.129 C 
HETATM   24  C12 UNL     1      13.908   5.946   1.404  1.00  0.00     0.032 C 
HETATM   25  C13 UNL     1      13.214   7.262   1.544  1.00  0.00     0.002 C 
HETATM   26  C14 UNL     1      14.047   8.241   2.296  1.00  0.00     0.000 C 
HETATM   27  C15 UNL     1      14.312   7.723   3.678  1.00  0.00     0.002 C 
HETATM   28  C16 UNL     1      13.777   6.285   3.830  1.00  0.00     0.032 C 
ENDBRANCH  22  23
ENDBRANCH   4  22
BRANCH   1  29
HETATM   29  O1  UNL     1      11.684   0.090  -0.214  1.00  0.00    -0.353 OA
HETATM   30  C1  UNL     1      11.379  -1.158   0.377  1.00  0.00     0.210 C 
ENDBRANCH   1  29
BRANCH   5  31
HETATM   31  O3  UNL     1      15.452   2.855   0.758  1.00  0.00    -0.351 OA
HETATM   32  C18 UNL     1      16.434   2.249   1.619  1.00  0.00     0.210 C 
ENDBRANCH   5  31
BRANCH   6  33
HETATM   33  O4  UNL     1      14.270   0.892  -0.710  1.00  0.00    -0.351 OA
HETATM   34  C20 UNL     1      14.947  -0.328  -0.423  1.00  0.00     0.210 C 
ENDBRANCH   6  33
TORSDOF 9
ENDMDL
MODEL 3
REMARK VINA RESULT: -5.566204471      1.497      1.915
REMARK  9 active torsions:
REMARK  status: ('A' for Active; 'I' for Inactive)
REMARK    1  A    between atoms: O1_2  and  C2_3 
REMARK    2  A    between atoms: C4_5  and  C5_6 
REMARK    3  A    between atoms: C5_6  and  C6_7 
REMARK    4  A    between atoms: C8_11  and  N2_12 
REMARK    5  A    between atoms: C9_17  and  N4_18 
REMARK    6  A    between atoms: C10_21  and  O2_22 
REMARK    7  A    between atoms: O2_22  and  C11_23 
REMARK    8  A    between atoms: C17_29  and  O3_30 
REMARK    9  A    between atoms: C19_32  and  O4_33 
ROOT
HETATM    1  C2  UNL     1      12.346   0.550   1.268  1.00  0.00     0.105 A 
HETATM    2  C3  UNL     1      11.320   1.446   1.555  1.00  0.00     0.050 A 
HETATM    3  C4  UNL     1      11.506   2.804   1.618  1.00  0.00    -0.015 A 
HETATM    4  C10 UNL     1      12.773   3.382   1.390  1.00  0.00     0.112 A 
HETATM    5  C17 UNL     1      13.774   2.498   1.107  1.00  0.00     0.138 A 
HETATM    6  C19 UNL     1      13.576   1.106   1.044  1.00  0.00     0.138 A 
ENDROOT
BRANCH   3   7
HETATM    7  C5  UNL     1      10.373   3.684   1.914  1.00  0.00     0.085 C 
BRANCH   7   8
HETATM    8  C6  UNL     1       9.626   3.961   0.663  1.00  0.00     0.006 A 
HETATM    9  C7  UNL     1      10.024   3.301  -0.504  1.00  0.00     0.117 A 
HETATM   10  N1  UNL     1       9.372   3.529  -1.655  1.00  0.00    -0.202 N 
HETATM   11  C8  UNL     1       8.334   4.386  -1.718  1.00  0.00     0.677 A 
ATOM     12  H1  UNL     1       9.669   3.042  -2.501  1.00  0.00     0.183 HD
HETATM   13  N3  UNL     1       7.954   5.019  -0.594  1.00  0.00    -0.177 N 
HETATM   14  C9  UNL     1       8.560   4.838   0.587  1.00  0.00     0.122 A 
ATOM     15  H3  UNL     1       7.169   5.667  -0.643  1.00  0.00     0.185 HD
BRANCH  11  16
HETATM   16  N2  UNL     1       7.687   4.625  -2.819  1.00  0.00    -0.234 N 
ATOM     17  H22 UNL     1       6.884   5.253  -2.790  1.00  0.00     0.174 HD
ATOM     18  H21 UNL     1       7.948   4.210  -3.713  1.00  0.00     0.174 HD
ENDBRANCH  11  16
BRANCH  14  19
HETATM   19  N4  UNL     1       8.212   5.432   1.664  1.00  0.00    -0.385 N 
ATOM     20  H42 UNL     1       8.809   6.088   2.168  1.00  0.00     0.157 HD
ATOM     21  H41 UNL     1       7.282   5.230   2.031  1.00  0.00     0.157 HD
ENDBRANCH  14  19
ENDBRANCH   7   8
ENDBRANCH   3   7
BRANCH   4  22
HETATM   22  O2  UNL     1      12.990   4.707   1.452  1.00  0.00    -0.342 OA
BRANCH  22  23
HETATM   23  C11 UNL     1      13.726   5.604   2.132  1.00  0.00     0.129 C 
HETATM   24  C12 UNL     1      13.866   6.863   1.240  1.00  0.00     0.032 C 
HETATM   25  C13 UNL     1      13.594   8.126   1.990  1.00  0.00     0.002 C 
HETATM   26  C14 UNL     1      14.386   8.193   3.251  1.00  0.00     0.000 C 
HETATM   27  C15 UNL     1      14.010   7.049   4.144  1.00  0.00     0.002 C 
HETATM   28  C16 UNL     1      13.049   6.087   3.418  1.00  0.00     0.032 C 
ENDBRANCH  22  23
ENDBRANCH   4  22
BRANCH   1  29
HETATM   29  O1  UNL     1      12.149  -0.817   1.210  1.00  0.00    -0.353 OA
HETATM   30  C1  UNL     1      11.392  -1.378   0.155  1.00  0.00     0.210 C 
ENDBRANCH   1  29
BRANCH   5  31
HETATM   31  O3  UNL     1      15.074   2.938   0.851  1.00  0.00    -0.351 OA
HETATM   32  C18 UNL     1      15.948   2.826   1.991  1.00  0.00     0.210 C 
ENDBRANCH   5  31
BRANCH   6  33
HETATM   33  O4  UNL     1      14.643   0.253   0.750  1.00  0.00    -0.351 OA
HETATM   34  C20 UNL     1      14.920  -0.030  -0.618  1.00  0.00     0.210 C 
ENDBRANCH   6  33
TORSDOF 9
ENDMDL
MODEL 4
REMARK VINA RESULT: -5.560984246      1.648      2.280
REMARK  9 active torsions:
REMARK  status: ('A' for Active; 'I' for Inactive)
REMARK    1  A    between atoms: O1_2  and  C2_3 
REMARK    2  A    between atoms: C4_5  and  C5_6 
REMARK    3  A    between atoms: C5_6  and  C6_7 
REMARK    4  A    between atoms: C8_11  and  N2_12 
REMARK    5  A    between atoms: C9_17  and  N4_18 
REMARK    6  A    between atoms: C10_21  and  O2_22 
REMARK    7  A    between atoms: O2_22  and  C11_23 
REMARK    8  A    between atoms: C17_29  and  O3_30 
REMARK    9  A    between atoms: C19_32  and  O4_33 
ROOT
HETATM    1  C2  UNL     1      12.228   1.173   1.600  1.00  0.00     0.105 A 
HETATM    2  C3  UNL     1      11.106   1.961   1.840  1.00  0.00     0.050 A 
HETATM    3  C4  UNL     1      11.128   3.331   1.795  1.00  0.00    -0.015 A 
HETATM    4  C10 UNL     1      12.314   4.036   1.495  1.00  0.00     0.112 A 
HETATM    5  C17 UNL     1      13.410   3.257   1.258  1.00  0.00     0.138 A 
HETATM    6  C19 UNL     1      13.379   1.852   1.307  1.00  0.00     0.138 A 
ENDROOT
BRANCH   3   7
HETATM    7  C5  UNL     1       9.901   4.091   2.047  1.00  0.00     0.085 C 
BRANCH   7   8
HETATM    8  C6  UNL     1       9.215   4.358   0.760  1.00  0.00     0.006 A 
HETATM    9  C7  UNL     1       9.616   3.633  -0.366  1.00  0.00     0.117 A 
HETATM   10  N1  UNL     1       9.018   3.849  -1.548  1.00  0.00    -0.202 N 
HETATM   11  C8  UNL     1       8.032   4.757  -1.681  1.00  0.00     0.677 A 
ATOM     12  H1  UNL     1       9.318   3.315  -2.364  1.00  0.00     0.183 HD
HETATM   13  N3  UNL     1       7.648   5.453  -0.596  1.00  0.00    -0.177 N 
HETATM   14  C9  UNL     1       8.201   5.287   0.613  1.00  0.00     0.122 A 
ATOM     15  H3  UNL     1       6.901   6.140  -0.699  1.00  0.00     0.185 HD
BRANCH  11  16
HETATM   16  N2  UNL     1       7.437   4.987  -2.813  1.00  0.00    -0.234 N 
ATOM     17  H22 UNL     1       7.898   5.588  -3.497  1.00  0.00     0.174 HD
ATOM     18  H21 UNL     1       6.528   4.591  -3.048  1.00  0.00     0.174 HD
ENDBRANCH  11  16
BRANCH  14  19
HETATM   19  N4  UNL     1       7.849   5.940   1.653  1.00  0.00    -0.385 N 
ATOM     20  H42 UNL     1       6.923   5.880   2.074  1.00  0.00     0.157 HD
ATOM     21  H41 UNL     1       8.544   6.556   2.076  1.00  0.00     0.157 HD
ENDBRANCH  14  19
ENDBRANCH   7   8
ENDBRANCH   3   7
BRANCH   4  22
HETATM   22  O2  UNL     1      12.370   5.377   1.450  1.00  0.00    -0.342 OA
BRANCH  22  23
HETATM   23  C11 UNL     1      12.648   6.429   2.242  1.00  0.00     0.129 C 
HETATM   24  C12 UNL     1      12.947   5.877   3.659  1.00  0.00     0.032 C 
HETATM   25  C13 UNL     1      14.180   6.475   4.255  1.00  0.00     0.002 C 
HETATM   26  C14 UNL     1      14.154   7.963   4.183  1.00  0.00     0.000 C 
HETATM   27  C15 UNL     1      14.091   8.398   2.749  1.00  0.00     0.002 C 
HETATM   28  C16 UNL     1      13.915   7.181   1.820  1.00  0.00     0.032 C 
ENDBRANCH  22  23
ENDBRANCH   4  22
BRANCH   1  29
HETATM   29  O1  UNL     1      12.196  -0.209   1.652  1.00  0.00    -0.353 OA
HETATM   30  C1  UNL     1      11.538  -0.939   0.635  1.00  0.00     0.210 C 
ENDBRANCH   1  29
BRANCH   5  31
HETATM   31  O3  UNL     1      14.644   3.827   0.940  1.00  0.00    -0.351 OA
HETATM   32  C18 UNL     1      15.548   3.887   2.059  1.00  0.00     0.210 C 
ENDBRANCH   5  31
BRANCH   6  33
HETATM   33  O4  UNL     1      14.537   1.111   1.055  1.00  0.00    -0.351 OA
HETATM   34  C20 UNL     1      14.817   0.736  -0.290  1.00  0.00     0.210 C 
ENDBRANCH   6  33
TORSDOF 9
ENDMDL
MODEL 5
REMARK VINA RESULT: -5.458478692      3.660      5.399
REMARK  9 active torsions:
REMARK  status: ('A' for Active; 'I' for Inactive)
REMARK    1  A    between atoms: O1_2  and  C2_3 
REMARK    2  A    between atoms: C4_5  and  C5_6 
REMARK    3  A    between atoms: C5_6  and  C6_7 
REMARK    4  A    between atoms: C8_11  and  N2_12 
REMARK    5  A    between atoms: C9_17  and  N4_18 
REMARK    6  A    between atoms: C10_21  and  O2_22 
REMARK    7  A    between atoms: O2_22  and  C11_23 
REMARK    8  A    between atoms: C17_29  and  O3_30 
REMARK    9  A    between atoms: C19_32  and  O4_33 
ROOT
HETATM    1  C2  UNL     1      12.661   0.553   4.895  1.00  0.00     0.105 A 
HETATM    2  C3  UNL     1      12.401   0.856   3.562  1.00  0.00     0.050 A 
HETATM    3  C4  UNL     1      12.407   2.136   3.068  1.00  0.00    -0.015 A 
HETATM    4  C10 UNL     1      12.684   3.242   3.900  1.00  0.00     0.112 A 
HETATM    5  C17 UNL     1      12.940   2.937   5.207  1.00  0.00     0.138 A 
HETATM    6  C19 UNL     1      12.931   1.622   5.706  1.00  0.00     0.138 A 
ENDROOT
BRANCH   3   7
HETATM    7  C5  UNL     1      12.136   2.373   1.648  1.00  0.00     0.085 C 
BRANCH   7   8
HETATM    8  C6  UNL     1      13.075   1.570   0.828  1.00  0.00     0.006 A 
HETATM    9  C7  UNL     1      14.415   1.967   0.778  1.00  0.00     0.117 A 
HETATM   10  N1  UNL     1      15.293   1.265   0.044  1.00  0.00    -0.202 N 
HETATM   11  C8  UNL     1      14.915   0.177  -0.655  1.00  0.00     0.677 A 
ATOM     12  H1  UNL     1      16.269   1.562   0.015  1.00  0.00     0.183 HD
HETATM   13  N3  UNL     1      13.625  -0.202  -0.605  1.00  0.00    -0.177 N 
HETATM   14  C9  UNL     1      12.698   0.452   0.107  1.00  0.00     0.122 A 
ATOM     15  H3  UNL     1      13.340  -1.026  -1.134  1.00  0.00     0.185 HD
BRANCH  11  16
HETATM   16  N2  UNL     1      15.744  -0.519  -1.373  1.00  0.00    -0.234 N 
ATOM     17  H22 UNL     1      16.674  -0.142  -1.553  1.00  0.00     0.174 HD
ATOM     18  H21 UNL     1      15.503  -1.429  -1.766  1.00  0.00     0.174 HD
ENDBRANCH  11  16
BRANCH  14  19
HETATM   19  N4  UNL     1      11.469   0.106   0.164  1.00  0.00    -0.385 N 
ATOM     20  H42 UNL     1      10.707   0.749   0.379  1.00  0.00     0.157 HD
ATOM     21  H41 UNL     1      11.250  -0.874  -0.018  1.00  0.00     0.157 HD
ENDBRANCH  14  19
ENDBRANCH   7   8
ENDBRANCH   3   7
BRANCH   4  22
HETATM   22  O2  UNL     1      12.691   4.507   3.450  1.00  0.00    -0.342 OA
BRANCH  22  23
HETATM   23  C11 UNL     1      13.544   5.429   2.968  1.00  0.00     0.129 C 
HETATM   24  C12 UNL     1      12.960   5.949   1.630  1.00  0.00     0.032 C 
HETATM   25  C13 UNL     1      12.988   7.441   1.538  1.00  0.00     0.002 C 
HETATM   26  C14 UNL     1      14.341   7.981   1.852  1.00  0.00     0.000 C 
HETATM   27  C15 UNL     1      14.718   7.610   3.256  1.00  0.00     0.002 C 
HETATM   28  C16 UNL     1      13.667   6.663   3.868  1.00  0.00     0.032 C 
ENDBRANCH  22  23
ENDBRANCH   4  22
BRANCH   1  29
HETATM   29  O1  UNL     1      12.649  -0.740   5.385  1.00  0.00    -0.353 OA
HETATM   30  C1  UNL     1      11.457  -1.501   5.339  1.00  0.00     0.210 C 
ENDBRANCH   1  29
BRANCH   5  31
HETATM   31  O3  UNL     1      13.238   3.937   6.134  1.00  0.00    -0.351 OA
HETATM   32  C18 UNL     1      12.071   4.619   6.631  1.00  0.00     0.210 C 
ENDBRANCH   5  31
BRANCH   6  33
HETATM   33  O4  UNL     1      13.201   1.377   7.055  1.00  0.00    -0.351 OA
HETATM   34  C20 UNL     1      12.099   1.224   7.944  1.00  0.00     0.210 C 
ENDBRANCH   6  33
TORSDOF 9
ENDMDL
