MODEL 1
REMARK VINA RESULT: -5.130022786      0.000      0.000
REMARK  2 active torsions:
REMARK  status: ('A' for Active; 'I' for Inactive)
REMARK    1  A    between atoms: O1_1  and  C1_3 
REMARK    2  A    between atoms: C1_3  and  C2_4 
ROOT
HETATM    1  C1  UNL     1      13.815  10.225  -2.097  1.00  0.00     0.061 C 
HETATM    2  C5  UNL     1      15.135  10.170  -2.756  1.00  0.00     0.038 C 
HETATM    3  C6  UNL     1      15.137  10.033  -4.233  1.00  0.00     0.003 C 
HETATM    4  C7  UNL     1      14.093   9.031  -4.648  1.00  0.00     0.000 C 
HETATM    5  C8  UNL     1      12.759   9.666  -4.311  1.00  0.00     0.003 C 
HETATM    6  C9  UNL     1      12.647   9.728  -2.829  1.00  0.00     0.038 C 
ENDROOT
BRANCH   1   7
HETATM    7  O1  UNL     1      13.561  11.553  -1.682  1.00  0.00    -0.389 OA
ATOM      8  H1  UNL     1      13.805  12.079  -2.435  1.00  0.00     0.210 HD
ENDBRANCH   1   7
BRANCH   1   9
HETATM    9  C2  UNL     1      13.925   9.442  -0.783  1.00  0.00     0.020 A 
HETATM   10  C3  UNL     1      14.789   8.191  -0.910  1.00  0.00     0.008 A 
HETATM   11  C4  UNL     1      15.182   9.374  -0.045  1.00  0.00     0.008 A 
ENDBRANCH   1   9
TORSDOF 2
ENDMDL
MODEL 2
REMARK VINA RESULT: -4.908430299      1.924      2.836
REMARK  2 active torsions:
REMARK  status: ('A' for Active; 'I' for Inactive)
REMARK    1  A    between atoms: O1_1  and  C1_3 
REMARK    2  A    between atoms: C1_3  and  C2_4 
ROOT
HETATM    1  C1  UNL     1      14.700   9.234  -0.133  1.00  0.00     0.061 C 
HETATM    2  C5  UNL     1      14.745   8.452  -1.385  1.00  0.00     0.038 C 
HETATM    3  C6  UNL     1      14.307   9.146  -2.620  1.00  0.00     0.003 C 
HETATM    4  C7  UNL     1      13.072   9.957  -2.332  1.00  0.00     0.000 C 
HETATM    5  C8  UNL     1      13.517  11.061  -1.395  1.00  0.00     0.003 C 
HETATM    6  C9  UNL     1      13.864  10.436  -0.090  1.00  0.00     0.038 C 
ENDROOT
BRANCH   1   7
HETATM    7  O1  UNL     1      16.019   9.583   0.239  1.00  0.00    -0.389 OA
ATOM      8  H1  UNL     1      16.226  10.324  -0.319  1.00  0.00     0.210 HD
ENDBRANCH   1   7
BRANCH   1   9
HETATM    9  C2  UNL     1      14.239   8.289   0.983  1.00  0.00     0.020 A 
HETATM   10  C3  UNL     1      14.483   8.857   2.379  1.00  0.00     0.008 A 
HETATM   11  C4  UNL     1      13.091   8.614   1.824  1.00  0.00     0.008 A 
ENDBRANCH   1   9
TORSDOF 2
ENDMDL
MODEL 3
REMARK VINA RESULT: -4.810342691      1.473      2.212
REMARK  2 active torsions:
REMARK  status: ('A' for Active; 'I' for Inactive)
REMARK    1  A    between atoms: O1_1  and  C1_3 
REMARK    2  A    between atoms: C1_3  and  C2_4 
ROOT
HETATM    1  C1  UNL     1      14.297   9.711  -2.487  1.00  0.00     0.061 C 
HETATM    2  C5  UNL     1      12.980   9.643  -3.150  1.00  0.00     0.038 C 
HETATM    3  C6  UNL     1      12.983   9.412  -4.616  1.00  0.00     0.003 C 
HETATM    4  C7  UNL     1      14.059  10.248  -5.255  1.00  0.00     0.000 C 
HETATM    5  C8  UNL     1      15.371   9.674  -4.761  1.00  0.00     0.003 C 
HETATM    6  C9  UNL     1      15.480   9.976  -3.309  1.00  0.00     0.038 C 
ENDROOT
BRANCH   1   7
HETATM    7  O1  UNL     1      14.507   8.519  -1.756  1.00  0.00    -0.389 OA
ATOM      8  H1  UNL     1      14.883   7.923  -2.393  1.00  0.00     0.210 HD
ENDBRANCH   1   7
BRANCH   1   9
HETATM    9  C2  UNL     1      14.211  10.796  -1.407  1.00  0.00     0.020 A 
HETATM   10  C3  UNL     1      13.564  10.299  -0.117  1.00  0.00     0.008 A 
HETATM   11  C4  UNL     1      15.019  10.723  -0.194  1.00  0.00     0.008 A 
ENDBRANCH   1   9
TORSDOF 2
ENDMDL
MODEL 4
REMARK VINA RESULT: -4.790197142      1.284      3.653
REMARK  2 active torsions:
REMARK  status: ('A' for Active; 'I' for Inactive)
REMARK    1  A    between atoms: O1_1  and  C1_3 
REMARK    2  A    between atoms: C1_3  and  C2_4 
ROOT
HETATM    1  C1  UNL     1      14.679   9.604  -2.513  1.00  0.00     0.061 C 
HETATM    2  C5  UNL     1      13.773  10.721  -2.177  1.00  0.00     0.038 C 
HETATM    3  C6  UNL     1      13.551  10.988  -0.734  1.00  0.00     0.003 C 
HETATM    4  C7  UNL     1      13.375   9.685  -0.002  1.00  0.00     0.000 C 
HETATM    5  C8  UNL     1      14.720   8.991  -0.073  1.00  0.00     0.003 C 
HETATM    6  C9  UNL     1      14.951   8.594  -1.488  1.00  0.00     0.038 C 
ENDROOT
BRANCH   1   7
HETATM    7  O1  UNL     1      15.909  10.131  -2.972  1.00  0.00    -0.389 OA
ATOM      8  H1  UNL     1      16.551   9.765  -2.375  1.00  0.00     0.210 HD
ENDBRANCH   1   7
BRANCH   1   9
HETATM    9  C2  UNL     1      14.098   8.896  -3.742  1.00  0.00     0.020 A 
HETATM   10  C3  UNL     1      12.724   9.429  -4.139  1.00  0.00     0.008 A 
HETATM   11  C4  UNL     1      13.951   9.590  -5.017  1.00  0.00     0.008 A 
ENDBRANCH   1   9
TORSDOF 2
ENDMDL
MODEL 5
REMARK VINA RESULT: -4.774257632      3.188      4.600
REMARK  2 active torsions:
REMARK  status: ('A' for Active; 'I' for Inactive)
REMARK    1  A    between atoms: O1_1  and  C1_3 
REMARK    2  A    between atoms: C1_3  and  C2_4 
ROOT
HETATM    1  C1  UNL     1      14.850   9.110   1.833  1.00  0.00     0.061 C 
HETATM    2  C5  UNL     1      14.258   8.537   0.607  1.00  0.00     0.038 C 
HETATM    3  C6  UNL     1      14.855   8.964  -0.683  1.00  0.00     0.003 C 
HETATM    4  C7  UNL     1      15.126  10.444  -0.648  1.00  0.00     0.000 C 
HETATM    5  C8  UNL     1      16.224  10.635   0.378  1.00  0.00     0.003 C 
HETATM    6  C9  UNL     1      15.652  10.331   1.716  1.00  0.00     0.038 C 
ENDROOT
BRANCH   1   7
HETATM    7  O1  UNL     1      15.623   8.117   2.479  1.00  0.00    -0.389 OA
ATOM      8  H1  UNL     1      15.033   7.756   3.130  1.00  0.00     0.210 HD
ENDBRANCH   1   7
BRANCH   1   9
HETATM    9  C2  UNL     1      13.703   9.381   2.813  1.00  0.00     0.020 A 
HETATM   10  C3  UNL     1      12.841  10.571   2.401  1.00  0.00     0.008 A 
HETATM   11  C4  UNL     1      12.313   9.148   2.434  1.00  0.00     0.008 A 
ENDBRANCH   1   9
TORSDOF 2
ENDMDL
