MODEL 1
REMARK VINA RESULT: -5.575887475      0.000      0.000
REMARK  2 active torsions:
REMARK  status: ('A' for Active; 'I' for Inactive)
REMARK    1  A    between atoms: O1_2  and  N1_3 
REMARK    2  A    between atoms: N1_3  and  C2_4 
ROOT
HETATM    1  C2  UNL     1      15.330  10.758  -1.221  1.00  0.00     0.061 C 
HETATM    2  C3  UNL     1      15.741  10.140  -2.552  1.00  0.00     0.034 C 
HETATM    3  C4  UNL     1      14.681   9.058  -2.669  1.00  0.00    -0.012 C 
HETATM    4  C5  UNL     1      13.294   9.611  -2.675  1.00  0.00     0.009 C 
HETATM    5  C6  UNL     1      13.038  10.530  -1.534  1.00  0.00    -0.012 C 
HETATM    6  C7  UNL     1      13.346   9.807  -0.216  1.00  0.00     0.011 C 
HETATM    7  C8  UNL     1      14.856   9.601  -0.405  1.00  0.00     0.013 C 
HETATM    8  C9  UNL     1      14.929   8.367  -1.320  1.00  0.00     0.011 C 
HETATM    9  C10 UNL     1      14.094  11.636  -1.461  1.00  0.00     0.034 C 
ENDROOT
BRANCH   1  10
HETATM   10  N1  UNL     1      16.333  11.560  -0.629  1.00  0.00    -0.091 NA
BRANCH  10  11
HETATM   11  O1  UNL     1      17.490  11.375  -1.310  1.00  0.00    -0.291 OA
HETATM   12  C1  UNL     1      18.605  11.689  -0.535  1.00  0.00     0.231 C 
ENDBRANCH  10  11
ENDBRANCH   1  10
TORSDOF 2
ENDMDL
MODEL 2
REMARK VINA RESULT: -5.430764960      8.871      9.941
REMARK  2 active torsions:
REMARK  status: ('A' for Active; 'I' for Inactive)
REMARK    1  A    between atoms: O1_2  and  N1_3 
REMARK    2  A    between atoms: N1_3  and  C2_4 
ROOT
HETATM    1  C2  UNL     1      13.798   9.531   8.463  1.00  0.00     0.061 C 
HETATM    2  C3  UNL     1      14.994   8.783   9.039  1.00  0.00     0.034 C 
HETATM    3  C4  UNL     1      15.413   7.990   7.813  1.00  0.00    -0.012 C 
HETATM    4  C5  UNL     1      15.763   8.864   6.655  1.00  0.00     0.009 C 
HETATM    5  C6  UNL     1      14.701   9.859   6.346  1.00  0.00    -0.012 C 
HETATM    6  C7  UNL     1      13.370   9.131   6.116  1.00  0.00     0.011 C 
HETATM    7  C8  UNL     1      13.167   8.556   7.525  1.00  0.00     0.013 C 
HETATM    8  C9  UNL     1      14.067   7.309   7.527  1.00  0.00     0.011 C 
HETATM    9  C10 UNL     1      14.324  10.676   7.585  1.00  0.00     0.034 C 
ENDROOT
BRANCH   1  10
HETATM   10  N1  UNL     1      12.944  10.085   9.444  1.00  0.00    -0.091 NA
BRANCH  10  11
HETATM   11  O1  UNL     1      13.296  11.378   9.641  1.00  0.00    -0.291 OA
HETATM   12  C1  UNL     1      13.577  11.642  10.982  1.00  0.00     0.231 C 
ENDBRANCH  10  11
ENDBRANCH   1  10
TORSDOF 2
ENDMDL
MODEL 3
REMARK VINA RESULT: -5.394734654      0.696      1.963
REMARK  2 active torsions:
REMARK  status: ('A' for Active; 'I' for Inactive)
REMARK    1  A    between atoms: O1_2  and  N1_3 
REMARK    2  A    between atoms: N1_3  and  C2_4 
ROOT
HETATM    1  C2  UNL     1      15.566  10.512  -1.270  1.00  0.00     0.061 C 
HETATM    2  C3  UNL     1      14.468  11.550  -1.464  1.00  0.00     0.034 C 
HETATM    3  C4  UNL     1      13.253  10.639  -1.458  1.00  0.00    -0.012 C 
HETATM    4  C5  UNL     1      13.120   9.866  -0.188  1.00  0.00     0.009 C 
HETATM    5  C6  UNL     1      14.368   9.143   0.176  1.00  0.00    -0.012 C 
HETATM    6  C7  UNL     1      14.793   8.238  -0.988  1.00  0.00     0.011 C 
HETATM    7  C8  UNL     1      15.091   9.322  -2.034  1.00  0.00     0.013 C 
HETATM    8  C9  UNL     1      13.696   9.681  -2.574  1.00  0.00     0.011 C 
HETATM    9  C10 UNL     1      15.572  10.089   0.206  1.00  0.00     0.034 C 
ENDROOT
BRANCH   1  10
HETATM   10  N1  UNL     1      16.859  10.981  -1.599  1.00  0.00    -0.091 NA
BRANCH  10  11
HETATM   11  O1  UNL     1      17.252  11.865  -0.651  1.00  0.00    -0.291 OA
HETATM   12  C1  UNL     1      18.634  11.848  -0.464  1.00  0.00     0.231 C 
ENDBRANCH  10  11
ENDBRANCH   1  10
TORSDOF 2
ENDMDL
MODEL 4
REMARK VINA RESULT: -5.385585111      7.957      9.209
REMARK  2 active torsions:
REMARK  status: ('A' for Active; 'I' for Inactive)
REMARK    1  A    between atoms: O1_2  and  N1_3 
REMARK    2  A    between atoms: N1_3  and  C2_4 
ROOT
HETATM    1  C2  UNL     1      14.481   9.959   7.133  1.00  0.00     0.061 C 
HETATM    2  C3  UNL     1      14.297  10.641   8.484  1.00  0.00     0.034 C 
HETATM    3  C4  UNL     1      13.804   9.459   9.300  1.00  0.00    -0.012 C 
HETATM    4  C5  UNL     1      14.784   8.333   9.333  1.00  0.00     0.009 C 
HETATM    5  C6  UNL     1      15.239   7.929   7.975  1.00  0.00    -0.012 C 
HETATM    6  C7  UNL     1      14.020   7.584   7.109  1.00  0.00     0.011 C 
HETATM    7  C8  UNL     1      13.363   8.972   7.060  1.00  0.00     0.013 C 
HETATM    8  C9  UNL     1      12.622   9.057   8.405  1.00  0.00     0.011 C 
HETATM    9  C10 UNL     1      15.771   9.128   7.186  1.00  0.00     0.034 C 
ENDROOT
BRANCH   1  10
HETATM   10  N1  UNL     1      14.580  10.860   6.048  1.00  0.00    -0.091 NA
BRANCH  10  11
HETATM   11  O1  UNL     1      15.698  10.562   5.342  1.00  0.00    -0.291 OA
HETATM   12  C1  UNL     1      15.786  11.310   4.168  1.00  0.00     0.231 C 
ENDBRANCH  10  11
ENDBRANCH   1  10
TORSDOF 2
ENDMDL
MODEL 5
REMARK VINA RESULT: -5.382337836      0.784      2.118
REMARK  2 active torsions:
REMARK  status: ('A' for Active; 'I' for Inactive)
REMARK    1  A    between atoms: O1_2  and  N1_3 
REMARK    2  A    between atoms: N1_3  and  C2_4 
ROOT
HETATM    1  C2  UNL     1      15.768  10.906  -0.797  1.00  0.00     0.061 C 
HETATM    2  C3  UNL     1      15.545   9.977   0.391  1.00  0.00     0.034 C 
HETATM    3  C4  UNL     1      14.283   9.270  -0.072  1.00  0.00    -0.012 C 
HETATM    4  C5  UNL     1      14.471   8.546  -1.364  1.00  0.00     0.009 C 
HETATM    5  C6  UNL     1      15.055   9.409  -2.426  1.00  0.00    -0.012 C 
HETATM    6  C7  UNL     1      14.182  10.659  -2.607  1.00  0.00     0.011 C 
HETATM    7  C8  UNL     1      14.392  11.297  -1.225  1.00  0.00     0.013 C 
HETATM    8  C9  UNL     1      13.420  10.515  -0.326  1.00  0.00     0.011 C 
HETATM    9  C10 UNL     1      16.348  10.078  -1.952  1.00  0.00     0.034 C 
ENDROOT
BRANCH   1  10
HETATM   10  N1  UNL     1      16.657  11.972  -0.529  1.00  0.00    -0.091 NA
BRANCH  10  11
HETATM   11  O1  UNL     1      17.865  11.670  -1.061  1.00  0.00    -0.291 OA
HETATM   12  C1  UNL     1      18.906  11.934  -0.172  1.00  0.00     0.231 C 
ENDBRANCH  10  11
ENDBRANCH   1  10
TORSDOF 2
ENDMDL
