MODEL 1
REMARK VINA RESULT: -6.612118306      0.000      0.000
REMARK  12 active torsions:
REMARK  status: ('A' for Active; 'I' for Inactive)
REMARK    1  A    between atoms: O1_2  and  C2_3 
REMARK    2  A    between atoms: C2_3  and  C3_5 
REMARK    3  A    between atoms: C6_8  and  C7_9 
REMARK    4  A    between atoms: C7_9  and  O3_10 
REMARK    5  A    between atoms: C7_9  and  C10_14 
REMARK    6  A    between atoms: O3_10  and  C8_11 
REMARK    7  A    between atoms: C10_14  and  O5_16 
REMARK    8  A    between atoms: C10_14  and  C12_18 
REMARK    9  A    between atoms: C13_22  and  C14_23 
REMARK   10  A    between atoms: C16_26  and  O7_27 
REMARK   11  A    between atoms: C17_29  and  C18_30 
REMARK   12  A    between atoms: C18_30  and  O9_32 
ROOT
HETATM    1  C3  UNL     1      14.739  10.493   0.807  1.00  0.00     0.065 A 
HETATM    2  C4  UNL     1      15.689  10.608   1.784  1.00  0.00    -0.031 A 
HETATM    3  C5  UNL     1      15.288  10.307   3.157  1.00  0.00     0.050 C 
HETATM    4  C6  UNL     1      17.014  11.051   1.518  1.00  0.00     0.021 A 
HETATM    5  C13 UNL     1      17.269  11.350   0.184  1.00  0.00     0.057 A 
HETATM    6  C16 UNL     1      16.264  11.227  -0.812  1.00  0.00     0.097 A 
HETATM    7  C17 UNL     1      15.022  10.804  -0.497  1.00  0.00     0.090 A 
ENDROOT
BRANCH   4   8
HETATM    8  C7  UNL     1      17.963  11.093   2.615  1.00  0.00     0.107 C 
BRANCH   8   9
HETATM    9  O3  UNL     1      18.484  12.308   3.047  1.00  0.00    -0.279 OA
BRANCH   9  10
HETATM   10  C8  UNL     1      17.841  13.499   3.071  1.00  0.00     0.259 C 
HETATM   11  C9  UNL     1      18.449  14.788   2.620  1.00  0.00     0.126 C 
HETATM   12  O4  UNL     1      16.673  13.548   3.486  1.00  0.00    -0.265 OA
ENDBRANCH   9  10
ENDBRANCH   8   9
BRANCH   8  13
HETATM   13  C10 UNL     1      18.905   9.915   2.765  1.00  0.00     0.135 C 
HETATM   14  C11 UNL     1      18.445   8.850   3.725  1.00  0.00     0.059 C 
BRANCH  13  15
HETATM   15  O5  UNL     1      18.916   9.244   1.449  1.00  0.00    -0.378 OA
ATOM     16  H5  UNL     1      18.591   8.365   1.606  1.00  0.00     0.211 HD
ENDBRANCH  13  15
BRANCH  13  17
HETATM   17  C12 UNL     1      20.309  10.206   2.957  1.00  0.00     0.097 C 
HETATM   18  N1  UNL     1      20.979  10.701   1.967  1.00  0.00    -0.408 N 
ATOM     19  H12 UNL     1      20.512  10.876   1.078  1.00  0.00     0.155 HD
ATOM     20  H11 UNL     1      21.968  10.906   2.103  1.00  0.00     0.155 HD
ENDBRANCH  13  17
ENDBRANCH   8  13
ENDBRANCH   4   8
BRANCH   5  21
HETATM   21  C14 UNL     1      18.591  11.622  -0.322  1.00  0.00     0.159 C 
HETATM   22  C15 UNL     1      19.197  12.978  -0.355  1.00  0.00     0.097 C 
HETATM   23  O6  UNL     1      19.366  10.760  -0.792  1.00  0.00    -0.293 OA
ENDBRANCH   5  21
BRANCH   1  24
HETATM   24  C2  UNL     1      13.435  10.016   1.216  1.00  0.00     0.294 C 
HETATM   25  O2  UNL     1      12.641  10.744   1.825  1.00  0.00    -0.259 OA
BRANCH  24  26
HETATM   26  O1  UNL     1      13.098   8.721   0.906  1.00  0.00    -0.322 OA
HETATM   27  C1  UNL     1      13.948   7.623   1.025  1.00  0.00     0.213 C 
ENDBRANCH  24  26
ENDBRANCH   1  24
BRANCH   6  28
HETATM   28  O7  UNL     1      16.615  11.553  -2.080  1.00  0.00    -0.359 OA
ATOM     29  H7  UNL     1      16.823  12.465  -2.246  1.00  0.00     0.217 HD
ENDBRANCH   6  28
BRANCH   7  30
HETATM   30  C18 UNL     1      13.954  10.679  -1.488  1.00  0.00     0.296 C 
HETATM   31  O8  UNL     1      12.998  11.489  -1.577  1.00  0.00    -0.259 OA
BRANCH  30  32
HETATM   32  O9  UNL     1      13.918   9.649  -2.410  1.00  0.00    -0.322 OA
HETATM   33  C19 UNL     1      14.016   9.750  -3.785  1.00  0.00     0.213 C 
ENDBRANCH  30  32
ENDBRANCH   7  30
TORSDOF 12
ENDMDL
MODEL 2
REMARK VINA RESULT: -6.540390448      2.359      6.197
REMARK  12 active torsions:
REMARK  status: ('A' for Active; 'I' for Inactive)
REMARK    1  A    between atoms: O1_2  and  C2_3 
REMARK    2  A    between atoms: C2_3  and  C3_5 
REMARK    3  A    between atoms: C6_8  and  C7_9 
REMARK    4  A    between atoms: C7_9  and  O3_10 
REMARK    5  A    between atoms: C7_9  and  C10_14 
REMARK    6  A    between atoms: O3_10  and  C8_11 
REMARK    7  A    between atoms: C10_14  and  O5_16 
REMARK    8  A    between atoms: C10_14  and  C12_18 
REMARK    9  A    between atoms: C13_22  and  C14_23 
REMARK   10  A    between atoms: C16_26  and  O7_27 
REMARK   11  A    between atoms: C17_29  and  C18_30 
REMARK   12  A    between atoms: C18_30  and  O9_32 
ROOT
HETATM    1  C3  UNL     1      18.382  11.675   0.613  1.00  0.00     0.065 A 
HETATM    2  C4  UNL     1      17.244  11.017   0.234  1.00  0.00    -0.031 A 
HETATM    3  C5  UNL     1      17.200  10.466  -1.120  1.00  0.00     0.050 C 
HETATM    4  C6  UNL     1      16.108  10.898   1.081  1.00  0.00     0.021 A 
HETATM    5  C13 UNL     1      16.249  11.497   2.328  1.00  0.00     0.057 A 
HETATM    6  C16 UNL     1      17.439  12.179   2.697  1.00  0.00     0.097 A 
HETATM    7  C17 UNL     1      18.484  12.262   1.847  1.00  0.00     0.090 A 
ENDROOT
BRANCH   4   8
HETATM    8  C7  UNL     1      14.967  10.138   0.605  1.00  0.00     0.107 C 
BRANCH   8   9
HETATM    9  O3  UNL     1      13.865  10.792   0.064  1.00  0.00    -0.279 OA
BRANCH   9  10
HETATM   10  C8  UNL     1      13.674  11.110  -1.237  1.00  0.00     0.259 C 
HETATM   11  C9  UNL     1      13.037  10.198  -2.237  1.00  0.00     0.126 C 
HETATM   12  O4  UNL     1      14.038  12.222  -1.649  1.00  0.00    -0.265 OA
ENDBRANCH   9  10
ENDBRANCH   8   9
BRANCH   8  13
HETATM   13  C10 UNL     1      14.641   8.847   1.329  1.00  0.00     0.135 C 
HETATM   14  C11 UNL     1      14.431   7.652   0.436  1.00  0.00     0.059 C 
BRANCH  13  15
HETATM   15  O5  UNL     1      15.849   8.512   2.112  1.00  0.00    -0.378 OA
ATOM     16  H5  UNL     1      16.536   9.076   1.777  1.00  0.00     0.211 HD
ENDBRANCH  13  15
BRANCH  13  17
HETATM   17  C12 UNL     1      13.629   8.898   2.360  1.00  0.00     0.097 C 
HETATM   18  N1  UNL     1      12.390   9.016   2.006  1.00  0.00    -0.408 N 
ATOM     19  H12 UNL     1      12.150   9.070   1.016  1.00  0.00     0.155 HD
ATOM     20  H11 UNL     1      11.677   9.053   2.733  1.00  0.00     0.155 HD
ENDBRANCH  13  17
ENDBRANCH   8  13
ENDBRANCH   4   8
BRANCH   5  21
HETATM   21  C14 UNL     1      15.298  11.321   3.397  1.00  0.00     0.159 C 
HETATM   22  C15 UNL     1      13.993  12.029   3.463  1.00  0.00     0.097 C 
HETATM   23  O6  UNL     1      15.463  10.567   4.382  1.00  0.00    -0.293 OA
ENDBRANCH   5  21
BRANCH   1  24
HETATM   24  C2  UNL     1      19.468  11.707  -0.343  1.00  0.00     0.294 C 
HETATM   25  O2  UNL     1      19.763  12.742  -0.954  1.00  0.00    -0.259 OA
BRANCH  24  26
HETATM   26  O1  UNL     1      20.170  10.546  -0.557  1.00  0.00    -0.322 OA
HETATM   27  C1  UNL     1      20.730   9.754   0.444  1.00  0.00     0.213 C 
ENDBRANCH  24  26
ENDBRANCH   1  24
BRANCH   6  28
HETATM   28  O7  UNL     1      17.468  12.736   3.932  1.00  0.00    -0.359 OA
ATOM     29  H7  UNL     1      17.923  13.566   4.018  1.00  0.00     0.217 HD
ENDBRANCH   6  28
BRANCH   7  30
HETATM   30  C18 UNL     1      19.720  12.968   2.180  1.00  0.00     0.296 C 
HETATM   31  O8  UNL     1      20.711  12.409   2.711  1.00  0.00    -0.259 OA
BRANCH  30  32
HETATM   32  O9  UNL     1      19.890  14.318   1.932  1.00  0.00    -0.322 OA
HETATM   33  C19 UNL     1      18.902  15.274   1.782  1.00  0.00     0.213 C 
ENDBRANCH  30  32
ENDBRANCH   7  30
TORSDOF 12
ENDMDL
MODEL 3
REMARK VINA RESULT: -6.467289725      1.469      1.933
REMARK  12 active torsions:
REMARK  status: ('A' for Active; 'I' for Inactive)
REMARK    1  A    between atoms: O1_2  and  C2_3 
REMARK    2  A    between atoms: C2_3  and  C3_5 
REMARK    3  A    between atoms: C6_8  and  C7_9 
REMARK    4  A    between atoms: C7_9  and  O3_10 
REMARK    5  A    between atoms: C7_9  and  C10_14 
REMARK    6  A    between atoms: O3_10  and  C8_11 
REMARK    7  A    between atoms: C10_14  and  O5_16 
REMARK    8  A    between atoms: C10_14  and  C12_18 
REMARK    9  A    between atoms: C13_22  and  C14_23 
REMARK   10  A    between atoms: C16_26  and  O7_27 
REMARK   11  A    between atoms: C17_29  and  C18_30 
REMARK   12  A    between atoms: C18_30  and  O9_32 
ROOT
HETATM    1  C3  UNL     1      15.712   9.939   1.609  1.00  0.00     0.065 A 
HETATM    2  C4  UNL     1      16.982  10.038   2.108  1.00  0.00    -0.031 A 
HETATM    3  C5  UNL     1      17.271   9.351   3.366  1.00  0.00     0.050 C 
HETATM    4  C6  UNL     1      17.994  10.815   1.481  1.00  0.00     0.021 A 
HETATM    5  C13 UNL     1      17.593  11.458   0.315  1.00  0.00     0.057 A 
HETATM    6  C16 UNL     1      16.267  11.343  -0.180  1.00  0.00     0.097 A 
HETATM    7  C17 UNL     1      15.348  10.594   0.463  1.00  0.00     0.090 A 
ENDROOT
BRANCH   4   8
HETATM    8  C7  UNL     1      19.324  10.816   2.062  1.00  0.00     0.107 C 
BRANCH   8   9
HETATM    9  O3  UNL     1      19.900  12.007   2.493  1.00  0.00    -0.279 OA
BRANCH   9  10
HETATM   10  C8  UNL     1      19.409  12.845   3.435  1.00  0.00     0.259 C 
HETATM   11  C9  UNL     1      18.136  13.615   3.289  1.00  0.00     0.126 C 
HETATM   12  O4  UNL     1      20.036  13.000   4.495  1.00  0.00    -0.265 OA
ENDBRANCH   9  10
ENDBRANCH   8   9
BRANCH   8  13
HETATM   13  C10 UNL     1      20.312   9.792   1.541  1.00  0.00     0.135 C 
HETATM   14  C11 UNL     1      20.510   8.590   2.427  1.00  0.00     0.059 C 
BRANCH  13  15
HETATM   15  O5  UNL     1      19.707   9.244   0.309  1.00  0.00    -0.378 OA
ATOM     16  H5  UNL     1      19.623   9.981  -0.285  1.00  0.00     0.211 HD
ENDBRANCH  13  15
BRANCH  13  17
HETATM   17  C12 UNL     1      21.582  10.280   1.050  1.00  0.00     0.097 C 
HETATM   18  N1  UNL     1      21.591  11.025  -0.007  1.00  0.00    -0.408 N 
ATOM     19  H12 UNL     1      20.714  11.253  -0.473  1.00  0.00     0.155 HD
ATOM     20  H11 UNL     1      22.486  11.369  -0.352  1.00  0.00     0.155 HD
ENDBRANCH  13  17
ENDBRANCH   8  13
ENDBRANCH   4   8
BRANCH   5  21
HETATM   21  C14 UNL     1      18.513  12.126  -0.570  1.00  0.00     0.159 C 
HETATM   22  C15 UNL     1      18.955  13.533  -0.390  1.00  0.00     0.097 C 
HETATM   23  O6  UNL     1      19.033  11.607  -1.583  1.00  0.00    -0.293 OA
ENDBRANCH   5  21
BRANCH   1  24
HETATM   24  C2  UNL     1      14.785   9.102   2.343  1.00  0.00     0.294 C 
HETATM   25  O2  UNL     1      14.597   7.920   2.034  1.00  0.00    -0.259 OA
BRANCH  24  26
HETATM   26  O1  UNL     1      14.115   9.662   3.402  1.00  0.00    -0.322 OA
HETATM   27  C1  UNL     1      13.829   9.013   4.601  1.00  0.00     0.213 C 
ENDBRANCH  24  26
ENDBRANCH   1  24
BRANCH   6  28
HETATM   28  O7  UNL     1      15.978  12.020  -1.319  1.00  0.00    -0.359 OA
ATOM     29  H7  UNL     1      15.097  12.365  -1.401  1.00  0.00     0.217 HD
ENDBRANCH   6  28
BRANCH   7  30
HETATM   30  C18 UNL     1      13.968  10.462  -0.004  1.00  0.00     0.296 C 
HETATM   31  O8  UNL     1      13.001  11.060   0.529  1.00  0.00    -0.259 OA
BRANCH  30  32
HETATM   32  O9  UNL     1      13.625   9.661  -1.077  1.00  0.00    -0.322 OA
HETATM   33  C19 UNL     1      13.246  10.070  -2.343  1.00  0.00     0.213 C 
ENDBRANCH  30  32
ENDBRANCH   7  30
TORSDOF 12
ENDMDL
MODEL 4
REMARK VINA RESULT: -6.391548942      1.796      3.170
REMARK  12 active torsions:
REMARK  status: ('A' for Active; 'I' for Inactive)
REMARK    1  A    between atoms: O1_2  and  C2_3 
REMARK    2  A    between atoms: C2_3  and  C3_5 
REMARK    3  A    between atoms: C6_8  and  C7_9 
REMARK    4  A    between atoms: C7_9  and  O3_10 
REMARK    5  A    between atoms: C7_9  and  C10_14 
REMARK    6  A    between atoms: O3_10  and  C8_11 
REMARK    7  A    between atoms: C10_14  and  O5_16 
REMARK    8  A    between atoms: C10_14  and  C12_18 
REMARK    9  A    between atoms: C13_22  and  C14_23 
REMARK   10  A    between atoms: C16_26  and  O7_27 
REMARK   11  A    between atoms: C17_29  and  C18_30 
REMARK   12  A    between atoms: C18_30  and  O9_32 
ROOT
HETATM    1  C3  UNL     1      16.009   9.734   1.585  1.00  0.00     0.065 A 
HETATM    2  C4  UNL     1      17.335   9.809   1.907  1.00  0.00    -0.031 A 
HETATM    3  C5  UNL     1      17.808   8.997   3.027  1.00  0.00     0.050 C 
HETATM    4  C6  UNL     1      18.241  10.673   1.231  1.00  0.00     0.021 A 
HETATM    5  C13 UNL     1      17.672  11.428   0.212  1.00  0.00     0.057 A 
HETATM    6  C16 UNL     1      16.290  11.337  -0.099  1.00  0.00     0.097 A 
HETATM    7  C17 UNL     1      15.478  10.500   0.581  1.00  0.00     0.090 A 
ENDROOT
BRANCH   4   8
HETATM    8  C7  UNL     1      19.641  10.643   1.615  1.00  0.00     0.107 C 
BRANCH   8   9
HETATM    9  O3  UNL     1      20.362   9.456   1.546  1.00  0.00    -0.279 OA
BRANCH   9  10
HETATM   10  C8  UNL     1      21.255   9.108   0.591  1.00  0.00     0.259 C 
HETATM   11  C9  UNL     1      22.279   8.031   0.755  1.00  0.00     0.126 C 
HETATM   12  O4  UNL     1      21.240   9.703  -0.497  1.00  0.00    -0.265 OA
ENDBRANCH   9  10
ENDBRANCH   8   9
BRANCH   8  13
HETATM   13  C10 UNL     1      20.079  11.583   2.720  1.00  0.00     0.135 C 
HETATM   14  C11 UNL     1      18.976  12.410   3.328  1.00  0.00     0.059 C 
BRANCH  13  15
HETATM   15  O5  UNL     1      20.537  10.714   3.824  1.00  0.00    -0.378 OA
ATOM     16  H5  UNL     1      19.870  10.782   4.498  1.00  0.00     0.211 HD
ENDBRANCH  13  15
BRANCH  13  17
HETATM   17  C12 UNL     1      21.253  12.394   2.480  1.00  0.00     0.097 C 
HETATM   18  N1  UNL     1      21.823  12.326   1.321  1.00  0.00    -0.408 N 
ATOM     19  H12 UNL     1      21.442  11.710   0.604  1.00  0.00     0.155 HD
ATOM     20  H11 UNL     1      22.650  12.898   1.152  1.00  0.00     0.155 HD
ENDBRANCH  13  17
ENDBRANCH   8  13
ENDBRANCH   4   8
BRANCH   5  21
HETATM   21  C14 UNL     1      18.450  12.210  -0.716  1.00  0.00     0.159 C 
HETATM   22  C15 UNL     1      18.973  13.567  -0.412  1.00  0.00     0.097 C 
HETATM   23  O6  UNL     1      18.764  11.844  -1.870  1.00  0.00    -0.293 OA
ENDBRANCH   5  21
BRANCH   1  24
HETATM   24  C2  UNL     1      15.203   8.802   2.345  1.00  0.00     0.294 C 
HETATM   25  O2  UNL     1      14.793   7.746   1.848  1.00  0.00    -0.259 OA
BRANCH  24  26
HETATM   26  O1  UNL     1      14.905   9.123   3.647  1.00  0.00    -0.322 OA
HETATM   27  C1  UNL     1      13.624   9.131   4.196  1.00  0.00     0.213 C 
ENDBRANCH  24  26
ENDBRANCH   1  24
BRANCH   6  28
HETATM   28  O7  UNL     1      15.835  12.125  -1.104  1.00  0.00    -0.359 OA
ATOM     29  H7  UNL     1      14.902  12.305  -1.119  1.00  0.00     0.217 HD
ENDBRANCH   6  28
BRANCH   7  30
HETATM   30  C18 UNL     1      14.047  10.387   0.303  1.00  0.00     0.296 C 
HETATM   31  O8  UNL     1      13.162  10.917   1.019  1.00  0.00    -0.259 OA
BRANCH  30  32
HETATM   32  O9  UNL     1      13.558   9.680  -0.780  1.00  0.00    -0.322 OA
HETATM   33  C19 UNL     1      13.215  10.180  -2.023  1.00  0.00     0.213 C 
ENDBRANCH  30  32
ENDBRANCH   7  30
TORSDOF 12
ENDMDL
MODEL 5
REMARK VINA RESULT: -6.383869937      2.651      6.002
REMARK  12 active torsions:
REMARK  status: ('A' for Active; 'I' for Inactive)
REMARK    1  A    between atoms: O1_2  and  C2_3 
REMARK    2  A    between atoms: C2_3  and  C3_5 
REMARK    3  A    between atoms: C6_8  and  C7_9 
REMARK    4  A    between atoms: C7_9  and  O3_10 
REMARK    5  A    between atoms: C7_9  and  C10_14 
REMARK    6  A    between atoms: O3_10  and  C8_11 
REMARK    7  A    between atoms: C10_14  and  O5_16 
REMARK    8  A    between atoms: C10_14  and  C12_18 
REMARK    9  A    between atoms: C13_22  and  C14_23 
REMARK   10  A    between atoms: C16_26  and  O7_27 
REMARK   11  A    between atoms: C17_29  and  C18_30 
REMARK   12  A    between atoms: C18_30  and  O9_32 
ROOT
HETATM    1  C3  UNL     1      19.902   9.259   2.231  1.00  0.00     0.065 A 
HETATM    2  C4  UNL     1      18.600   9.387   2.628  1.00  0.00    -0.031 A 
HETATM    3  C5  UNL     1      18.210   8.752   3.886  1.00  0.00     0.050 C 
HETATM    4  C6  UNL     1      17.622  10.062   1.846  1.00  0.00     0.021 A 
HETATM    5  C13 UNL     1      18.098  10.589   0.651  1.00  0.00     0.057 A 
HETATM    6  C16 UNL     1      19.454  10.438   0.258  1.00  0.00     0.097 A 
HETATM    7  C17 UNL     1      20.336   9.782   1.041  1.00  0.00     0.090 A 
ENDROOT
BRANCH   4   8
HETATM    8  C7  UNL     1      16.278  10.187   2.378  1.00  0.00     0.107 C 
BRANCH   8   9
HETATM    9  O3  UNL     1      15.187   9.736   1.642  1.00  0.00    -0.279 OA
BRANCH   9  10
HETATM   10  C8  UNL     1      14.471   8.611   1.867  1.00  0.00     0.259 C 
HETATM   11  C9  UNL     1      14.104   7.625   0.804  1.00  0.00     0.126 C 
HETATM   12  O4  UNL     1      14.087   8.357   3.019  1.00  0.00    -0.265 OA
ENDBRANCH   9  10
ENDBRANCH   8   9
BRANCH   8  13
HETATM   13  C10 UNL     1      15.988  11.383   3.263  1.00  0.00     0.135 C 
HETATM   14  C11 UNL     1      17.110  12.383   3.370  1.00  0.00     0.059 C 
BRANCH  13  15
HETATM   15  O5  UNL     1      14.900  12.123   2.591  1.00  0.00    -0.378 OA
ATOM     16  H5  UNL     1      14.192  12.169   3.223  1.00  0.00     0.211 HD
ENDBRANCH  13  15
BRANCH  13  17
HETATM   17  C12 UNL     1      15.407  11.126   4.563  1.00  0.00     0.097 C 
HETATM   18  N1  UNL     1      14.140  10.881   4.635  1.00  0.00    -0.408 N 
ATOM     19  H12 UNL     1      13.576  10.873   3.785  1.00  0.00     0.155 HD
ATOM     20  H11 UNL     1      13.730  10.699   5.551  1.00  0.00     0.155 HD
ENDBRANCH  13  17
ENDBRANCH   8  13
ENDBRANCH   4   8
BRANCH   5  21
HETATM   21  C14 UNL     1      17.323  11.472  -0.183  1.00  0.00     0.159 C 
HETATM   22  C15 UNL     1      16.312  11.001  -1.166  1.00  0.00     0.097 C 
HETATM   23  O6  UNL     1      17.415  12.720  -0.181  1.00  0.00    -0.293 OA
ENDBRANCH   5  21
BRANCH   1  24
HETATM   24  C2  UNL     1      20.794   8.559   3.131  1.00  0.00     0.294 C 
HETATM   25  O2  UNL     1      21.438   9.159   4.001  1.00  0.00    -0.259 OA
BRANCH  24  26
HETATM   26  O1  UNL     1      20.907   7.197   2.994  1.00  0.00    -0.322 OA
HETATM   27  C1  UNL     1      22.104   6.508   2.810  1.00  0.00     0.213 C 
ENDBRANCH  24  26
ENDBRANCH   1  24
BRANCH   6  28
HETATM   28  O7  UNL     1      19.812  10.981  -0.932  1.00  0.00    -0.359 OA
ATOM     29  H7  UNL     1      20.580  11.539  -0.935  1.00  0.00     0.217 HD
ENDBRANCH   6  28
BRANCH   7  30
HETATM   30  C18 UNL     1      21.737   9.590   0.667  1.00  0.00     0.296 C 
HETATM   31  O8  UNL     1      22.655  10.375   1.011  1.00  0.00    -0.259 OA
BRANCH  30  32
HETATM   32  O9  UNL     1      22.156   8.520  -0.100  1.00  0.00    -0.322 OA
HETATM   33  C19 UNL     1      22.897   8.563  -1.268  1.00  0.00     0.213 C 
ENDBRANCH  30  32
ENDBRANCH   7  30
TORSDOF 12
ENDMDL
