MODEL 1
REMARK VINA RESULT: -7.928452363      0.000      0.000
REMARK  9 active torsions:
REMARK  status: ('A' for Active; 'I' for Inactive)
REMARK    1  A    between atoms: C3_4  and  C4_5 
REMARK    2  A    between atoms: C4_5  and  C5_7 
REMARK    3  A    between atoms: C5_7  and  S2_8 
REMARK    4  A    between atoms: C5_7  and  C8_20 
REMARK    5  A    between atoms: S2_8  and  C6_9 
REMARK    6  A    between atoms: C7_12  and  N2_13 
REMARK    7  A    between atoms: C8_20  and  O3_22 
REMARK    8  A    between atoms: O3_22  and  C9_23 
REMARK    9  A    between atoms: C13_29  and  N6_30 
ROOT
HETATM    1  C5  UNL     1      17.425  11.691   0.015  1.00  0.00     0.231 C 
ENDROOT
BRANCH   1   2
HETATM    2  C4  UNL     1      17.584  10.670   1.036  1.00  0.00     0.206 C 
HETATM    3  O1  UNL     1      18.710  10.221   1.325  1.00  0.00    -0.288 OA
BRANCH   2   4
HETATM    4  C3  UNL     1      16.433  10.114   1.775  1.00  0.00     0.124 A 
HETATM    5  S1  UNL     1      16.048  10.250   3.442  1.00  0.00    -0.070 SA
HETATM    6  C2  UNL     1      14.606   9.344   3.443  1.00  0.00     0.031 A 
HETATM    7  C1  UNL     1      13.657   9.000   4.563  1.00  0.00     0.061 C 
HETATM    8  C13 UNL     1      14.501   8.979   2.119  1.00  0.00     0.187 A 
HETATM    9  N5  UNL     1      15.431   9.382   1.318  1.00  0.00    -0.328 N 
ATOM     10  H5  UNL     1      15.392   9.135   0.329  1.00  0.00     0.168 HD
BRANCH   8  11
HETATM   11  N6  UNL     1      13.370   8.173   1.678  1.00  0.00    -0.097 N 
HETATM   12  O4  UNL     1      12.242   8.665   1.544  1.00  0.00    -0.530 OA
HETATM   13  O5  UNL     1      13.567   6.858   1.412  1.00  0.00    -0.530 OA
ENDBRANCH   8  11
ENDBRANCH   2   4
ENDBRANCH   1   2
BRANCH   1  14
HETATM   14  S2  UNL     1      18.660  12.960   0.084  1.00  0.00    -0.069 SA
BRANCH  14  15
HETATM   15  C6  UNL     1      19.008  13.656   1.646  1.00  0.00     0.175 A 
HETATM   16  N1  UNL     1      18.690  14.892   2.061  1.00  0.00    -0.168 N 
HETATM   17  C7  UNL     1      19.130  15.071   3.308  1.00  0.00     0.692 A 
ATOM     18  H1  UNL     1      18.188  15.588   1.509  1.00  0.00     0.186 HD
HETATM   19  N3  UNL     1      19.732  13.925   3.672  1.00  0.00    -0.130 N 
HETATM   20  N4  UNL     1      19.652  13.080   2.664  1.00  0.00    -0.265 N 
ATOM     21  H3  UNL     1      20.174  13.742   4.572  1.00  0.00     0.205 HD
ATOM     22  H4  UNL     1      20.026  12.131   2.661  1.00  0.00     0.189 HD
BRANCH  17  23
HETATM   23  N2  UNL     1      19.032  16.127   4.078  1.00  0.00    -0.233 N 
ATOM     24  H22 UNL     1      18.151  16.585   4.312  1.00  0.00     0.174 HD
ATOM     25  H21 UNL     1      19.768  16.648   4.555  1.00  0.00     0.174 HD
ENDBRANCH  17  23
ENDBRANCH  14  15
ENDBRANCH   1  14
BRANCH   1  26
HETATM   26  C8  UNL     1      17.382  11.153  -1.368  1.00  0.00     0.281 C 
HETATM   27  O2  UNL     1      18.145  11.515  -2.288  1.00  0.00    -0.263 OA
BRANCH  26  28
HETATM   28  O3  UNL     1      16.432  10.189  -1.642  1.00  0.00    -0.310 OA
BRANCH  28  29
HETATM   29  C9  UNL     1      15.209  10.410  -2.282  1.00  0.00     0.060 C 
HETATM   30  C10 UNL     1      14.309   9.229  -1.952  1.00  0.00     0.045 C 
HETATM   31  C11 UNL     1      14.489  11.635  -1.704  1.00  0.00     0.045 C 
HETATM   32  C12 UNL     1      15.287  10.498  -3.779  1.00  0.00     0.045 C 
ENDBRANCH  28  29
ENDBRANCH  26  28
ENDBRANCH   1  26
TORSDOF 9
ENDMDL
MODEL 2
REMARK VINA RESULT: -7.705073335      2.763      5.770
REMARK  9 active torsions:
REMARK  status: ('A' for Active; 'I' for Inactive)
REMARK    1  A    between atoms: C3_4  and  C4_5 
REMARK    2  A    between atoms: C4_5  and  C5_7 
REMARK    3  A    between atoms: C5_7  and  S2_8 
REMARK    4  A    between atoms: C5_7  and  C8_20 
REMARK    5  A    between atoms: S2_8  and  C6_9 
REMARK    6  A    between atoms: C7_12  and  N2_13 
REMARK    7  A    between atoms: C8_20  and  O3_22 
REMARK    8  A    between atoms: O3_22  and  C9_23 
REMARK    9  A    between atoms: C13_29  and  N6_30 
ROOT
HETATM    1  C5  UNL     1      14.791   9.580   1.930  1.00  0.00     0.231 C 
ENDROOT
BRANCH   1   2
HETATM    2  C4  UNL     1      15.179  10.956   2.185  1.00  0.00     0.206 C 
HETATM    3  O1  UNL     1      14.357  11.784   2.621  1.00  0.00    -0.288 OA
BRANCH   2   4
HETATM    4  C3  UNL     1      16.551  11.442   1.941  1.00  0.00     0.124 A 
HETATM    5  S1  UNL     1      17.634  12.220   3.022  1.00  0.00    -0.070 SA
HETATM    6  C2  UNL     1      18.948  12.428   1.958  1.00  0.00     0.031 A 
HETATM    7  C1  UNL     1      20.303  13.051   2.173  1.00  0.00     0.061 C 
HETATM    8  C13 UNL     1      18.462  11.868   0.796  1.00  0.00     0.187 A 
HETATM    9  N5  UNL     1      17.263  11.387   0.827  1.00  0.00    -0.328 N 
ATOM     10  H5  UNL     1      16.865  10.963  -0.011  1.00  0.00     0.168 HD
BRANCH   8  11
HETATM   11  N6  UNL     1      19.299  11.836  -0.396  1.00  0.00    -0.097 N 
HETATM   12  O4  UNL     1      20.021  10.864  -0.649  1.00  0.00    -0.530 OA
HETATM   13  O5  UNL     1      19.277  12.899  -1.239  1.00  0.00    -0.530 OA
ENDBRANCH   8  11
ENDBRANCH   2   4
ENDBRANCH   1   2
BRANCH   1  14
HETATM   14  S2  UNL     1      13.651   8.933   3.122  1.00  0.00    -0.069 SA
BRANCH  14  15
HETATM   15  C6  UNL     1      13.962   9.286   4.804  1.00  0.00     0.175 A 
HETATM   16  N1  UNL     1      13.547  10.364   5.486  1.00  0.00    -0.168 N 
HETATM   17  C7  UNL     1      13.988  10.293   6.743  1.00  0.00     0.692 A 
ATOM     18  H1  UNL     1      12.981  11.122   5.103  1.00  0.00     0.186 HD
HETATM   19  N3  UNL     1      14.688   9.150   6.842  1.00  0.00    -0.130 N 
HETATM   20  N4  UNL     1      14.665   8.551   5.669  1.00  0.00    -0.265 N 
ATOM     21  H3  UNL     1      15.156   8.806   7.680  1.00  0.00     0.205 HD
ATOM     22  H4  UNL     1      15.117   7.662   5.453  1.00  0.00     0.189 HD
BRANCH  17  23
HETATM   23  N2  UNL     1      13.813  11.136   7.732  1.00  0.00    -0.233 N 
ATOM     24  H22 UNL     1      13.140  11.903   7.718  1.00  0.00     0.174 HD
ATOM     25  H21 UNL     1      14.283  11.176   8.636  1.00  0.00     0.174 HD
ENDBRANCH  17  23
ENDBRANCH  14  15
ENDBRANCH   1  14
BRANCH   1  26
HETATM   26  C8  UNL     1      14.228   9.358   0.575  1.00  0.00     0.281 C 
HETATM   27  O2  UNL     1      13.037   9.059   0.348  1.00  0.00    -0.263 OA
BRANCH  26  28
HETATM   28  O3  UNL     1      15.089   9.493  -0.496  1.00  0.00    -0.310 OA
BRANCH  28  29
HETATM   29  C9  UNL     1      14.843  10.248  -1.647  1.00  0.00     0.060 C 
HETATM   30  C10 UNL     1      16.187  10.500  -2.314  1.00  0.00     0.045 C 
HETATM   31  C11 UNL     1      14.031   9.450  -2.675  1.00  0.00     0.045 C 
HETATM   32  C12 UNL     1      14.216  11.589  -1.401  1.00  0.00     0.045 C 
ENDBRANCH  28  29
ENDBRANCH  26  28
ENDBRANCH   1  26
TORSDOF 9
ENDMDL
MODEL 3
REMARK VINA RESULT: -7.698619502      2.885      5.948
REMARK  9 active torsions:
REMARK  status: ('A' for Active; 'I' for Inactive)
REMARK    1  A    between atoms: C3_4  and  C4_5 
REMARK    2  A    between atoms: C4_5  and  C5_7 
REMARK    3  A    between atoms: C5_7  and  S2_8 
REMARK    4  A    between atoms: C5_7  and  C8_20 
REMARK    5  A    between atoms: S2_8  and  C6_9 
REMARK    6  A    between atoms: C7_12  and  N2_13 
REMARK    7  A    between atoms: C8_20  and  O3_22 
REMARK    8  A    between atoms: O3_22  and  C9_23 
REMARK    9  A    between atoms: C13_29  and  N6_30 
ROOT
HETATM    1  C5  UNL     1      14.628   9.435   2.099  1.00  0.00     0.231 C 
ENDROOT
BRANCH   1   2
HETATM    2  C4  UNL     1      15.416  10.655   2.085  1.00  0.00     0.206 C 
HETATM    3  O1  UNL     1      14.962  11.718   2.550  1.00  0.00    -0.288 OA
BRANCH   2   4
HETATM    4  C3  UNL     1      16.780  10.701   1.523  1.00  0.00     0.124 A 
HETATM    5  S1  UNL     1      18.195   9.879   2.043  1.00  0.00    -0.070 SA
HETATM    6  C2  UNL     1      19.280  10.482   0.877  1.00  0.00     0.031 A 
HETATM    7  C1  UNL     1      20.750  10.220   0.668  1.00  0.00     0.061 C 
HETATM    8  C13 UNL     1      18.466  11.305   0.131  1.00  0.00     0.187 A 
HETATM    9  N5  UNL     1      17.225  11.389   0.484  1.00  0.00    -0.328 N 
ATOM     10  H5  UNL     1      16.587  11.987  -0.041  1.00  0.00     0.168 HD
BRANCH   8  11
HETATM   11  N6  UNL     1      19.017  12.033  -1.004  1.00  0.00    -0.097 N 
HETATM   12  O4  UNL     1      18.720  11.733  -2.167  1.00  0.00    -0.530 OA
HETATM   13  O5  UNL     1      19.873  13.060  -0.770  1.00  0.00    -0.530 OA
ENDBRANCH   8  11
ENDBRANCH   2   4
ENDBRANCH   1   2
BRANCH   1  14
HETATM   14  S2  UNL     1      13.376   9.415   3.353  1.00  0.00    -0.069 SA
BRANCH  14  15
HETATM   15  C6  UNL     1      13.905   9.307   5.013  1.00  0.00     0.175 A 
HETATM   16  N1  UNL     1      15.013   8.697   5.463  1.00  0.00    -0.168 N 
HETATM   17  C7  UNL     1      15.077   8.811   6.790  1.00  0.00     0.692 A 
ATOM     18  H1  UNL     1      15.701   8.219   4.880  1.00  0.00     0.186 HD
HETATM   19  N3  UNL     1      13.990   9.505   7.170  1.00  0.00    -0.130 N 
HETATM   20  N4  UNL     1      13.292   9.799   6.092  1.00  0.00    -0.265 N 
ATOM     21  H3  UNL     1      13.748   9.761   8.127  1.00  0.00     0.205 HD
ATOM     22  H4  UNL     1      12.416  10.322   6.083  1.00  0.00     0.189 HD
BRANCH  17  23
HETATM   23  N2  UNL     1      15.987   8.359   7.618  1.00  0.00    -0.233 N 
ATOM     24  H22 UNL     1      16.267   7.380   7.681  1.00  0.00     0.174 HD
ATOM     25  H21 UNL     1      16.546   8.867   8.303  1.00  0.00     0.174 HD
ENDBRANCH  17  23
ENDBRANCH  14  15
ENDBRANCH   1  14
BRANCH   1  26
HETATM   26  C8  UNL     1      13.992   9.119   0.796  1.00  0.00     0.281 C 
HETATM   27  O2  UNL     1      13.726   7.963   0.404  1.00  0.00    -0.263 OA
BRANCH  26  28
HETATM   28  O3  UNL     1      13.677  10.181  -0.028  1.00  0.00    -0.310 OA
BRANCH  28  29
HETATM   29  C9  UNL     1      14.031  10.300  -1.375  1.00  0.00     0.060 C 
HETATM   30  C10 UNL     1      14.343  11.766  -1.630  1.00  0.00     0.045 C 
HETATM   31  C11 UNL     1      15.339   9.556  -1.676  1.00  0.00     0.045 C 
HETATM   32  C12 UNL     1      12.959   9.901  -2.347  1.00  0.00     0.045 C 
ENDBRANCH  28  29
ENDBRANCH  26  28
ENDBRANCH   1  26
TORSDOF 9
ENDMDL
MODEL 4
REMARK VINA RESULT: -7.573324414      1.391      1.813
REMARK  9 active torsions:
REMARK  status: ('A' for Active; 'I' for Inactive)
REMARK    1  A    between atoms: C3_4  and  C4_5 
REMARK    2  A    between atoms: C4_5  and  C5_7 
REMARK    3  A    between atoms: C5_7  and  S2_8 
REMARK    4  A    between atoms: C5_7  and  C8_20 
REMARK    5  A    between atoms: S2_8  and  C6_9 
REMARK    6  A    between atoms: C7_12  and  N2_13 
REMARK    7  A    between atoms: C8_20  and  O3_22 
REMARK    8  A    between atoms: O3_22  and  C9_23 
REMARK    9  A    between atoms: C13_29  and  N6_30 
ROOT
HETATM    1  C5  UNL     1      17.321  11.700  -0.004  1.00  0.00     0.231 C 
ENDROOT
BRANCH   1   2
HETATM    2  C4  UNL     1      17.505  10.682   1.015  1.00  0.00     0.206 C 
HETATM    3  O1  UNL     1      18.638  10.243   1.287  1.00  0.00    -0.288 OA
BRANCH   2   4
HETATM    4  C3  UNL     1      16.370  10.116   1.771  1.00  0.00     0.124 A 
HETATM    5  S1  UNL     1      16.016  10.236   3.446  1.00  0.00    -0.070 SA
HETATM    6  C2  UNL     1      14.577   9.325   3.467  1.00  0.00     0.031 A 
HETATM    7  C1  UNL     1      13.651   8.969   4.601  1.00  0.00     0.061 C 
HETATM    8  C13 UNL     1      14.447   8.971   2.142  1.00  0.00     0.187 A 
HETATM    9  N5  UNL     1      15.361   9.384   1.326  1.00  0.00    -0.328 N 
ATOM     10  H5  UNL     1      15.303   9.145   0.336  1.00  0.00     0.168 HD
BRANCH   8  11
HETATM   11  N6  UNL     1      13.310   8.166   1.716  1.00  0.00    -0.097 N 
HETATM   12  O4  UNL     1      12.184   8.662   1.583  1.00  0.00    -0.530 OA
HETATM   13  O5  UNL     1      13.501   6.847   1.462  1.00  0.00    -0.530 OA
ENDBRANCH   8  11
ENDBRANCH   2   4
ENDBRANCH   1   2
BRANCH   1  14
HETATM   14  S2  UNL     1      18.506  13.015   0.089  1.00  0.00    -0.069 SA
BRANCH  14  15
HETATM   15  C6  UNL     1      20.108  12.614   0.655  1.00  0.00     0.175 A 
HETATM   16  N1  UNL     1      20.597  12.821   1.887  1.00  0.00    -0.168 N 
HETATM   17  C7  UNL     1      21.861  12.397   1.942  1.00  0.00     0.692 A 
ATOM     18  H1  UNL     1      20.082  13.238   2.663  1.00  0.00     0.186 HD
HETATM   19  N3  UNL     1      22.159  11.918   0.722  1.00  0.00    -0.130 N 
HETATM   20  N4  UNL     1      21.097  12.053  -0.045  1.00  0.00    -0.265 N 
ATOM     21  H3  UNL     1      23.054  11.519   0.439  1.00  0.00     0.205 HD
ATOM     22  H4  UNL     1      21.039  11.772  -1.024  1.00  0.00     0.189 HD
BRANCH  17  23
HETATM   23  N2  UNL     1      22.699  12.417   2.950  1.00  0.00    -0.233 N 
ATOM     24  H22 UNL     1      22.494  12.034   3.873  1.00  0.00     0.174 HD
ATOM     25  H21 UNL     1      23.647  12.791   2.993  1.00  0.00     0.174 HD
ENDBRANCH  17  23
ENDBRANCH  14  15
ENDBRANCH   1  14
BRANCH   1  26
HETATM   26  C8  UNL     1      17.319  11.168  -1.389  1.00  0.00     0.281 C 
HETATM   27  O2  UNL     1      18.108  11.535  -2.285  1.00  0.00    -0.263 OA
BRANCH  26  28
HETATM   28  O3  UNL     1      16.379  10.205  -1.695  1.00  0.00    -0.310 OA
BRANCH  28  29
HETATM   29  C9  UNL     1      15.152  10.435  -2.324  1.00  0.00     0.060 C 
HETATM   30  C10 UNL     1      14.248   9.257  -1.993  1.00  0.00     0.045 C 
HETATM   31  C11 UNL     1      14.443  11.660  -1.733  1.00  0.00     0.045 C 
HETATM   32  C12 UNL     1      15.218  10.532  -3.821  1.00  0.00     0.045 C 
ENDBRANCH  28  29
ENDBRANCH  26  28
ENDBRANCH   1  26
TORSDOF 9
ENDMDL
MODEL 5
REMARK VINA RESULT: -7.532358760      2.699      6.816
REMARK  9 active torsions:
REMARK  status: ('A' for Active; 'I' for Inactive)
REMARK    1  A    between atoms: C3_4  and  C4_5 
REMARK    2  A    between atoms: C4_5  and  C5_7 
REMARK    3  A    between atoms: C5_7  and  S2_8 
REMARK    4  A    between atoms: C5_7  and  C8_20 
REMARK    5  A    between atoms: S2_8  and  C6_9 
REMARK    6  A    between atoms: C7_12  and  N2_13 
REMARK    7  A    between atoms: C8_20  and  O3_22 
REMARK    8  A    between atoms: O3_22  and  C9_23 
REMARK    9  A    between atoms: C13_29  and  N6_30 
ROOT
HETATM    1  C5  UNL     1      14.632  10.939   3.444  1.00  0.00     0.231 C 
ENDROOT
BRANCH   1   2
HETATM    2  C4  UNL     1      15.717  11.850   3.127  1.00  0.00     0.206 C 
HETATM    3  O1  UNL     1      15.753  12.998   3.608  1.00  0.00    -0.288 OA
BRANCH   2   4
HETATM    4  C3  UNL     1      16.822  11.469   2.225  1.00  0.00     0.124 A 
HETATM    5  S1  UNL     1      18.123  10.384   2.502  1.00  0.00    -0.070 SA
HETATM    6  C2  UNL     1      18.900  10.530   0.994  1.00  0.00     0.031 A 
HETATM    7  C1  UNL     1      20.147   9.873   0.458  1.00  0.00     0.061 C 
HETATM    8  C13 UNL     1      18.089  11.433   0.344  1.00  0.00     0.187 A 
HETATM    9  N5  UNL     1      17.062  11.879   0.990  1.00  0.00    -0.328 N 
ATOM     10  H5  UNL     1      16.434  12.549   0.545  1.00  0.00     0.168 HD
BRANCH   8  11
HETATM   11  N6  UNL     1      18.407  11.842  -1.018  1.00  0.00    -0.097 N 
HETATM   12  O4  UNL     1      17.877  11.296  -1.994  1.00  0.00    -0.530 OA
HETATM   13  O5  UNL     1      19.303  12.842  -1.209  1.00  0.00    -0.530 OA
ENDBRANCH   8  11
ENDBRANCH   2   4
ENDBRANCH   1   2
BRANCH   1  14
HETATM   14  S2  UNL     1      13.498  10.695   2.104  1.00  0.00    -0.069 SA
BRANCH  14  15
HETATM   15  C6  UNL     1      14.175  10.350   0.532  1.00  0.00     0.175 A 
HETATM   16  N1  UNL     1      14.009  11.072  -0.587  1.00  0.00    -0.168 N 
HETATM   17  C7  UNL     1      14.667  10.492  -1.592  1.00  0.00     0.692 A 
ATOM     18  H1  UNL     1      13.464  11.931  -0.658  1.00  0.00     0.186 HD
HETATM   19  N3  UNL     1      15.252   9.393  -1.087  1.00  0.00    -0.130 N 
HETATM   20  N4  UNL     1      14.950   9.317   0.193  1.00  0.00    -0.265 N 
ATOM     21  H3  UNL     1      15.830   8.731  -1.605  1.00  0.00     0.205 HD
ATOM     22  H4  UNL     1      15.260   8.581   0.828  1.00  0.00     0.189 HD
BRANCH  17  23
HETATM   23  N2  UNL     1      14.762  10.866  -2.845  1.00  0.00    -0.233 N 
ATOM     24  H22 UNL     1      15.373  11.613  -3.175  1.00  0.00     0.174 HD
ATOM     25  H21 UNL     1      14.278  10.501  -3.666  1.00  0.00     0.174 HD
ENDBRANCH  17  23
ENDBRANCH  14  15
ENDBRANCH   1  14
BRANCH   1  26
HETATM   26  C8  UNL     1      15.086   9.609   3.921  1.00  0.00     0.281 C 
HETATM   27  O2  UNL     1      15.068   8.569   3.230  1.00  0.00    -0.263 OA
BRANCH  26  28
HETATM   28  O3  UNL     1      15.559   9.530   5.216  1.00  0.00    -0.310 OA
BRANCH  28  29
HETATM   29  C9  UNL     1      14.779   9.303   6.355  1.00  0.00     0.060 C 
HETATM   30  C10 UNL     1      15.709   8.777   7.438  1.00  0.00     0.045 C 
HETATM   31  C11 UNL     1      14.216  10.615   6.915  1.00  0.00     0.045 C 
HETATM   32  C12 UNL     1      13.687   8.288   6.181  1.00  0.00     0.045 C 
ENDBRANCH  28  29
ENDBRANCH  26  28
ENDBRANCH   1  26
TORSDOF 9
ENDMDL
