MODEL 1
REMARK VINA RESULT: -9.101327954      0.000      0.000
REMARK  7 active torsions:
REMARK  status: ('A' for Active; 'I' for Inactive)
REMARK    1  A    between atoms: O1_2  and  C2_3 
REMARK    2  A    between atoms: C6_10  and  N2_11 
REMARK    3  A    between atoms: C9_18  and  O3_19 
REMARK    4  A    between atoms: O3_19  and  C10_20 
REMARK    5  A    between atoms: C11_21  and  N4_22 
REMARK    6  A    between atoms: C13_26  and  N5_27 
REMARK    7  A    between atoms: C15_31  and  N6_32 
ROOT
HETATM    1  C2  UNL     1      14.494  10.811  -0.172  1.00  0.00     0.103 A 
HETATM    2  C3  UNL     1      13.760  10.347  -1.264  1.00  0.00     0.059 A 
HETATM    3  C4  UNL     1      14.281  10.308  -2.541  1.00  0.00     0.062 A 
HETATM    4  C5  UNL     1      13.568   9.852  -3.620  1.00  0.00     0.272 A 
HETATM    5  O2  UNL     1      12.400   9.449  -3.485  1.00  0.00    -0.267 OA
HETATM    6  N1  UNL     1      14.161   9.851  -4.833  1.00  0.00    -0.156 N 
ATOM      7  H1  UNL     1      13.637   9.514  -5.640  1.00  0.00     0.187 HD
HETATM    8  C6  UNL     1      15.421  10.280  -5.007  1.00  0.00     0.679 A 
HETATM    9  N3  UNL     1      16.113  10.723  -3.958  1.00  0.00    -0.191 N 
ATOM     10  H3  UNL     1      17.069  11.049  -4.096  1.00  0.00     0.184 HD
HETATM   11  C7  UNL     1      15.577  10.751  -2.713  1.00  0.00     0.067 A 
HETATM   12  C8  UNL     1      16.307  11.212  -1.639  1.00  0.00     0.071 A 
HETATM   13  C9  UNL     1      15.799  11.255  -0.369  1.00  0.00     0.111 A 
ENDROOT
BRANCH  13  14
HETATM   14  O3  UNL     1      16.520  11.716   0.726  1.00  0.00    -0.303 OA
BRANCH  14  15
HETATM   15  C10 UNL     1      17.738  11.100   1.024  1.00  0.00     0.142 A 
HETATM   16  C11 UNL     1      18.900  11.535   0.390  1.00  0.00     0.141 A 
HETATM   17  C12 UNL     1      20.128  10.936   0.670  1.00  0.00     0.075 A 
HETATM   18  C13 UNL     1      20.228   9.904   1.576  1.00  0.00     0.107 A 
HETATM   19  C14 UNL     1      19.065   9.489   2.192  1.00  0.00     0.075 A 
HETATM   20  C15 UNL     1      17.827  10.061   1.937  1.00  0.00     0.141 A 
BRANCH  16  21
HETATM   21  N4  UNL     1      18.861  12.595  -0.556  1.00  0.00    -0.113 N 
HETATM   22  O4  UNL     1      19.080  12.428  -1.771  1.00  0.00    -0.532 OA
HETATM   23  O5  UNL     1      18.566  13.856  -0.100  1.00  0.00    -0.532 OA
ENDBRANCH  16  21
BRANCH  18  24
HETATM   24  N5  UNL     1      21.476   9.296   1.859  1.00  0.00    -0.116 N 
HETATM   25  O6  UNL     1      21.503   8.271   2.551  1.00  0.00    -0.532 OA
HETATM   26  O7  UNL     1      22.663   9.797   1.397  1.00  0.00    -0.532 OA
ENDBRANCH  18  24
BRANCH  20  27
HETATM   27  N6  UNL     1      16.651   9.622   2.580  1.00  0.00    -0.113 N 
HETATM   28  O8  UNL     1      16.127   8.551   2.263  1.00  0.00    -0.532 OA
HETATM   29  O9  UNL     1      16.089  10.385   3.560  1.00  0.00    -0.532 OA
ENDBRANCH  20  27
ENDBRANCH  14  15
ENDBRANCH  13  14
BRANCH   1  30
HETATM   30  O1  UNL     1      13.970  10.849   1.101  1.00  0.00    -0.353 OA
HETATM   31  C1  UNL     1      13.084   9.936   1.674  1.00  0.00     0.210 C 
ENDBRANCH   1  30
BRANCH   8  32
HETATM   32  N2  UNL     1      15.986  10.281  -6.150  1.00  0.00    -0.234 N 
ATOM     33  H22 UNL     1      15.516  10.754  -6.922  1.00  0.00     0.174 HD
ATOM     34  H21 UNL     1      16.884   9.826  -6.312  1.00  0.00     0.174 HD
ENDBRANCH   8  32
TORSDOF 7
ENDMDL
MODEL 2
REMARK VINA RESULT: -9.093221123      0.157      2.668
REMARK  7 active torsions:
REMARK  status: ('A' for Active; 'I' for Inactive)
REMARK    1  A    between atoms: O1_2  and  C2_3 
REMARK    2  A    between atoms: C6_10  and  N2_11 
REMARK    3  A    between atoms: C9_18  and  O3_19 
REMARK    4  A    between atoms: O3_19  and  C10_20 
REMARK    5  A    between atoms: C11_21  and  N4_22 
REMARK    6  A    between atoms: C13_26  and  N5_27 
REMARK    7  A    between atoms: C15_31  and  N6_32 
ROOT
HETATM    1  C2  UNL     1      14.419  10.809  -0.231  1.00  0.00     0.103 A 
HETATM    2  C3  UNL     1      13.698  10.349  -1.334  1.00  0.00     0.059 A 
HETATM    3  C4  UNL     1      14.238  10.306  -2.603  1.00  0.00     0.062 A 
HETATM    4  C5  UNL     1      13.538   9.855  -3.693  1.00  0.00     0.272 A 
HETATM    5  O2  UNL     1      12.365   9.459  -3.574  1.00  0.00    -0.267 OA
HETATM    6  N1  UNL     1      14.149   9.850  -4.896  1.00  0.00    -0.156 N 
ATOM      7  H1  UNL     1      13.634   9.516  -5.710  1.00  0.00     0.187 HD
HETATM    8  C6  UNL     1      15.413  10.270  -5.051  1.00  0.00     0.679 A 
HETATM    9  N3  UNL     1      16.092  10.709  -3.993  1.00  0.00    -0.191 N 
ATOM     10  H3  UNL     1      17.053  11.029  -4.116  1.00  0.00     0.184 HD
HETATM   11  C7  UNL     1      15.538  10.741  -2.756  1.00  0.00     0.067 A 
HETATM   12  C8  UNL     1      16.255  11.197  -1.671  1.00  0.00     0.071 A 
HETATM   13  C9  UNL     1      15.729  11.244  -0.409  1.00  0.00     0.111 A 
ENDROOT
BRANCH  13  14
HETATM   14  O3  UNL     1      16.436  11.701   0.696  1.00  0.00    -0.303 OA
BRANCH  14  15
HETATM   15  C10 UNL     1      17.650  11.082   1.008  1.00  0.00     0.142 A 
HETATM   16  C11 UNL     1      17.669  10.034   1.927  1.00  0.00     0.141 A 
HETATM   17  C12 UNL     1      18.867   9.401   2.255  1.00  0.00     0.075 A 
HETATM   18  C13 UNL     1      20.059   9.790   1.686  1.00  0.00     0.107 A 
HETATM   19  C14 UNL     1      20.017  10.830   0.780  1.00  0.00     0.075 A 
HETATM   20  C15 UNL     1      18.844  11.482   0.430  1.00  0.00     0.141 A 
BRANCH  16  21
HETATM   21  N4  UNL     1      16.471   9.588   2.549  1.00  0.00    -0.113 N 
HETATM   22  O4  UNL     1      15.914   8.514   2.253  1.00  0.00    -0.532 OA
HETATM   23  O5  UNL     1      15.913  10.383   3.519  1.00  0.00    -0.532 OA
ENDBRANCH  16  21
BRANCH  18  24
HETATM   24  N5  UNL     1      21.275   9.146   2.022  1.00  0.00    -0.116 N 
HETATM   25  O6  UNL     1      21.245   8.139   2.740  1.00  0.00    -0.532 OA
HETATM   26  O7  UNL     1      22.493   9.591   1.582  1.00  0.00    -0.532 OA
ENDBRANCH  18  24
BRANCH  20  27
HETATM   27  N6  UNL     1      18.824  12.542  -0.501  1.00  0.00    -0.113 N 
HETATM   28  O8  UNL     1      19.080  12.336  -1.690  1.00  0.00    -0.532 OA
HETATM   29  O9  UNL     1      18.522  13.804  -0.084  1.00  0.00    -0.532 OA
ENDBRANCH  20  27
ENDBRANCH  14  15
ENDBRANCH  13  14
BRANCH   1  30
HETATM   30  O1  UNL     1      13.877  10.850   1.034  1.00  0.00    -0.353 OA
HETATM   31  C1  UNL     1      12.967   9.950   1.590  1.00  0.00     0.210 C 
ENDBRANCH   1  30
BRANCH   8  32
HETATM   32  N2  UNL     1      15.995  10.268  -6.186  1.00  0.00    -0.234 N 
ATOM     33  H22 UNL     1      15.540   9.789  -6.963  1.00  0.00     0.174 HD
ATOM     34  H21 UNL     1      16.894  10.725  -6.336  1.00  0.00     0.174 HD
ENDBRANCH   8  32
TORSDOF 7
ENDMDL
MODEL 3
REMARK VINA RESULT: -8.623906369      3.326      6.812
REMARK  7 active torsions:
REMARK  status: ('A' for Active; 'I' for Inactive)
REMARK    1  A    between atoms: O1_2  and  C2_3 
REMARK    2  A    between atoms: C6_10  and  N2_11 
REMARK    3  A    between atoms: C9_18  and  O3_19 
REMARK    4  A    between atoms: O3_19  and  C10_20 
REMARK    5  A    between atoms: C11_21  and  N4_22 
REMARK    6  A    between atoms: C13_26  and  N5_27 
REMARK    7  A    between atoms: C15_31  and  N6_32 
ROOT
HETATM    1  C2  UNL     1      17.137  11.036   0.147  1.00  0.00     0.103 A 
HETATM    2  C3  UNL     1      18.460  10.748  -0.191  1.00  0.00     0.059 A 
HETATM    3  C4  UNL     1      19.292  10.021   0.634  1.00  0.00     0.062 A 
HETATM    4  C5  UNL     1      20.593   9.733   0.310  1.00  0.00     0.272 A 
HETATM    5  O2  UNL     1      21.081  10.124  -0.765  1.00  0.00    -0.267 OA
HETATM    6  N1  UNL     1      21.333   9.014   1.181  1.00  0.00    -0.156 N 
ATOM      7  H1  UNL     1      22.301   8.796   0.946  1.00  0.00     0.187 HD
HETATM    8  C6  UNL     1      20.831   8.579   2.346  1.00  0.00     0.679 A 
HETATM    9  N3  UNL     1      19.568   8.859   2.662  1.00  0.00    -0.191 N 
ATOM     10  H3  UNL     1      19.191   8.527   3.549  1.00  0.00     0.184 HD
HETATM   11  C7  UNL     1      18.770   9.577   1.832  1.00  0.00     0.067 A 
HETATM   12  C8  UNL     1      17.465   9.858   2.173  1.00  0.00     0.071 A 
HETATM   13  C9  UNL     1      16.632  10.578   1.361  1.00  0.00     0.111 A 
ENDROOT
BRANCH  13  14
HETATM   14  O3  UNL     1      15.314  10.871   1.688  1.00  0.00    -0.303 OA
BRANCH  14  15
HETATM   15  C10 UNL     1      14.874  10.592   2.985  1.00  0.00     0.142 A 
HETATM   16  C11 UNL     1      14.125   9.442   3.222  1.00  0.00     0.141 A 
HETATM   17  C12 UNL     1      13.675   9.141   4.508  1.00  0.00     0.075 A 
HETATM   18  C13 UNL     1      13.955   9.967   5.573  1.00  0.00     0.107 A 
HETATM   19  C14 UNL     1      14.698  11.102   5.315  1.00  0.00     0.075 A 
HETATM   20  C15 UNL     1      15.161  11.431   4.050  1.00  0.00     0.141 A 
BRANCH  16  21
HETATM   21  N4  UNL     1      13.803   8.550   2.163  1.00  0.00    -0.113 N 
HETATM   22  O4  UNL     1      14.607   7.711   1.715  1.00  0.00    -0.532 OA
HETATM   23  O5  UNL     1      12.545   8.624   1.618  1.00  0.00    -0.532 OA
ENDBRANCH  16  21
BRANCH  18  24
HETATM   24  N5  UNL     1      13.496   9.661   6.878  1.00  0.00    -0.116 N 
HETATM   25  O6  UNL     1      13.273  10.585   7.669  1.00  0.00    -0.532 OA
HETATM   26  O7  UNL     1      13.287   8.377   7.305  1.00  0.00    -0.532 OA
ENDBRANCH  18  24
BRANCH  20  27
HETATM   27  N6  UNL     1      15.921  12.595   3.810  1.00  0.00    -0.113 N 
HETATM   28  O8  UNL     1      15.363  13.662   3.536  1.00  0.00    -0.532 OA
HETATM   29  O9  UNL     1      17.281  12.544   3.879  1.00  0.00    -0.532 OA
ENDBRANCH  20  27
ENDBRANCH  14  15
ENDBRANCH  13  14
BRANCH   1  30
HETATM   30  O1  UNL     1      16.309  11.762  -0.680  1.00  0.00    -0.353 OA
HETATM   31  C1  UNL     1      15.466  11.265  -1.674  1.00  0.00     0.210 C 
ENDBRANCH   1  30
BRANCH   8  32
HETATM   32  N2  UNL     1      21.525   7.900   3.173  1.00  0.00    -0.234 N 
ATOM     33  H22 UNL     1      22.404   7.496   2.851  1.00  0.00     0.174 HD
ATOM     34  H21 UNL     1      21.228   7.750   4.137  1.00  0.00     0.174 HD
ENDBRANCH   8  32
TORSDOF 7
ENDMDL
MODEL 4
REMARK VINA RESULT: -8.583579926      3.308      6.547
REMARK  7 active torsions:
REMARK  status: ('A' for Active; 'I' for Inactive)
REMARK    1  A    between atoms: O1_2  and  C2_3 
REMARK    2  A    between atoms: C6_10  and  N2_11 
REMARK    3  A    between atoms: C9_18  and  O3_19 
REMARK    4  A    between atoms: O3_19  and  C10_20 
REMARK    5  A    between atoms: C11_21  and  N4_22 
REMARK    6  A    between atoms: C13_26  and  N5_27 
REMARK    7  A    between atoms: C15_31  and  N6_32 
ROOT
HETATM    1  C2  UNL     1      17.149  11.030   0.125  1.00  0.00     0.103 A 
HETATM    2  C3  UNL     1      18.473  10.739  -0.206  1.00  0.00     0.059 A 
HETATM    3  C4  UNL     1      19.301  10.018   0.629  1.00  0.00     0.062 A 
HETATM    4  C5  UNL     1      20.604   9.727   0.312  1.00  0.00     0.272 A 
HETATM    5  O2  UNL     1      21.097  10.111  -0.762  1.00  0.00    -0.267 OA
HETATM    6  N1  UNL     1      21.339   9.014   1.192  1.00  0.00    -0.156 N 
ATOM      7  H1  UNL     1      22.308   8.795   0.963  1.00  0.00     0.187 HD
HETATM    8  C6  UNL     1      20.831   8.587   2.358  1.00  0.00     0.679 A 
HETATM    9  N3  UNL     1      19.567   8.870   2.665  1.00  0.00    -0.191 N 
ATOM     10  H3  UNL     1      19.185   8.544   3.553  1.00  0.00     0.184 HD
HETATM   11  C7  UNL     1      18.773   9.582   1.827  1.00  0.00     0.067 A 
HETATM   12  C8  UNL     1      17.466   9.865   2.160  1.00  0.00     0.071 A 
HETATM   13  C9  UNL     1      16.638  10.580   1.339  1.00  0.00     0.111 A 
ENDROOT
BRANCH  13  14
HETATM   14  O3  UNL     1      15.318  10.876   1.658  1.00  0.00    -0.303 OA
BRANCH  14  15
HETATM   15  C10 UNL     1      14.861  10.568   2.942  1.00  0.00     0.142 A 
HETATM   16  C11 UNL     1      15.160  11.423   4.000  1.00  0.00     0.141 A 
HETATM   17  C12 UNL     1      14.716  11.138   5.291  1.00  0.00     0.075 A 
HETATM   18  C13 UNL     1      13.974  10.009   5.556  1.00  0.00     0.107 A 
HETATM   19  C14 UNL     1      13.689   9.175   4.494  1.00  0.00     0.075 A 
HETATM   20  C15 UNL     1      14.115   9.429   3.198  1.00  0.00     0.141 A 
BRANCH  16  21
HETATM   21  N4  UNL     1      15.924  12.604   3.789  1.00  0.00    -0.113 N 
HETATM   22  O4  UNL     1      15.408  13.706   3.528  1.00  0.00    -0.532 OA
HETATM   23  O5  UNL     1      17.291  12.513   3.883  1.00  0.00    -0.532 OA
ENDBRANCH  16  21
BRANCH  18  24
HETATM   24  N5  UNL     1      13.524   9.720   6.868  1.00  0.00    -0.116 N 
HETATM   25  O6  UNL     1      13.392  10.647   7.677  1.00  0.00    -0.532 OA
HETATM   26  O7  UNL     1      13.226   8.451   7.284  1.00  0.00    -0.532 OA
ENDBRANCH  18  24
BRANCH  20  27
HETATM   27  N6  UNL     1      13.810   8.563   2.126  1.00  0.00    -0.113 N 
HETATM   28  O8  UNL     1      14.624   7.711   1.759  1.00  0.00    -0.532 OA
HETATM   29  O9  UNL     1      12.609   8.667   1.491  1.00  0.00    -0.532 OA
ENDBRANCH  20  27
ENDBRANCH  14  15
ENDBRANCH  13  14
BRANCH   1  30
HETATM   30  O1  UNL     1      16.325  11.750  -0.711  1.00  0.00    -0.353 OA
HETATM   31  C1  UNL     1      15.464  11.244  -1.686  1.00  0.00     0.210 C 
ENDBRANCH   1  30
BRANCH   8  32
HETATM   32  N2  UNL     1      21.521   7.914   3.193  1.00  0.00    -0.234 N 
ATOM     33  H22 UNL     1      22.493   7.707   2.963  1.00  0.00     0.174 HD
ATOM     34  H21 UNL     1      21.132   7.578   4.073  1.00  0.00     0.174 HD
ENDBRANCH   8  32
TORSDOF 7
ENDMDL
MODEL 5
REMARK VINA RESULT: -8.543578732      2.255      7.481
REMARK  7 active torsions:
REMARK  status: ('A' for Active; 'I' for Inactive)
REMARK    1  A    between atoms: O1_2  and  C2_3 
REMARK    2  A    between atoms: C6_10  and  N2_11 
REMARK    3  A    between atoms: C9_18  and  O3_19 
REMARK    4  A    between atoms: O3_19  and  C10_20 
REMARK    5  A    between atoms: C11_21  and  N4_22 
REMARK    6  A    between atoms: C13_26  and  N5_27 
REMARK    7  A    between atoms: C15_31  and  N6_32 
ROOT
HETATM    1  C2  UNL     1      19.827  11.270   2.576  1.00  0.00     0.103 A 
HETATM    2  C3  UNL     1      20.725  10.392   3.185  1.00  0.00     0.059 A 
HETATM    3  C4  UNL     1      20.382   9.099   3.518  1.00  0.00     0.062 A 
HETATM    4  C5  UNL     1      21.258   8.228   4.116  1.00  0.00     0.272 A 
HETATM    5  O2  UNL     1      22.419   8.582   4.385  1.00  0.00    -0.267 OA
HETATM    6  N1  UNL     1      20.833   6.981   4.406  1.00  0.00    -0.156 N 
ATOM      7  H1  UNL     1      21.478   6.329   4.850  1.00  0.00     0.187 HD
HETATM    8  C6  UNL     1      19.585   6.574   4.126  1.00  0.00     0.679 A 
HETATM    9  N3  UNL     1      18.735   7.419   3.546  1.00  0.00    -0.191 N 
ATOM     10  H3  UNL     1      17.787   7.105   3.336  1.00  0.00     0.184 HD
HETATM   11  C7  UNL     1      19.097   8.686   3.228  1.00  0.00     0.067 A 
HETATM   12  C8  UNL     1      18.205   9.548   2.628  1.00  0.00     0.071 A 
HETATM   13  C9  UNL     1      18.536  10.833   2.294  1.00  0.00     0.111 A 
ENDROOT
BRANCH  13  14
HETATM   14  O3  UNL     1      17.650  11.716   1.688  1.00  0.00    -0.303 OA
BRANCH  14  15
HETATM   15  C10 UNL     1      16.978  11.295   0.537  1.00  0.00     0.142 A 
HETATM   16  C11 UNL     1      15.679  10.802   0.643  1.00  0.00     0.141 A 
HETATM   17  C12 UNL     1      14.987  10.376  -0.491  1.00  0.00     0.075 A 
HETATM   18  C13 UNL     1      15.564  10.429  -1.740  1.00  0.00     0.107 A 
HETATM   19  C14 UNL     1      16.852  10.921  -1.822  1.00  0.00     0.075 A 
HETATM   20  C15 UNL     1      17.569  11.353  -0.715  1.00  0.00     0.141 A 
BRANCH  16  21
HETATM   21  N4  UNL     1      15.031  10.722   1.905  1.00  0.00    -0.113 N 
HETATM   22  O4  UNL     1      14.715  11.727   2.570  1.00  0.00    -0.532 OA
HETATM   23  O5  UNL     1      14.742   9.476   2.403  1.00  0.00    -0.532 OA
ENDBRANCH  16  21
BRANCH  18  24
HETATM   24  N5  UNL     1      14.861   9.996  -2.891  1.00  0.00    -0.116 N 
HETATM   25  O6  UNL     1      13.822   9.339  -2.749  1.00  0.00    -0.532 OA
HETATM   26  O7  UNL     1      15.283  10.274  -4.163  1.00  0.00    -0.532 OA
ENDBRANCH  18  24
BRANCH  20  27
HETATM   27  N6  UNL     1      18.883  11.853  -0.822  1.00  0.00    -0.113 N 
HETATM   28  O8  UNL     1      19.844  11.081  -0.876  1.00  0.00    -0.532 OA
HETATM   29  O9  UNL     1      19.095  13.199  -0.866  1.00  0.00    -0.532 OA
ENDBRANCH  20  27
ENDBRANCH  14  15
ENDBRANCH  13  14
BRANCH   1  30
HETATM   30  O1  UNL     1      20.173  12.561   2.245  1.00  0.00    -0.353 OA
HETATM   31  C1  UNL     1      20.449  13.611   3.121  1.00  0.00     0.210 C 
ENDBRANCH   1  30
BRANCH   8  32
HETATM   32  N2  UNL     1      19.178   5.396   4.398  1.00  0.00    -0.234 N 
ATOM     33  H22 UNL     1      19.399   5.007   5.314  1.00  0.00     0.174 HD
ATOM     34  H21 UNL     1      18.645   4.839   3.731  1.00  0.00     0.174 HD
ENDBRANCH   8  32
TORSDOF 7
ENDMDL
