MODEL 1
REMARK VINA RESULT: -8.704180992      0.000      0.000
REMARK  13 active torsions:
REMARK  status: ('A' for Active; 'I' for Inactive)
REMARK    1  A    between atoms: C2_2  and  O1_3 
REMARK    2  A    between atoms: O1_3  and  C3_4 
REMARK    3  A    between atoms: C3_4  and  C4_6 
REMARK    4  A    between atoms: C4_6  and  N1_7 
REMARK    5  A    between atoms: C6_9  and  C7_10 
REMARK    6  A    between atoms: C7_10  and  O4_12 
REMARK    7  A    between atoms: O4_12  and  C8_13 
REMARK    8  A    between atoms: C8_13  and  C9_14 
REMARK    9  A    between atoms: C12_18  and  O6_19 
REMARK   10  A    between atoms: C14_21  and  O7_22 
REMARK   11  A    between atoms: C15_24  and  O8_25 
REMARK   12  A    between atoms: C17_27  and  O9_28 
REMARK   13  A    between atoms: C19_32  and  N2_33 
ROOT
HETATM    1  C8  UNL     1      17.895  10.880   2.186  1.00  0.00     0.156 C 
ENDROOT
BRANCH   1   2
HETATM    2  O4  UNL     1      17.637  11.651   3.292  1.00  0.00    -0.286 OA
BRANCH   2   3
HETATM    3  C7  UNL     1      16.438  11.683   3.952  1.00  0.00     0.306 C 
HETATM    4  O3  UNL     1      15.668  12.659   3.663  1.00  0.00    -0.258 OA
BRANCH   3   5
HETATM    5  C6  UNL     1      15.980  10.711   4.941  1.00  0.00     0.099 A 
HETATM    6  C5  UNL     1      14.754  10.494   5.504  1.00  0.00     0.118 A 
HETATM    7  N1  UNL     1      14.630   9.510   6.345  1.00  0.00    -0.327 N 
HETATM    8  C19 UNL     1      15.700   8.761   6.620  1.00  0.00     0.145 A 
HETATM    9  S1  UNL     1      16.920   9.472   5.659  1.00  0.00    -0.047 SA
BRANCH   7  10
HETATM   10  C4  UNL     1      13.341   9.175   7.013  1.00  0.00     0.241 C 
BRANCH  10  11
HETATM   11  C3  UNL     1      13.286   9.738   8.376  1.00  0.00     0.277 C 
HETATM   12  O2  UNL     1      12.515   9.171   9.210  1.00  0.00    -0.263 OA
BRANCH  11  13
HETATM   13  O1  UNL     1      13.999  10.827   8.820  1.00  0.00    -0.321 OA
BRANCH  13  14
HETATM   14  C2  UNL     1      14.721  10.800  10.064  1.00  0.00     0.174 C 
HETATM   15  C1  UNL     1      13.909  11.534  11.094  1.00  0.00     0.034 C 
ENDBRANCH  13  14
ENDBRANCH  11  13
ENDBRANCH  10  11
ENDBRANCH   7  10
BRANCH   8  16
HETATM   16  N2  UNL     1      15.775   7.729   7.437  1.00  0.00    -0.379 N 
ATOM     17  H22 UNL     1      15.320   6.819   7.373  1.00  0.00     0.158 HD
ATOM     18  H21 UNL     1      16.314   7.654   8.299  1.00  0.00     0.158 HD
ENDBRANCH   8  16
ENDBRANCH   3   5
ENDBRANCH   2   3
ENDBRANCH   1   2
BRANCH   1  19
HETATM   19  C9  UNL     1      17.323  10.893   1.022  1.00  0.00     0.004 C 
HETATM   20  C10 UNL     1      17.911  11.470  -0.221  1.00  0.00     0.217 C 
HETATM   21  O5  UNL     1      16.763  11.742  -1.010  1.00  0.00    -0.343 OA
HETATM   22  C11 UNL     1      15.728  10.886  -0.629  1.00  0.00     0.119 A 
HETATM   23  C12 UNL     1      14.564  10.550  -1.278  1.00  0.00     0.138 A 
HETATM   24  C18 UNL     1      16.047  10.348   0.627  1.00  0.00     0.046 A 
HETATM   25  C14 UNL     1      13.683   9.664  -0.691  1.00  0.00     0.138 A 
HETATM   26  C15 UNL     1      13.951   9.100   0.556  1.00  0.00     0.138 A 
HETATM   27  C17 UNL     1      15.132   9.473   1.160  1.00  0.00     0.115 A 
BRANCH  23  28
HETATM   28  O6  UNL     1      14.256  11.085  -2.518  1.00  0.00    -0.351 OA
HETATM   29  C13 UNL     1      14.683  10.426  -3.689  1.00  0.00     0.210 C 
ENDBRANCH  23  28
BRANCH  25  30
HETATM   30  O7  UNL     1      12.507   9.309  -1.323  1.00  0.00    -0.356 OA
ATOM     31  H7  UNL     1      11.667   9.427  -0.895  1.00  0.00     0.218 HD
ENDBRANCH  25  30
BRANCH  26  32
HETATM   32  O8  UNL     1      13.059   8.212   1.136  1.00  0.00    -0.351 OA
HETATM   33  C16 UNL     1      12.252   8.674   2.193  1.00  0.00     0.210 C 
ENDBRANCH  26  32
BRANCH  27  34
HETATM   34  O9  UNL     1      15.396   8.916   2.390  1.00  0.00    -0.357 OA
ATOM     35  H9  UNL     1      16.310   8.767   2.600  1.00  0.00     0.217 HD
ENDBRANCH  27  34
ENDBRANCH   1  19
TORSDOF 13
ENDMDL
MODEL 2
REMARK VINA RESULT: -8.332578061      3.982      6.153
REMARK  13 active torsions:
REMARK  status: ('A' for Active; 'I' for Inactive)
REMARK    1  A    between atoms: C2_2  and  O1_3 
REMARK    2  A    between atoms: O1_3  and  C3_4 
REMARK    3  A    between atoms: C3_4  and  C4_6 
REMARK    4  A    between atoms: C4_6  and  N1_7 
REMARK    5  A    between atoms: C6_9  and  C7_10 
REMARK    6  A    between atoms: C7_10  and  O4_12 
REMARK    7  A    between atoms: O4_12  and  C8_13 
REMARK    8  A    between atoms: C8_13  and  C9_14 
REMARK    9  A    between atoms: C12_18  and  O6_19 
REMARK   10  A    between atoms: C14_21  and  O7_22 
REMARK   11  A    between atoms: C15_24  and  O8_25 
REMARK   12  A    between atoms: C17_27  and  O9_28 
REMARK   13  A    between atoms: C19_32  and  N2_33 
ROOT
HETATM    1  C8  UNL     1      14.690   9.325   3.553  1.00  0.00     0.156 C 
ENDROOT
BRANCH   1   2
HETATM    2  O4  UNL     1      15.741   8.772   4.241  1.00  0.00    -0.286 OA
BRANCH   2   3
HETATM    3  C7  UNL     1      16.992   9.325   4.322  1.00  0.00     0.306 C 
HETATM    4  O3  UNL     1      17.047  10.513   4.785  1.00  0.00    -0.258 OA
BRANCH   3   5
HETATM    5  C6  UNL     1      18.239   8.678   3.926  1.00  0.00     0.099 A 
HETATM    6  C5  UNL     1      18.905   7.598   4.434  1.00  0.00     0.118 A 
HETATM    7  N1  UNL     1      19.997   7.215   3.840  1.00  0.00    -0.327 N 
HETATM    8  C19 UNL     1      20.416   7.890   2.768  1.00  0.00     0.145 A 
HETATM    9  S1  UNL     1      19.229   9.106   2.595  1.00  0.00    -0.047 SA
BRANCH   7  10
HETATM   10  C4  UNL     1      20.801   6.048   4.301  1.00  0.00     0.241 C 
BRANCH  10  11
HETATM   11  C3  UNL     1      20.047   4.789   4.143  1.00  0.00     0.277 C 
HETATM   12  O2  UNL     1      19.307   4.428   5.110  1.00  0.00    -0.263 OA
BRANCH  11  13
HETATM   13  O1  UNL     1      20.079   3.970   3.039  1.00  0.00    -0.321 OA
BRANCH  13  14
HETATM   14  C2  UNL     1      19.266   2.785   2.954  1.00  0.00     0.174 C 
HETATM   15  C1  UNL     1      19.616   2.067   1.682  1.00  0.00     0.034 C 
ENDBRANCH  13  14
ENDBRANCH  11  13
ENDBRANCH  10  11
ENDBRANCH   7  10
BRANCH   8  16
HETATM   16  N2  UNL     1      21.487   7.659   2.036  1.00  0.00    -0.379 N 
ATOM     17  H22 UNL     1      21.595   7.060   1.218  1.00  0.00     0.158 HD
ATOM     18  H21 UNL     1      22.423   8.045   2.159  1.00  0.00     0.158 HD
ENDBRANCH   8  16
ENDBRANCH   3   5
ENDBRANCH   2   3
ENDBRANCH   1   2
BRANCH   1  19
HETATM   19  C9  UNL     1      14.391   9.233   2.294  1.00  0.00     0.004 C 
HETATM   20  C10 UNL     1      13.208   8.514   1.740  1.00  0.00     0.217 C 
HETATM   21  O5  UNL     1      13.613   8.228   0.410  1.00  0.00    -0.343 OA
HETATM   22  C11 UNL     1      14.563   9.168   0.006  1.00  0.00     0.119 A 
HETATM   23  C12 UNL     1      15.010   9.501  -1.250  1.00  0.00     0.138 A 
HETATM   24  C18 UNL     1      15.064   9.804   1.153  1.00  0.00     0.046 A 
HETATM   25  C14 UNL     1      15.970  10.481  -1.399  1.00  0.00     0.138 A 
HETATM   26  C15 UNL     1      16.501  11.145  -0.293  1.00  0.00     0.138 A 
HETATM   27  C17 UNL     1      16.017  10.769   0.941  1.00  0.00     0.115 A 
BRANCH  23  28
HETATM   28  O6  UNL     1      14.511   8.869  -2.378  1.00  0.00    -0.351 OA
HETATM   29  C13 UNL     1      13.409   9.425  -3.060  1.00  0.00     0.210 C 
ENDBRANCH  23  28
BRANCH  25  30
HETATM   30  O7  UNL     1      16.435  10.835  -2.651  1.00  0.00    -0.356 OA
ATOM     31  H7  UNL     1      17.060  11.542  -2.758  1.00  0.00     0.218 HD
ENDBRANCH  25  30
BRANCH  26  32
HETATM   32  O8  UNL     1      17.465  12.127  -0.454  1.00  0.00    -0.351 OA
HETATM   33  C16 UNL     1      18.808  11.789  -0.205  1.00  0.00     0.210 C 
ENDBRANCH  26  32
BRANCH  27  34
HETATM   34  O9  UNL     1      16.540  11.425   2.032  1.00  0.00    -0.357 OA
ATOM     35  H9  UNL     1      16.423  11.005   2.875  1.00  0.00     0.217 HD
ENDBRANCH  27  34
ENDBRANCH   1  19
TORSDOF 13
ENDMDL
MODEL 3
REMARK VINA RESULT: -8.215508733      4.459      7.795
REMARK  13 active torsions:
REMARK  status: ('A' for Active; 'I' for Inactive)
REMARK    1  A    between atoms: C2_2  and  O1_3 
REMARK    2  A    between atoms: O1_3  and  C3_4 
REMARK    3  A    between atoms: C3_4  and  C4_6 
REMARK    4  A    between atoms: C4_6  and  N1_7 
REMARK    5  A    between atoms: C6_9  and  C7_10 
REMARK    6  A    between atoms: C7_10  and  O4_12 
REMARK    7  A    between atoms: O4_12  and  C8_13 
REMARK    8  A    between atoms: C8_13  and  C9_14 
REMARK    9  A    between atoms: C12_18  and  O6_19 
REMARK   10  A    between atoms: C14_21  and  O7_22 
REMARK   11  A    between atoms: C15_24  and  O8_25 
REMARK   12  A    between atoms: C17_27  and  O9_28 
REMARK   13  A    between atoms: C19_32  and  N2_33 
ROOT
HETATM    1  C8  UNL     1      17.337   8.711   4.656  1.00  0.00     0.156 C 
ENDROOT
BRANCH   1   2
HETATM    2  O4  UNL     1      16.102   8.416   4.136  1.00  0.00    -0.286 OA
BRANCH   2   3
HETATM    3  C7  UNL     1      15.173   9.353   3.765  1.00  0.00     0.306 C 
HETATM    4  O3  UNL     1      14.647  10.024   4.715  1.00  0.00    -0.258 OA
BRANCH   3   5
HETATM    5  C6  UNL     1      14.745   9.636   2.399  1.00  0.00     0.099 A 
HETATM    6  C5  UNL     1      15.299  10.402   1.412  1.00  0.00     0.118 A 
HETATM    7  N1  UNL     1      14.705  10.438   0.256  1.00  0.00    -0.327 N 
HETATM    8  C19 UNL     1      13.586   9.730   0.086  1.00  0.00     0.145 A 
HETATM    9  S1  UNL     1      13.368   8.991   1.610  1.00  0.00    -0.047 SA
BRANCH   7  10
HETATM   10  C4  UNL     1      15.222  11.232  -0.895  1.00  0.00     0.241 C 
BRANCH  10  11
HETATM   11  C3  UNL     1      16.510  10.695  -1.375  1.00  0.00     0.277 C 
HETATM   12  O2  UNL     1      16.512   9.511  -1.835  1.00  0.00    -0.263 OA
BRANCH  11  13
HETATM   13  O1  UNL     1      17.710  11.366  -1.364  1.00  0.00    -0.321 OA
BRANCH  13  14
HETATM   14  C2  UNL     1      18.555  11.383  -0.199  1.00  0.00     0.174 C 
HETATM   15  C1  UNL     1      18.286  12.655   0.555  1.00  0.00     0.034 C 
ENDBRANCH  13  14
ENDBRANCH  11  13
ENDBRANCH  10  11
ENDBRANCH   7  10
BRANCH   8  16
HETATM   16  N2  UNL     1      12.846   9.638  -1.001  1.00  0.00    -0.379 N 
ATOM     17  H22 UNL     1      11.974  10.113  -1.232  1.00  0.00     0.158 HD
ATOM     18  H21 UNL     1      13.016   9.064  -1.826  1.00  0.00     0.158 HD
ENDBRANCH   8  16
ENDBRANCH   3   5
ENDBRANCH   2   3
ENDBRANCH   1   2
BRANCH   1  19
HETATM   19  C9  UNL     1      18.481   8.810   4.054  1.00  0.00     0.004 C 
HETATM   20  C10 UNL     1      19.010  10.045   3.406  1.00  0.00     0.217 C 
HETATM   21  O5  UNL     1      19.940   9.529   2.466  1.00  0.00    -0.343 OA
HETATM   22  C11 UNL     1      20.400   8.286   2.908  1.00  0.00     0.119 A 
HETATM   23  C12 UNL     1      21.502   7.558   2.530  1.00  0.00     0.138 A 
HETATM   24  C18 UNL     1      19.514   7.816   3.890  1.00  0.00     0.046 A 
HETATM   25  C14 UNL     1      21.753   6.336   3.121  1.00  0.00     0.138 A 
HETATM   26  C15 UNL     1      20.905   5.823   4.103  1.00  0.00     0.138 A 
HETATM   27  C17 UNL     1      19.816   6.596   4.443  1.00  0.00     0.115 A 
BRANCH  23  28
HETATM   28  O6  UNL     1      22.372   8.027   1.559  1.00  0.00    -0.351 OA
HETATM   29  C13 UNL     1      22.056   7.855   0.196  1.00  0.00     0.210 C 
ENDBRANCH  23  28
BRANCH  25  30
HETATM   30  O7  UNL     1      22.854   5.585   2.760  1.00  0.00    -0.356 OA
ATOM     31  H7  UNL     1      23.332   5.077   3.405  1.00  0.00     0.218 HD
ENDBRANCH  25  30
BRANCH  26  32
HETATM   32  O8  UNL     1      21.167   4.596   4.691  1.00  0.00    -0.351 OA
HETATM   33  C16 UNL     1      20.753   3.432   4.015  1.00  0.00     0.210 C 
ENDBRANCH  26  32
BRANCH  27  34
HETATM   34  O9  UNL     1      18.980   6.090   5.411  1.00  0.00    -0.357 OA
ATOM     35  H9  UNL     1      18.195   6.589   5.597  1.00  0.00     0.217 HD
ENDBRANCH  27  34
ENDBRANCH   1  19
TORSDOF 13
ENDMDL
MODEL 4
REMARK VINA RESULT: -8.105725360      4.465      6.084
REMARK  13 active torsions:
REMARK  status: ('A' for Active; 'I' for Inactive)
REMARK    1  A    between atoms: C2_2  and  O1_3 
REMARK    2  A    between atoms: O1_3  and  C3_4 
REMARK    3  A    between atoms: C3_4  and  C4_6 
REMARK    4  A    between atoms: C4_6  and  N1_7 
REMARK    5  A    between atoms: C6_9  and  C7_10 
REMARK    6  A    between atoms: C7_10  and  O4_12 
REMARK    7  A    between atoms: O4_12  and  C8_13 
REMARK    8  A    between atoms: C8_13  and  C9_14 
REMARK    9  A    between atoms: C12_18  and  O6_19 
REMARK   10  A    between atoms: C14_21  and  O7_22 
REMARK   11  A    between atoms: C15_24  and  O8_25 
REMARK   12  A    between atoms: C17_27  and  O9_28 
REMARK   13  A    between atoms: C19_32  and  N2_33 
ROOT
HETATM    1  C8  UNL     1      17.438  10.906   3.459  1.00  0.00     0.156 C 
ENDROOT
BRANCH   1   2
HETATM    2  O4  UNL     1      17.878   9.904   4.286  1.00  0.00    -0.286 OA
BRANCH   2   3
HETATM    3  C7  UNL     1      18.179   8.633   3.872  1.00  0.00     0.306 C 
HETATM    4  O3  UNL     1      17.196   7.821   3.805  1.00  0.00    -0.258 OA
BRANCH   3   5
HETATM    5  C6  UNL     1      19.506   8.143   3.510  1.00  0.00     0.099 A 
HETATM    6  C5  UNL     1      20.387   7.332   4.168  1.00  0.00     0.118 A 
HETATM    7  N1  UNL     1      21.502   7.026   3.572  1.00  0.00    -0.327 N 
HETATM    8  C19 UNL     1      21.735   7.516   2.352  1.00  0.00     0.145 A 
HETATM    9  S1  UNL     1      20.333   8.440   2.039  1.00  0.00    -0.047 SA
BRANCH   7  10
HETATM   10  C4  UNL     1      22.533   6.144   4.189  1.00  0.00     0.241 C 
BRANCH  10  11
HETATM   11  C3  UNL     1      22.125   4.727   4.126  1.00  0.00     0.277 C 
HETATM   12  O2  UNL     1      22.638   3.935   4.976  1.00  0.00    -0.263 OA
BRANCH  11  13
HETATM   13  O1  UNL     1      21.239   4.189   3.223  1.00  0.00    -0.321 OA
BRANCH  13  14
HETATM   14  C2  UNL     1      19.949   3.698   3.632  1.00  0.00     0.174 C 
HETATM   15  C1  UNL     1      19.510   2.654   2.645  1.00  0.00     0.034 C 
ENDBRANCH  13  14
ENDBRANCH  11  13
ENDBRANCH  10  11
ENDBRANCH   7  10
BRANCH   8  16
HETATM   16  N2  UNL     1      22.795   7.323   1.593  1.00  0.00    -0.379 N 
ATOM     17  H22 UNL     1      23.702   6.927   1.838  1.00  0.00     0.158 HD
ATOM     18  H21 UNL     1      22.901   7.539   0.603  1.00  0.00     0.158 HD
ENDBRANCH   8  16
ENDBRANCH   3   5
ENDBRANCH   2   3
ENDBRANCH   1   2
BRANCH   1  19
HETATM   19  C9  UNL     1      17.095  10.852   2.210  1.00  0.00     0.004 C 
HETATM   20  C10 UNL     1      17.935  11.308   1.065  1.00  0.00     0.217 C 
HETATM   21  O5  UNL     1      16.971  11.564   0.055  1.00  0.00    -0.343 OA
HETATM   22  C11 UNL     1      15.839  10.782   0.290  1.00  0.00     0.119 A 
HETATM   23  C12 UNL     1      14.800  10.444  -0.543  1.00  0.00     0.138 A 
HETATM   24  C18 UNL     1      15.887  10.330   1.618  1.00  0.00     0.046 A 
HETATM   25  C14 UNL     1      13.778   9.643  -0.076  1.00  0.00     0.138 A 
HETATM   26  C15 UNL     1      13.777   9.166   1.235  1.00  0.00     0.138 A 
HETATM   27  C17 UNL     1      14.844   9.537   2.025  1.00  0.00     0.115 A 
BRANCH  23  28
HETATM   28  O6  UNL     1      14.758  10.894  -1.854  1.00  0.00    -0.351 OA
HETATM   29  C13 UNL     1      15.478  10.206  -2.852  1.00  0.00     0.210 C 
ENDBRANCH  23  28
BRANCH  25  30
HETATM   30  O7  UNL     1      12.723   9.288  -0.895  1.00  0.00    -0.356 OA
ATOM     31  H7  UNL     1      12.705   8.444  -1.330  1.00  0.00     0.218 HD
ENDBRANCH  25  30
BRANCH  26  32
HETATM   32  O8  UNL     1      12.747   8.361   1.694  1.00  0.00    -0.351 OA
HETATM   33  C16 UNL     1      11.767   8.943   2.520  1.00  0.00     0.210 C 
ENDBRANCH  26  32
BRANCH  27  34
HETATM   34  O9  UNL     1      14.843   9.065   3.318  1.00  0.00    -0.357 OA
ATOM     35  H9  UNL     1      15.212   8.201   3.454  1.00  0.00     0.217 HD
ENDBRANCH  27  34
ENDBRANCH   1  19
TORSDOF 13
ENDMDL
MODEL 5
REMARK VINA RESULT: -8.008954193      3.827      5.712
REMARK  13 active torsions:
REMARK  status: ('A' for Active; 'I' for Inactive)
REMARK    1  A    between atoms: C2_2  and  O1_3 
REMARK    2  A    between atoms: O1_3  and  C3_4 
REMARK    3  A    between atoms: C3_4  and  C4_6 
REMARK    4  A    between atoms: C4_6  and  N1_7 
REMARK    5  A    between atoms: C6_9  and  C7_10 
REMARK    6  A    between atoms: C7_10  and  O4_12 
REMARK    7  A    between atoms: O4_12  and  C8_13 
REMARK    8  A    between atoms: C8_13  and  C9_14 
REMARK    9  A    between atoms: C12_18  and  O6_19 
REMARK   10  A    between atoms: C14_21  and  O7_22 
REMARK   11  A    between atoms: C15_24  and  O8_25 
REMARK   12  A    between atoms: C17_27  and  O9_28 
REMARK   13  A    between atoms: C19_32  and  N2_33 
ROOT
HETATM    1  C8  UNL     1      14.561   9.412   3.499  1.00  0.00     0.156 C 
ENDROOT
BRANCH   1   2
HETATM    2  O4  UNL     1      15.582   8.865   4.235  1.00  0.00    -0.286 OA
BRANCH   2   3
HETATM    3  C7  UNL     1      16.825   9.423   4.372  1.00  0.00     0.306 C 
HETATM    4  O3  UNL     1      16.861  10.576   4.917  1.00  0.00    -0.258 OA
BRANCH   3   5
HETATM    5  C6  UNL     1      18.085   8.817   3.951  1.00  0.00     0.099 A 
HETATM    6  C5  UNL     1      18.823   7.793   4.475  1.00  0.00     0.118 A 
HETATM    7  N1  UNL     1      19.905   7.435   3.851  1.00  0.00    -0.327 N 
HETATM    8  C19 UNL     1      20.247   8.079   2.733  1.00  0.00     0.145 A 
HETATM    9  S1  UNL     1      18.997   9.230   2.560  1.00  0.00    -0.047 SA
BRANCH   7  10
HETATM   10  C4  UNL     1      20.783   6.327   4.325  1.00  0.00     0.241 C 
BRANCH  10  11
HETATM   11  C3  UNL     1      21.926   6.849   5.099  1.00  0.00     0.277 C 
HETATM   12  O2  UNL     1      22.905   6.064   5.293  1.00  0.00    -0.263 OA
BRANCH  11  13
HETATM   13  O1  UNL     1      22.021   8.114   5.630  1.00  0.00    -0.321 OA
BRANCH  13  14
HETATM   14  C2  UNL     1      23.035   8.453   6.594  1.00  0.00     0.174 C 
HETATM   15  C1  UNL     1      22.361   8.713   7.912  1.00  0.00     0.034 C 
ENDBRANCH  13  14
ENDBRANCH  11  13
ENDBRANCH  10  11
ENDBRANCH   7  10
BRANCH   8  16
HETATM   16  N2  UNL     1      21.297   7.865   1.966  1.00  0.00    -0.379 N 
ATOM     17  H22 UNL     1      22.156   7.355   2.173  1.00  0.00     0.158 HD
ATOM     18  H21 UNL     1      21.444   8.177   1.007  1.00  0.00     0.158 HD
ENDBRANCH   8  16
ENDBRANCH   3   5
ENDBRANCH   2   3
ENDBRANCH   1   2
BRANCH   1  19
HETATM   19  C9  UNL     1      14.302   9.292   2.233  1.00  0.00     0.004 C 
HETATM   20  C10 UNL     1      13.145   8.549   1.658  1.00  0.00     0.217 C 
HETATM   21  O5  UNL     1      13.595   8.242   0.347  1.00  0.00    -0.343 OA
HETATM   22  C11 UNL     1      14.547   9.185  -0.046  1.00  0.00     0.119 A 
HETATM   23  C12 UNL     1      15.029   9.499  -1.294  1.00  0.00     0.138 A 
HETATM   24  C18 UNL     1      15.005   9.849   1.103  1.00  0.00     0.046 A 
HETATM   25  C14 UNL     1      15.983  10.487  -1.433  1.00  0.00     0.138 A 
HETATM   26  C15 UNL     1      16.472  11.178  -0.324  1.00  0.00     0.138 A 
HETATM   27  C17 UNL     1      15.953  10.821   0.902  1.00  0.00     0.115 A 
BRANCH  23  28
HETATM   28  O6  UNL     1      14.573   8.839  -2.425  1.00  0.00    -0.351 OA
HETATM   29  C13 UNL     1      13.429   9.315  -3.097  1.00  0.00     0.210 C 
ENDBRANCH  23  28
BRANCH  25  30
HETATM   30  O7  UNL     1      16.483  10.822  -2.677  1.00  0.00    -0.356 OA
ATOM     31  H7  UNL     1      16.794  11.701  -2.857  1.00  0.00     0.218 HD
ENDBRANCH  25  30
BRANCH  26  32
HETATM   32  O8  UNL     1      17.429  12.168  -0.475  1.00  0.00    -0.351 OA
HETATM   33  C16 UNL     1      18.782  11.817  -0.308  1.00  0.00     0.210 C 
ENDBRANCH  26  32
BRANCH  27  34
HETATM   34  O9  UNL     1      16.434  11.503   1.995  1.00  0.00    -0.357 OA
ATOM     35  H9  UNL     1      16.002  12.321   2.209  1.00  0.00     0.217 HD
ENDBRANCH  27  34
ENDBRANCH   1  19
TORSDOF 13
ENDMDL
