MODEL 1
REMARK VINA RESULT: -7.638003096      0.000      0.000
REMARK  6 active torsions:
REMARK  status: ('A' for Active; 'I' for Inactive)
REMARK    1  A    between atoms: C2_2  and  O1_3 
REMARK    2  A    between atoms: O1_3  and  C3_4 
REMARK    3  A    between atoms: C3_4  and  C4_5 
REMARK    4  A    between atoms: C4_5  and  C5_6 
REMARK    5  A    between atoms: C5_6  and  C6_7 
REMARK    6  A    between atoms: C12_16  and  C13_17 
ROOT
HETATM    1  C1  UNL     1       4.867  46.886  47.546  1.00  0.00     0.094 A 
HETATM    2  C2  UNL     1       5.746  46.445  46.574  1.00  0.00     0.165 A 
HETATM    3  N1  UNL     1       5.088  45.506  45.886  1.00  0.00    -0.239 N 
ATOM      4  H1  UNL     1       5.462  44.981  45.096  1.00  0.00     0.197 HD
HETATM    5  O2  UNL     1       3.910  45.373  46.380  1.00  0.00    -0.238 OA
HETATM    6  C12 UNL     1       3.706  46.168  47.378  1.00  0.00     0.111 A 
ENDROOT
BRANCH   2   7
HETATM    7  O1  UNL     1       7.048  46.911  46.384  1.00  0.00    -0.334 OA
BRANCH   7   8
HETATM    8  C3  UNL     1       7.418  48.262  46.297  1.00  0.00     0.177 C 
BRANCH   8   9
HETATM    9  C4  UNL     1       7.575  48.954  47.618  1.00  0.00     0.027 C 
BRANCH   9  10
HETATM   10  C5  UNL     1       6.864  50.274  47.680  1.00  0.00     0.007 C 
BRANCH  10  11
HETATM   11  C6  UNL     1       6.348  50.617  49.063  1.00  0.00    -0.014 C 
HETATM   12  C7  UNL     1       4.876  50.849  49.016  1.00  0.00     0.004 C 
HETATM   13  C8  UNL     1       4.018  49.768  49.566  1.00  0.00     0.000 C 
HETATM   14  C9  UNL     1       4.534  49.099  50.801  1.00  0.00     0.000 C 
HETATM   15  C10 UNL     1       5.863  49.665  51.252  1.00  0.00     0.000 C 
HETATM   16  C11 UNL     1       6.769  49.540  50.028  1.00  0.00     0.004 C 
ENDBRANCH  10  11
ENDBRANCH   9  10
ENDBRANCH   8   9
ENDBRANCH   7   8
ENDBRANCH   2   7
BRANCH   6  17
HETATM   17  C13 UNL     1       2.511  46.355  48.239  1.00  0.00     0.244 C 
HETATM   18  C14 UNL     1       1.425  45.356  47.916  1.00  0.00     0.041 C 
HETATM   19  C15 UNL     1       0.566  45.432  49.168  1.00  0.00     0.030 C 
HETATM   20  C16 UNL     1       1.603  45.605  50.244  1.00  0.00     0.233 C 
HETATM   21  N2  UNL     1       2.799  46.099  49.633  1.00  0.00    -0.065 N 
ATOM     22  H22 UNL     1       3.596  45.477  49.764  1.00  0.00     0.278 HD
ATOM     23  H21 UNL     1       3.182  46.913  50.114  1.00  0.00     0.278 HD
ENDBRANCH   6  17
TORSDOF 6
ENDMDL
MODEL 2
REMARK VINA RESULT: -7.629915233      2.204      4.939
REMARK  6 active torsions:
REMARK  status: ('A' for Active; 'I' for Inactive)
REMARK    1  A    between atoms: C2_2  and  O1_3 
REMARK    2  A    between atoms: O1_3  and  C3_4 
REMARK    3  A    between atoms: C3_4  and  C4_5 
REMARK    4  A    between atoms: C4_5  and  C5_6 
REMARK    5  A    between atoms: C5_6  and  C6_7 
REMARK    6  A    between atoms: C12_16  and  C13_17 
ROOT
HETATM    1  C1  UNL     1       5.982  49.162  47.005  1.00  0.00     0.094 A 
HETATM    2  C2  UNL     1       6.564  48.059  46.408  1.00  0.00     0.165 A 
HETATM    3  N1  UNL     1       7.826  48.030  46.846  1.00  0.00    -0.239 N 
ATOM      4  H1  UNL     1       8.526  47.334  46.590  1.00  0.00     0.197 HD
HETATM    5  O2  UNL     1       8.017  49.022  47.640  1.00  0.00    -0.238 OA
HETATM    6  C12 UNL     1       6.955  49.743  47.784  1.00  0.00     0.111 A 
ENDROOT
BRANCH   2   7
HETATM    7  O1  UNL     1       5.927  47.178  45.532  1.00  0.00    -0.334 OA
BRANCH   7   8
HETATM    8  C3  UNL     1       5.018  46.178  45.911  1.00  0.00     0.177 C 
BRANCH   8   9
HETATM    9  C4  UNL     1       4.803  46.054  47.391  1.00  0.00     0.027 C 
BRANCH   9  10
HETATM   10  C5  UNL     1       3.362  46.171  47.789  1.00  0.00     0.007 C 
BRANCH  10  11
HETATM   11  C6  UNL     1       3.162  46.396  49.274  1.00  0.00    -0.014 C 
HETATM   12  C7  UNL     1       4.483  46.504  49.957  1.00  0.00     0.004 C 
HETATM   13  C8  UNL     1       4.907  47.867  50.368  1.00  0.00     0.000 C 
HETATM   14  C9  UNL     1       3.821  48.747  50.904  1.00  0.00     0.000 C 
HETATM   15  C10 UNL     1       2.473  48.059  50.915  1.00  0.00     0.000 C 
HETATM   16  C11 UNL     1       2.268  47.592  49.475  1.00  0.00     0.004 C 
ENDBRANCH  10  11
ENDBRANCH   9  10
ENDBRANCH   8   9
ENDBRANCH   7   8
ENDBRANCH   2   7
BRANCH   6  17
HETATM   17  C13 UNL     1       6.716  50.966  48.592  1.00  0.00     0.244 C 
HETATM   18  C14 UNL     1       5.242  51.255  48.751  1.00  0.00     0.041 C 
HETATM   19  C15 UNL     1       5.250  52.204  49.939  1.00  0.00     0.030 C 
HETATM   20  C16 UNL     1       6.345  51.624  50.792  1.00  0.00     0.233 C 
HETATM   21  N2  UNL     1       7.178  50.816  49.955  1.00  0.00    -0.065 N 
ATOM     22  H22 UNL     1       7.214  49.842  50.256  1.00  0.00     0.278 HD
ATOM     23  H21 UNL     1       8.171  51.027  50.062  1.00  0.00     0.278 HD
ENDBRANCH   6  17
TORSDOF 6
ENDMDL
MODEL 3
REMARK VINA RESULT: -7.581949199      1.751      2.709
REMARK  6 active torsions:
REMARK  status: ('A' for Active; 'I' for Inactive)
REMARK    1  A    between atoms: C2_2  and  O1_3 
REMARK    2  A    between atoms: O1_3  and  C3_4 
REMARK    3  A    between atoms: C3_4  and  C4_5 
REMARK    4  A    between atoms: C4_5  and  C5_6 
REMARK    5  A    between atoms: C5_6  and  C6_7 
REMARK    6  A    between atoms: C12_16  and  C13_17 
ROOT
HETATM    1  C1  UNL     1       2.460  45.923  49.060  1.00  0.00     0.094 A 
HETATM    2  C2  UNL     1       3.018  45.738  47.809  1.00  0.00     0.165 A 
HETATM    3  N1  UNL     1       2.010  45.376  47.010  1.00  0.00    -0.239 N 
ATOM      4  H1  UNL     1       2.089  45.165  46.015  1.00  0.00     0.197 HD
HETATM    5  O2  UNL     1       0.924  45.339  47.695  1.00  0.00    -0.238 OA
HETATM    6  C12 UNL     1       1.117  45.655  48.933  1.00  0.00     0.111 A 
ENDROOT
BRANCH   2   7
HETATM    7  O1  UNL     1       4.366  45.904  47.488  1.00  0.00    -0.334 OA
BRANCH   7   8
HETATM    8  C3  UNL     1       4.850  46.425  46.277  1.00  0.00     0.177 C 
BRANCH   8   9
HETATM    9  C4  UNL     1       6.197  47.077  46.370  1.00  0.00     0.027 C 
BRANCH   9  10
HETATM   10  C5  UNL     1       6.182  48.520  45.963  1.00  0.00     0.007 C 
BRANCH  10  11
HETATM   11  C6  UNL     1       6.335  49.478  47.127  1.00  0.00    -0.014 C 
HETATM   12  C7  UNL     1       5.006  49.744  47.748  1.00  0.00     0.004 C 
HETATM   13  C8  UNL     1       4.737  49.076  49.048  1.00  0.00     0.000 C 
HETATM   14  C9  UNL     1       5.897  49.008  49.991  1.00  0.00     0.000 C 
HETATM   15  C10 UNL     1       7.146  49.643  49.418  1.00  0.00     0.000 C 
HETATM   16  C11 UNL     1       7.361  48.930  48.084  1.00  0.00     0.004 C 
ENDBRANCH  10  11
ENDBRANCH   9  10
ENDBRANCH   8   9
ENDBRANCH   7   8
ENDBRANCH   2   7
BRANCH   6  17
HETATM   17  C13 UNL     1       0.165  45.744  50.070  1.00  0.00     0.244 C 
HETATM   18  C14 UNL     1      -0.801  44.584  50.084  1.00  0.00     0.041 C 
HETATM   19  C15 UNL     1      -1.315  44.640  51.514  1.00  0.00     0.030 C 
HETATM   20  C16 UNL     1      -0.077  45.037  52.272  1.00  0.00     0.233 C 
HETATM   21  N2  UNL     1       0.834  45.641  51.349  1.00  0.00    -0.065 N 
ATOM     22  H22 UNL     1       1.724  45.145  51.290  1.00  0.00     0.278 HD
ATOM     23  H21 UNL     1       1.198  46.535  51.678  1.00  0.00     0.278 HD
ENDBRANCH   6  17
TORSDOF 6
ENDMDL
MODEL 4
REMARK VINA RESULT: -7.529132835      1.157      1.303
REMARK  6 active torsions:
REMARK  status: ('A' for Active; 'I' for Inactive)
REMARK    1  A    between atoms: C2_2  and  O1_3 
REMARK    2  A    between atoms: O1_3  and  C3_4 
REMARK    3  A    between atoms: C3_4  and  C4_5 
REMARK    4  A    between atoms: C4_5  and  C5_6 
REMARK    5  A    between atoms: C5_6  and  C6_7 
REMARK    6  A    between atoms: C12_16  and  C13_17 
ROOT
HETATM    1  C1  UNL     1       3.840  46.635  46.986  1.00  0.00     0.094 A 
HETATM    2  C2  UNL     1       5.213  46.479  46.935  1.00  0.00     0.165 A 
HETATM    3  N1  UNL     1       5.571  45.999  48.129  1.00  0.00    -0.239 N 
ATOM      4  H1  UNL     1       6.524  45.774  48.415  1.00  0.00     0.197 HD
HETATM    5  O2  UNL     1       4.523  45.868  48.860  1.00  0.00    -0.238 OA
HETATM    6  C12 UNL     1       3.448  46.229  48.240  1.00  0.00     0.111 A 
ENDROOT
BRANCH   2   7
HETATM    7  O1  UNL     1       6.023  46.774  45.837  1.00  0.00    -0.334 OA
BRANCH   7   8
HETATM    8  C3  UNL     1       7.056  47.725  45.828  1.00  0.00     0.177 C 
BRANCH   8   9
HETATM    9  C4  UNL     1       6.680  49.063  46.391  1.00  0.00     0.027 C 
BRANCH   9  10
HETATM   10  C5  UNL     1       7.234  49.301  47.765  1.00  0.00     0.007 C 
BRANCH  10  11
HETATM   11  C6  UNL     1       6.374  50.215  48.613  1.00  0.00    -0.014 C 
HETATM   12  C7  UNL     1       5.098  49.529  48.971  1.00  0.00     0.004 C 
HETATM   13  C8  UNL     1       4.983  49.035  50.367  1.00  0.00     0.000 C 
HETATM   14  C9  UNL     1       5.562  49.927  51.419  1.00  0.00     0.000 C 
HETATM   15  C10 UNL     1       6.171  51.185  50.838  1.00  0.00     0.000 C 
HETATM   16  C11 UNL     1       7.174  50.682  49.801  1.00  0.00     0.004 C 
ENDBRANCH  10  11
ENDBRANCH   9  10
ENDBRANCH   8   9
ENDBRANCH   7   8
ENDBRANCH   2   7
BRANCH   6  17
HETATM   17  C13 UNL     1       2.032  46.247  48.688  1.00  0.00     0.244 C 
HETATM   18  C14 UNL     1       1.216  45.172  48.010  1.00  0.00     0.041 C 
HETATM   19  C15 UNL     1       0.009  45.087  48.932  1.00  0.00     0.030 C 
HETATM   20  C16 UNL     1       0.637  45.290  50.284  1.00  0.00     0.233 C 
HETATM   21  N2  UNL     1       1.901  45.933  50.094  1.00  0.00    -0.065 N 
ATOM     22  H22 UNL     1       2.682  45.382  50.450  1.00  0.00     0.278 HD
ATOM     23  H21 UNL     1       2.025  46.748  50.695  1.00  0.00     0.278 HD
ENDBRANCH   6  17
TORSDOF 6
ENDMDL
MODEL 5
REMARK VINA RESULT: -7.521741369      1.243      1.563
REMARK  6 active torsions:
REMARK  status: ('A' for Active; 'I' for Inactive)
REMARK    1  A    between atoms: C2_2  and  O1_3 
REMARK    2  A    between atoms: O1_3  and  C3_4 
REMARK    3  A    between atoms: C3_4  and  C4_5 
REMARK    4  A    between atoms: C4_5  and  C5_6 
REMARK    5  A    between atoms: C5_6  and  C6_7 
REMARK    6  A    between atoms: C12_16  and  C13_17 
ROOT
HETATM    1  C1  UNL     1       4.141  47.484  47.885  1.00  0.00     0.094 A 
HETATM    2  C2  UNL     1       4.810  47.176  46.716  1.00  0.00     0.165 A 
HETATM    3  N1  UNL     1       4.647  45.862  46.537  1.00  0.00    -0.239 N 
ATOM      4  H1  UNL     1       5.021  45.319  45.758  1.00  0.00     0.197 HD
HETATM    5  O2  UNL     1       3.943  45.391  47.503  1.00  0.00    -0.238 OA
HETATM    6  C12 UNL     1       3.603  46.306  48.349  1.00  0.00     0.111 A 
ENDROOT
BRANCH   2   7
HETATM    7  O1  UNL     1       5.504  48.083  45.913  1.00  0.00    -0.334 OA
BRANCH   7   8
HETATM    8  C3  UNL     1       6.853  48.437  46.073  1.00  0.00     0.177 C 
BRANCH   8   9
HETATM    9  C4  UNL     1       7.093  49.581  47.012  1.00  0.00     0.027 C 
BRANCH   9  10
HETATM   10  C5  UNL     1       7.418  49.139  48.408  1.00  0.00     0.007 C 
BRANCH  10  11
HETATM   11  C6  UNL     1       7.024  50.148  49.468  1.00  0.00    -0.014 C 
HETATM   12  C7  UNL     1       6.242  51.258  48.852  1.00  0.00     0.004 C 
HETATM   13  C8  UNL     1       4.777  51.252  49.100  1.00  0.00     0.000 C 
HETATM   14  C9  UNL     1       4.356  50.842  50.476  1.00  0.00     0.000 C 
HETATM   15  C10 UNL     1       5.534  50.500  51.363  1.00  0.00     0.000 C 
HETATM   16  C11 UNL     1       6.305  49.436  50.584  1.00  0.00     0.004 C 
ENDBRANCH  10  11
ENDBRANCH   9  10
ENDBRANCH   8   9
ENDBRANCH   7   8
ENDBRANCH   2   7
BRANCH   6  17
HETATM   17  C13 UNL     1       2.803  46.222  49.597  1.00  0.00     0.244 C 
HETATM   18  C14 UNL     1       2.610  47.579  50.233  1.00  0.00     0.041 C 
HETATM   19  C15 UNL     1       1.434  47.311  51.159  1.00  0.00     0.030 C 
HETATM   20  C16 UNL     1       0.602  46.365  50.337  1.00  0.00     0.233 C 
HETATM   21  N2  UNL     1       1.450  45.773  49.347  1.00  0.00    -0.065 N 
ATOM     22  H22 UNL     1       1.140  45.964  48.395  1.00  0.00     0.278 HD
ATOM     23  H21 UNL     1       1.371  44.756  49.315  1.00  0.00     0.278 HD
ENDBRANCH   6  17
TORSDOF 6
ENDMDL
