MODEL 1
REMARK VINA RESULT: -6.399782105      0.000      0.000
REMARK  7 active torsions:
REMARK  status: ('A' for Active; 'I' for Inactive)
REMARK    1  A    between atoms: C2_2  and  C3_6 
REMARK    2  A    between atoms: N3_11  and  C6_12 
REMARK    3  A    between atoms: C6_12  and  C7_13 
REMARK    4  A    between atoms: C7_13  and  C8_14 
REMARK    5  A    between atoms: C8_14  and  C9_15 
REMARK    6  A    between atoms: C9_15  and  C10_16 
REMARK    7  A    between atoms: C10_16  and  N4_17 
ROOT
HETATM    1  C6  UNL     1       5.949  48.882  50.830  1.00  0.00     0.130 C 
ENDROOT
BRANCH   1   2
HETATM    2  N3  UNL     1       6.163  50.077  50.065  1.00  0.00    -0.340 N 
HETATM    3  C3  UNL     1       6.582  50.180  48.811  1.00  0.00     0.129 A 
HETATM    4  N2  UNL     1       6.656  51.536  48.550  1.00  0.00    -0.349 N 
HETATM    5  C4  UNL     1       6.291  52.241  49.615  1.00  0.00     0.107 A 
ATOM      6  H2  UNL     1       6.951  51.940  47.661  1.00  0.00     0.167 HD
HETATM    7  C5  UNL     1       5.970  51.343  50.598  1.00  0.00     0.109 A 
BRANCH   3   8
HETATM    8  C2  UNL     1       6.912  49.154  47.839  1.00  0.00     0.043 C 
HETATM    9  C1  UNL     1       5.719  48.685  47.001  1.00  0.00     0.071 C 
HETATM   10  N1  UNL     1       7.998  48.634  47.607  1.00  0.00    -0.400 N 
ATOM     11  H12 UNL     1       8.229  47.912  46.924  1.00  0.00     0.156 HD
ATOM     12  H11 UNL     1       8.792  48.946  48.165  1.00  0.00     0.156 HD
ENDBRANCH   3   8
ENDBRANCH   1   2
BRANCH   1  13
HETATM   13  C7  UNL     1       4.571  48.315  50.659  1.00  0.00     0.020 C 
BRANCH  13  14
HETATM   14  C8  UNL     1       4.692  46.820  50.384  1.00  0.00     0.003 C 
BRANCH  14  15
HETATM   15  C9  UNL     1       3.715  46.490  49.273  1.00  0.00     0.020 C 
BRANCH  15  16
HETATM   16  C10 UNL     1       2.732  47.575  49.046  1.00  0.00     0.127 C 
BRANCH  16  17
HETATM   17  N4  UNL     1       1.364  47.288  49.254  1.00  0.00    -0.374 N 
HETATM   18  C11 UNL     1       0.611  48.146  50.069  1.00  0.00     0.063 C 
HETATM   19  C12 UNL     1       1.036  48.023  51.495  1.00  0.00     0.044 C 
HETATM   20  C13 UNL     1      -0.086  47.522  52.320  1.00  0.00     0.005 C 
HETATM   21  C14 UNL     1      -0.003  46.087  52.716  1.00  0.00     0.001 C 
HETATM   22  C15 UNL     1       0.721  45.213  51.727  1.00  0.00     0.005 C 
HETATM   23  C16 UNL     1       0.169  45.388  50.316  1.00  0.00     0.044 C 
HETATM   24  C17 UNL     1       1.180  45.896  49.360  1.00  0.00     0.063 C 
ENDBRANCH  16  17
ENDBRANCH  15  16
ENDBRANCH  14  15
ENDBRANCH  13  14
ENDBRANCH   1  13
TORSDOF 7
ENDMDL
MODEL 2
REMARK VINA RESULT: -6.396655118      2.716      5.732
REMARK  7 active torsions:
REMARK  status: ('A' for Active; 'I' for Inactive)
REMARK    1  A    between atoms: C2_2  and  C3_6 
REMARK    2  A    between atoms: N3_11  and  C6_12 
REMARK    3  A    between atoms: C6_12  and  C7_13 
REMARK    4  A    between atoms: C7_13  and  C8_14 
REMARK    5  A    between atoms: C8_14  and  C9_15 
REMARK    6  A    between atoms: C9_15  and  C10_16 
REMARK    7  A    between atoms: C10_16  and  N4_17 
ROOT
HETATM    1  C6  UNL     1       3.767  48.825  48.142  1.00  0.00     0.130 C 
ENDROOT
BRANCH   1   2
HETATM    2  N3  UNL     1       4.209  47.623  48.788  1.00  0.00    -0.340 N 
HETATM    3  C3  UNL     1       5.078  46.726  48.340  1.00  0.00     0.129 A 
HETATM    4  N2  UNL     1       5.137  45.743  49.310  1.00  0.00    -0.349 N 
HETATM    5  C4  UNL     1       4.328  46.033  50.323  1.00  0.00     0.107 A 
ATOM      6  H2  UNL     1       5.722  44.910  49.255  1.00  0.00     0.167 HD
HETATM    7  C5  UNL     1       3.722  47.223  50.024  1.00  0.00     0.109 A 
BRANCH   3   8
HETATM    8  C2  UNL     1       5.854  46.697  47.115  1.00  0.00     0.043 C 
HETATM    9  C1  UNL     1       7.037  47.670  47.103  1.00  0.00     0.071 C 
HETATM   10  N1  UNL     1       5.691  46.004  46.116  1.00  0.00    -0.400 N 
ATOM     11  H12 UNL     1       6.236  45.984  45.254  1.00  0.00     0.156 HD
ATOM     12  H11 UNL     1       4.903  45.356  46.123  1.00  0.00     0.156 HD
ENDBRANCH   3   8
ENDBRANCH   1   2
BRANCH   1  13
HETATM   13  C7  UNL     1       2.759  49.588  48.950  1.00  0.00     0.020 C 
BRANCH  13  14
HETATM   14  C8  UNL     1       2.474  50.911  48.246  1.00  0.00     0.003 C 
BRANCH  14  15
HETATM   15  C9  UNL     1       2.627  52.009  49.280  1.00  0.00     0.020 C 
BRANCH  15  16
HETATM   16  C10 UNL     1       3.769  52.905  48.985  1.00  0.00     0.127 C 
BRANCH  16  17
HETATM   17  N4  UNL     1       4.894  52.853  49.838  1.00  0.00    -0.374 N 
HETATM   18  C11 UNL     1       6.140  52.511  49.292  1.00  0.00     0.063 C 
HETATM   19  C12 UNL     1       6.159  51.075  48.885  1.00  0.00     0.044 C 
HETATM   20  C13 UNL     1       7.174  50.336  49.671  1.00  0.00     0.005 C 
HETATM   21  C14 UNL     1       6.640  49.478  50.767  1.00  0.00     0.001 C 
HETATM   22  C15 UNL     1       5.359  49.981  51.378  1.00  0.00     0.005 C 
HETATM   23  C16 UNL     1       5.475  51.443  51.798  1.00  0.00     0.044 C 
HETATM   24  C17 UNL     1       4.520  52.324  51.088  1.00  0.00     0.063 C 
ENDBRANCH  16  17
ENDBRANCH  15  16
ENDBRANCH  14  15
ENDBRANCH  13  14
ENDBRANCH   1  13
TORSDOF 7
ENDMDL
MODEL 3
REMARK VINA RESULT: -6.359332996      2.605      7.795
REMARK  7 active torsions:
REMARK  status: ('A' for Active; 'I' for Inactive)
REMARK    1  A    between atoms: C2_2  and  C3_6 
REMARK    2  A    between atoms: N3_11  and  C6_12 
REMARK    3  A    between atoms: C6_12  and  C7_13 
REMARK    4  A    between atoms: C7_13  and  C8_14 
REMARK    5  A    between atoms: C8_14  and  C9_15 
REMARK    6  A    between atoms: C9_15  and  C10_16 
REMARK    7  A    between atoms: C10_16  and  N4_17 
ROOT
HETATM    1  C6  UNL     1       1.494  45.549  50.874  1.00  0.00     0.130 C 
ENDROOT
BRANCH   1   2
HETATM    2  N3  UNL     1       0.152  45.083  51.073  1.00  0.00    -0.340 N 
HETATM    3  C3  UNL     1      -0.510  44.959  52.216  1.00  0.00     0.129 A 
HETATM    4  N2  UNL     1      -1.746  44.441  51.880  1.00  0.00    -0.349 N 
HETATM    5  C4  UNL     1      -1.838  44.255  50.568  1.00  0.00     0.107 A 
ATOM      6  H2  UNL     1      -2.488  44.231  52.548  1.00  0.00     0.167 HD
HETATM    7  C5  UNL     1      -0.647  44.654  50.023  1.00  0.00     0.109 A 
BRANCH   3   8
HETATM    8  C2  UNL     1      -0.112  45.278  53.574  1.00  0.00     0.043 C 
HETATM    9  C1  UNL     1       0.497  44.097  54.337  1.00  0.00     0.071 C 
HETATM   10  N1  UNL     1      -0.193  46.346  54.170  1.00  0.00    -0.400 N 
ATOM     11  H12 UNL     1       0.086  46.570  55.126  1.00  0.00     0.156 HD
ATOM     12  H11 UNL     1      -0.599  47.132  53.662  1.00  0.00     0.156 HD
ENDBRANCH   3   8
ENDBRANCH   1   2
BRANCH   1  13
HETATM   13  C7  UNL     1       1.572  47.029  50.639  1.00  0.00     0.020 C 
BRANCH  13  14
HETATM   14  C8  UNL     1       1.847  47.270  49.158  1.00  0.00     0.003 C 
BRANCH  14  15
HETATM   15  C9  UNL     1       2.566  46.044  48.632  1.00  0.00     0.020 C 
BRANCH  15  16
HETATM   16  C10 UNL     1       3.408  46.347  47.452  1.00  0.00     0.127 C 
BRANCH  16  17
HETATM   17  N4  UNL     1       4.811  46.288  47.602  1.00  0.00    -0.374 N 
HETATM   18  C11 UNL     1       5.411  47.019  48.638  1.00  0.00     0.063 C 
HETATM   19  C12 UNL     1       5.324  48.484  48.367  1.00  0.00     0.044 C 
HETATM   20  C13 UNL     1       6.681  49.058  48.226  1.00  0.00     0.005 C 
HETATM   21  C14 UNL     1       7.113  49.355  46.831  1.00  0.00     0.001 C 
HETATM   22  C15 UNL     1       6.513  48.447  45.790  1.00  0.00     0.005 C 
HETATM   23  C16 UNL     1       6.706  46.978  46.152  1.00  0.00     0.044 C 
HETATM   24  C17 UNL     1       5.425  46.257  46.335  1.00  0.00     0.063 C 
ENDBRANCH  16  17
ENDBRANCH  15  16
ENDBRANCH  14  15
ENDBRANCH  13  14
ENDBRANCH   1  13
TORSDOF 7
ENDMDL
MODEL 4
REMARK VINA RESULT: -6.301161173      1.982      6.916
REMARK  7 active torsions:
REMARK  status: ('A' for Active; 'I' for Inactive)
REMARK    1  A    between atoms: C2_2  and  C3_6 
REMARK    2  A    between atoms: N3_11  and  C6_12 
REMARK    3  A    between atoms: C6_12  and  C7_13 
REMARK    4  A    between atoms: C7_13  and  C8_14 
REMARK    5  A    between atoms: C8_14  and  C9_15 
REMARK    6  A    between atoms: C9_15  and  C10_16 
REMARK    7  A    between atoms: C10_16  and  N4_17 
ROOT
HETATM    1  C6  UNL     1       1.511  45.753  49.814  1.00  0.00     0.130 C 
ENDROOT
BRANCH   1   2
HETATM    2  N3  UNL     1       0.608  46.639  50.491  1.00  0.00    -0.340 N 
HETATM    3  C3  UNL     1      -0.380  46.324  51.318  1.00  0.00     0.129 A 
HETATM    4  N2  UNL     1      -0.969  47.522  51.674  1.00  0.00    -0.349 N 
HETATM    5  C4  UNL     1      -0.356  48.542  51.082  1.00  0.00     0.107 A 
ATOM      6  H2  UNL     1      -1.765  47.612  52.305  1.00  0.00     0.167 HD
HETATM    7  C5  UNL     1       0.653  48.015  50.321  1.00  0.00     0.109 A 
BRANCH   3   8
HETATM    8  C2  UNL     1      -0.822  45.032  51.809  1.00  0.00     0.043 C 
HETATM    9  C1  UNL     1      -1.752  44.285  50.848  1.00  0.00     0.071 C 
HETATM   10  N1  UNL     1      -0.546  44.474  52.866  1.00  0.00    -0.400 N 
ATOM     11  H12 UNL     1      -0.857  43.566  53.212  1.00  0.00     0.156 HD
ATOM     12  H11 UNL     1       0.073  44.971  53.506  1.00  0.00     0.156 HD
ENDBRANCH   3   8
ENDBRANCH   1   2
BRANCH   1  13
HETATM   13  C7  UNL     1       1.030  45.357  48.449  1.00  0.00     0.020 C 
BRANCH  13  14
HETATM   14  C8  UNL     1       2.167  45.570  47.455  1.00  0.00     0.003 C 
BRANCH  14  15
HETATM   15  C9  UNL     1       3.376  46.022  48.249  1.00  0.00     0.020 C 
BRANCH  15  16
HETATM   16  C10 UNL     1       4.324  46.814  47.431  1.00  0.00     0.127 C 
BRANCH  16  17
HETATM   17  N4  UNL     1       4.396  48.206  47.657  1.00  0.00    -0.374 N 
HETATM   18  C11 UNL     1       5.502  48.914  47.162  1.00  0.00     0.063 C 
HETATM   19  C12 UNL     1       6.738  48.549  47.914  1.00  0.00     0.044 C 
HETATM   20  C13 UNL     1       7.277  49.736  48.617  1.00  0.00     0.005 C 
HETATM   21  C14 UNL     1       7.025  49.783  50.086  1.00  0.00     0.001 C 
HETATM   22  C15 UNL     1       5.755  49.100  50.518  1.00  0.00     0.005 C 
HETATM   23  C16 UNL     1       4.555  49.588  49.713  1.00  0.00     0.044 C 
HETATM   24  C17 UNL     1       3.902  48.507  48.940  1.00  0.00     0.063 C 
ENDBRANCH  16  17
ENDBRANCH  15  16
ENDBRANCH  14  15
ENDBRANCH  13  14
ENDBRANCH   1  13
TORSDOF 7
ENDMDL
MODEL 5
REMARK VINA RESULT: -6.280249786      1.669      6.437
REMARK  7 active torsions:
REMARK  status: ('A' for Active; 'I' for Inactive)
REMARK    1  A    between atoms: C2_2  and  C3_6 
REMARK    2  A    between atoms: N3_11  and  C6_12 
REMARK    3  A    between atoms: C6_12  and  C7_13 
REMARK    4  A    between atoms: C7_13  and  C8_14 
REMARK    5  A    between atoms: C8_14  and  C9_15 
REMARK    6  A    between atoms: C9_15  and  C10_16 
REMARK    7  A    between atoms: C10_16  and  N4_17 
ROOT
HETATM    1  C6  UNL     1       2.617  46.115  49.531  1.00  0.00     0.130 C 
ENDROOT
BRANCH   1   2
HETATM    2  N3  UNL     1       1.562  46.982  49.970  1.00  0.00    -0.340 N 
HETATM    3  C3  UNL     1       0.503  46.673  50.706  1.00  0.00     0.129 A 
HETATM    4  N2  UNL     1      -0.226  47.841  50.825  1.00  0.00    -0.349 N 
HETATM    5  C4  UNL     1       0.372  48.837  50.181  1.00  0.00     0.107 A 
ATOM      6  H2  UNL     1      -1.104  47.927  51.339  1.00  0.00     0.167 HD
HETATM    7  C5  UNL     1       1.513  48.325  49.624  1.00  0.00     0.109 A 
BRANCH   3   8
HETATM    8  C2  UNL     1       0.110  45.413  51.309  1.00  0.00     0.043 C 
HETATM    9  C1  UNL     1      -0.807  44.560  50.427  1.00  0.00     0.071 C 
HETATM   10  N1  UNL     1       0.417  44.954  52.404  1.00  0.00    -0.400 N 
ATOM     11  H12 UNL     1       0.140  44.068  52.828  1.00  0.00     0.156 HD
ATOM     12  H11 UNL     1       1.027  45.522  52.991  1.00  0.00     0.156 HD
ENDBRANCH   3   8
ENDBRANCH   1   2
BRANCH   1  13
HETATM   13  C7  UNL     1       3.972  46.556  50.002  1.00  0.00     0.020 C 
BRANCH  13  14
HETATM   14  C8  UNL     1       4.968  46.356  48.864  1.00  0.00     0.003 C 
BRANCH  14  15
HETATM   15  C9  UNL     1       4.478  47.182  47.691  1.00  0.00     0.020 C 
BRANCH  15  16
HETATM   16  C10 UNL     1       5.556  48.002  47.090  1.00  0.00     0.127 C 
BRANCH  16  17
HETATM   17  N4  UNL     1       5.568  49.388  47.362  1.00  0.00    -0.374 N 
HETATM   18  C11 UNL     1       6.767  49.984  47.780  1.00  0.00     0.063 C 
HETATM   19  C12 UNL     1       7.126  49.531  49.156  1.00  0.00     0.044 C 
HETATM   20  C13 UNL     1       7.137  50.683  50.085  1.00  0.00     0.005 C 
HETATM   21  C14 UNL     1       5.958  50.790  50.992  1.00  0.00     0.001 C 
HETATM   22  C15 UNL     1       4.683  50.231  50.418  1.00  0.00     0.005 C 
HETATM   23  C16 UNL     1       4.396  50.803  49.033  1.00  0.00     0.044 C 
HETATM   24  C17 UNL     1       4.359  49.764  47.978  1.00  0.00     0.063 C 
ENDBRANCH  16  17
ENDBRANCH  15  16
ENDBRANCH  14  15
ENDBRANCH  13  14
ENDBRANCH   1  13
TORSDOF 7
ENDMDL
