MODEL 1
REMARK VINA RESULT: -6.626039364      0.000      0.000
REMARK  3 active torsions:
REMARK  status: ('A' for Active; 'I' for Inactive)
REMARK    1  A    between atoms: C3_5  and  N2_6 
REMARK    2  A    between atoms: N2_6  and  N3_8 
REMARK    3  A    between atoms: C5_10  and  O1_11 
ROOT
HETATM    1  C1  UNL     1       0.462   1.285  67.355  1.00  0.00     0.070 C 
HETATM    2  C2  UNL     1       1.547   1.775  68.298  1.00  0.00     0.031 A 
HETATM    3  N1  UNL     1       2.569   1.048  68.737  1.00  0.00    -0.341 N 
ATOM      4  H1  UNL     1       2.726   0.071  68.491  1.00  0.00     0.167 HD
HETATM    5  C3  UNL     1       3.392   1.783  69.568  1.00  0.00     0.162 A 
HETATM    6  C7  UNL     1       2.822   3.024  69.624  1.00  0.00     0.184 A 
HETATM    7  F1  UNL     1       3.249   4.129  70.260  1.00  0.00    -0.200 F 
HETATM    8  C8  UNL     1       1.666   3.028  68.832  1.00  0.00     0.109 A 
HETATM    9  C9  UNL     1       0.776   4.145  68.644  1.00  0.00     0.104 C 
HETATM   10  N5  UNL     1       0.048   5.058  68.512  1.00  0.00    -0.191 NA
ENDROOT
BRANCH   5  11
HETATM   11  N2  UNL     1       4.574   1.236  70.118  1.00  0.00    -0.274 N 
ATOM     12  H2  UNL     1       4.473   0.273  70.441  1.00  0.00     0.189 HD
BRANCH  11  13
HETATM   13  N3  UNL     1       5.817   1.751  70.299  1.00  0.00    -0.236 N 
HETATM   14  C4  UNL     1       6.303   2.831  70.858  1.00  0.00     0.175 A 
HETATM   15  C5  UNL     1       7.680   2.977  70.673  1.00  0.00     0.160 A 
HETATM   16  N4  UNL     1       8.012   1.896  69.955  1.00  0.00    -0.311 N 
HETATM   17  C6  UNL     1       6.931   1.150  69.717  1.00  0.00     0.199 A 
ATOM     18  H4  UNL     1       8.956   1.675  69.637  1.00  0.00     0.170 HD
HETATM   19  S1  UNL     1       6.940  -0.227  68.874  1.00  0.00    -0.039 SA
BRANCH  15  20
HETATM   20  O1  UNL     1       8.519   3.985  71.114  1.00  0.00    -0.345 OA
ATOM     21  H1  UNL     1       9.197   4.451  70.640  1.00  0.00     0.219 HD
ENDBRANCH  15  20
ENDBRANCH  11  13
ENDBRANCH   5  11
TORSDOF 3
ENDMDL
MODEL 2
REMARK VINA RESULT: -6.575737987      2.795      3.134
REMARK  3 active torsions:
REMARK  status: ('A' for Active; 'I' for Inactive)
REMARK    1  A    between atoms: C3_5  and  N2_6 
REMARK    2  A    between atoms: N2_6  and  N3_8 
REMARK    3  A    between atoms: C5_10  and  O1_11 
ROOT
HETATM    1  C1  UNL     1       1.222   4.699  67.187  1.00  0.00     0.070 C 
HETATM    2  C2  UNL     1       2.339   3.921  67.859  1.00  0.00     0.031 A 
HETATM    3  N1  UNL     1       3.436   3.477  67.256  1.00  0.00    -0.341 N 
ATOM      4  H1  UNL     1       3.639   3.605  66.265  1.00  0.00     0.167 HD
HETATM    5  C3  UNL     1       4.269   2.818  68.140  1.00  0.00     0.162 A 
HETATM    6  C7  UNL     1       3.625   2.877  69.344  1.00  0.00     0.184 A 
HETATM    7  F1  UNL     1       4.024   2.427  70.546  1.00  0.00    -0.200 F 
HETATM    8  C8  UNL     1       2.415   3.564  69.177  1.00  0.00     0.109 A 
HETATM    9  C9  UNL     1       1.442   3.823  70.208  1.00  0.00     0.104 C 
HETATM   10  N5  UNL     1       0.649   4.011  71.053  1.00  0.00    -0.191 NA
ENDROOT
BRANCH   5  11
HETATM   11  N2  UNL     1       5.522   2.300  67.738  1.00  0.00    -0.274 N 
ATOM     12  H2  UNL     1       6.049   2.922  67.125  1.00  0.00     0.189 HD
BRANCH  11  13
HETATM   13  N3  UNL     1       6.155   1.131  68.015  1.00  0.00    -0.236 N 
HETATM   14  C4  UNL     1       6.096  -0.091  67.546  1.00  0.00     0.175 A 
HETATM   15  C5  UNL     1       6.881  -0.995  68.264  1.00  0.00     0.160 A 
HETATM   16  N4  UNL     1       7.437  -0.235  69.217  1.00  0.00    -0.311 N 
HETATM   17  C6  UNL     1       7.026   1.029  69.096  1.00  0.00     0.199 A 
ATOM     18  H4  UNL     1       8.081  -0.575  69.932  1.00  0.00     0.170 HD
HETATM   19  S1  UNL     1       7.479   2.232  70.073  1.00  0.00    -0.039 SA
BRANCH  15  20
HETATM   20  O1  UNL     1       7.059  -2.353  68.060  1.00  0.00    -0.345 OA
ATOM     21  H1  UNL     1       6.751  -3.083  68.584  1.00  0.00     0.219 HD
ENDBRANCH  15  20
ENDBRANCH  11  13
ENDBRANCH   5  11
TORSDOF 3
ENDMDL
MODEL 3
REMARK VINA RESULT: -6.553382182      1.534      1.534
REMARK  3 active torsions:
REMARK  status: ('A' for Active; 'I' for Inactive)
REMARK    1  A    between atoms: C3_5  and  N2_6 
REMARK    2  A    between atoms: N2_6  and  N3_8 
REMARK    3  A    between atoms: C5_10  and  O1_11 
ROOT
HETATM    1  C1  UNL     1       2.113   1.287  65.206  1.00  0.00     0.070 C 
HETATM    2  C2  UNL     1       2.641   1.894  66.494  1.00  0.00     0.031 A 
HETATM    3  N1  UNL     1       3.415   1.270  67.376  1.00  0.00    -0.341 N 
ATOM      4  H1  UNL     1       3.729   0.305  67.283  1.00  0.00     0.167 HD
HETATM    5  C3  UNL     1       3.740   2.094  68.435  1.00  0.00     0.162 A 
HETATM    6  C7  UNL     1       3.122   3.282  68.164  1.00  0.00     0.184 A 
HETATM    7  F1  UNL     1       3.152   4.435  68.854  1.00  0.00    -0.200 F 
HETATM    8  C8  UNL     1       2.430   3.165  66.950  1.00  0.00     0.109 A 
HETATM    9  C9  UNL     1       1.640   4.196  66.327  1.00  0.00     0.104 C 
HETATM   10  N5  UNL     1       0.983   5.039  65.837  1.00  0.00    -0.191 NA
ENDROOT
BRANCH   5  11
HETATM   11  N2  UNL     1       4.596   1.666  69.477  1.00  0.00    -0.274 N 
ATOM     12  H2  UNL     1       4.211   0.912  70.045  1.00  0.00     0.189 HD
BRANCH  11  13
HETATM   13  N3  UNL     1       5.834   2.070  69.861  1.00  0.00    -0.236 N 
HETATM   14  C4  UNL     1       6.315   3.104  70.506  1.00  0.00     0.175 A 
HETATM   15  C5  UNL     1       7.711   3.129  70.547  1.00  0.00     0.160 A 
HETATM   16  N4  UNL     1       8.060   2.022  69.878  1.00  0.00    -0.311 N 
HETATM   17  C6  UNL     1       6.971   1.374  69.459  1.00  0.00     0.199 A 
ATOM     18  H4  UNL     1       9.020   1.719  69.712  1.00  0.00     0.170 HD
HETATM   19  S1  UNL     1       6.996   0.000  68.610  1.00  0.00    -0.039 SA
BRANCH  15  20
HETATM   20  O1  UNL     1       8.552   4.059  71.131  1.00  0.00    -0.345 OA
ATOM     21  H1  UNL     1       9.234   4.585  70.731  1.00  0.00     0.219 HD
ENDBRANCH  15  20
ENDBRANCH  11  13
ENDBRANCH   5  11
TORSDOF 3
ENDMDL
MODEL 4
REMARK VINA RESULT: -6.509615987      3.972      6.422
REMARK  3 active torsions:
REMARK  status: ('A' for Active; 'I' for Inactive)
REMARK    1  A    between atoms: C3_5  and  N2_6 
REMARK    2  A    between atoms: N2_6  and  N3_8 
REMARK    3  A    between atoms: C5_10  and  O1_11 
ROOT
HETATM    1  C1  UNL     1       6.486   3.529  70.442  1.00  0.00     0.070 C 
HETATM    2  C2  UNL     1       5.041   3.615  69.986  1.00  0.00     0.031 A 
HETATM    3  N1  UNL     1       4.634   4.072  68.807  1.00  0.00    -0.341 N 
ATOM      4  H1  UNL     1       5.257   4.426  68.082  1.00  0.00     0.167 HD
HETATM    5  C3  UNL     1       3.260   4.008  68.686  1.00  0.00     0.162 A 
HETATM    6  C7  UNL     1       2.824   3.477  69.868  1.00  0.00     0.184 A 
HETATM    7  F1  UNL     1       1.575   3.164  70.251  1.00  0.00    -0.200 F 
HETATM    8  C8  UNL     1       3.933   3.229  70.688  1.00  0.00     0.109 A 
HETATM    9  C9  UNL     1       3.891   2.686  72.022  1.00  0.00     0.104 C 
HETATM   10  N5  UNL     1       3.843   2.259  73.115  1.00  0.00    -0.191 NA
ENDROOT
BRANCH   5  11
HETATM   11  N2  UNL     1       2.597   4.393  67.497  1.00  0.00    -0.274 N 
ATOM     12  H2  UNL     1       3.226   4.598  66.721  1.00  0.00     0.189 HD
BRANCH  11  13
HETATM   13  N3  UNL     1       1.282   4.542  67.196  1.00  0.00    -0.236 N 
HETATM   14  C4  UNL     1       0.324   5.346  67.587  1.00  0.00     0.175 A 
HETATM   15  C5  UNL     1      -0.926   5.013  67.060  1.00  0.00     0.160 A 
HETATM   16  N4  UNL     1      -0.667   3.936  66.306  1.00  0.00    -0.311 N 
HETATM   17  C6  UNL     1       0.631   3.633  66.365  1.00  0.00     0.199 A 
ATOM     18  H4  UNL     1      -1.363   3.423  65.764  1.00  0.00     0.170 HD
HETATM   19  S1  UNL     1       1.315   2.392  65.590  1.00  0.00    -0.039 SA
BRANCH  15  20
HETATM   20  O1  UNL     1      -2.149   5.629  67.256  1.00  0.00    -0.345 OA
ATOM     21  H1  UNL     1      -2.454   6.471  66.940  1.00  0.00     0.219 HD
ENDBRANCH  15  20
ENDBRANCH  11  13
ENDBRANCH   5  11
TORSDOF 3
ENDMDL
MODEL 5
REMARK VINA RESULT: -6.454552866      1.875      2.150
REMARK  3 active torsions:
REMARK  status: ('A' for Active; 'I' for Inactive)
REMARK    1  A    between atoms: C3_5  and  N2_6 
REMARK    2  A    between atoms: N2_6  and  N3_8 
REMARK    3  A    between atoms: C5_10  and  O1_11 
ROOT
HETATM    1  C1  UNL     1       0.756   4.675  69.245  1.00  0.00     0.070 C 
HETATM    2  C2  UNL     1       1.861   3.842  68.620  1.00  0.00     0.031 A 
HETATM    3  N1  UNL     1       2.831   3.228  69.288  1.00  0.00    -0.341 N 
ATOM      4  H1  UNL     1       2.941   3.262  70.301  1.00  0.00     0.167 HD
HETATM    5  C3  UNL     1       3.672   2.538  68.437  1.00  0.00     0.162 A 
HETATM    6  C7  UNL     1       3.168   2.756  67.186  1.00  0.00     0.184 A 
HETATM    7  F1  UNL     1       3.587   2.273  66.003  1.00  0.00    -0.200 F 
HETATM    8  C8  UNL     1       2.034   3.572  67.290  1.00  0.00     0.109 A 
HETATM    9  C9  UNL     1       1.227   4.041  66.193  1.00  0.00     0.104 C 
HETATM   10  N5  UNL     1       0.588   4.431  65.288  1.00  0.00    -0.191 NA
ENDROOT
BRANCH   5  11
HETATM   11  N2  UNL     1       4.753   1.765  68.923  1.00  0.00    -0.274 N 
ATOM     12  H2  UNL     1       4.613   0.758  68.835  1.00  0.00     0.189 HD
BRANCH  11  13
HETATM   13  N3  UNL     1       5.939   2.111  69.484  1.00  0.00    -0.236 N 
HETATM   14  C4  UNL     1       6.358   3.097  70.238  1.00  0.00     0.175 A 
HETATM   15  C5  UNL     1       7.737   3.074  70.460  1.00  0.00     0.160 A 
HETATM   16  N4  UNL     1       8.142   1.991  69.785  1.00  0.00    -0.311 N 
HETATM   17  C6  UNL     1       7.101   1.398  69.197  1.00  0.00     0.199 A 
ATOM     18  H4  UNL     1       9.107   1.665  69.730  1.00  0.00     0.170 HD
HETATM   19  S1  UNL     1       7.202   0.066  68.289  1.00  0.00    -0.039 SA
BRANCH  15  20
HETATM   20  O1  UNL     1       8.519   3.949  71.195  1.00  0.00    -0.345 OA
ATOM     21  H1  UNL     1       9.416   4.222  71.045  1.00  0.00     0.219 HD
ENDBRANCH  15  20
ENDBRANCH  11  13
ENDBRANCH   5  11
TORSDOF 3
ENDMDL
