MODEL 1
REMARK VINA RESULT: -8.860542382      0.000      0.000
REMARK  15 active torsions:
REMARK  status: ('A' for Active; 'I' for Inactive)
REMARK    1  A    between atoms: C2_2  and  N1_3 
REMARK    2  A    between atoms: C2_2  and  N4_26 
REMARK    3  A    between atoms: C3_5  and  C4_6 
REMARK    4  A    between atoms: C4_6  and  C5_7 
REMARK    5  A    between atoms: C5_7  and  C6_8 
REMARK    6  A    between atoms: C6_8  and  C7_9 
REMARK    7  A    between atoms: C7_9  and  C8_10 
REMARK    8  A    between atoms: C8_10  and  C9_11 
REMARK    9  A    between atoms: C9_11  and  N2_12 
REMARK   10  A    between atoms: N2_12  and  C10_15 
REMARK   11  A    between atoms: C10_15  and  C11_16 
REMARK   12  A    between atoms: C11_16  and  C12_17 
REMARK   13  A    between atoms: C12_17  and  C13_18 
REMARK   14  A    between atoms: C13_18  and  N3_19 
REMARK       I    between atoms: N3_19  and  C14_20 
REMARK   15  A    between atoms: C14_20  and  C15_22 
ROOT
HETATM    1  C6  UNL     1      40.983  14.508  -7.170  1.00  0.00     0.000 C 
ENDROOT
BRANCH   1   2
HETATM    2  C5  UNL     1      41.069  15.998  -7.229  1.00  0.00     0.005 C 
BRANCH   2   3
HETATM    3  C4  UNL     1      39.948  16.666  -6.498  1.00  0.00     0.044 C 
BRANCH   3   4
HETATM    4  C3  UNL     1      40.355  17.289  -5.194  1.00  0.00     0.062 C 
HETATM    5  N1  UNL     1      39.635  16.849  -4.149  1.00  0.00    -0.360 N 
ATOM      6  H1  UNL     1      40.308  16.799  -3.384  1.00  0.00     0.166 HD
BRANCH   5   7
HETATM    7  C2  UNL     1      38.592  16.483  -3.654  1.00  0.00     0.075 C 
HETATM    8  C1  UNL     1      37.640  17.483  -3.010  1.00  0.00     0.089 C 
BRANCH   7   9
HETATM    9  N4  UNL     1      38.163  15.102  -3.619  1.00  0.00    -0.356 N 
HETATM   10  C16 UNL     1      38.293  14.165  -4.692  1.00  0.00     0.091 C 
HETATM   11  C17 UNL     1      39.075  13.063  -3.942  1.00  0.00     0.028 C 
HETATM   12  C22 UNL     1      37.002  13.529  -5.096  1.00  0.00     0.073 C 
HETATM   13  C18 UNL     1      38.223  12.984  -2.664  1.00  0.00     0.033 C 
HETATM   14  C19 UNL     1      37.544  14.371  -2.561  1.00  0.00     0.127 C 
HETATM   15  C20 UNL     1      36.102  14.210  -2.959  1.00  0.00     0.025 C 
HETATM   16 BR1  UNL     1      34.687  14.558  -1.728  1.00  0.00    -0.052 Br
HETATM   17  C21 UNL     1      35.858  13.806  -4.196  1.00  0.00     0.006 C 
HETATM   18 BR2  UNL     1      34.044  13.562  -4.814  1.00  0.00    -0.054 Br
ENDBRANCH   7   9
ENDBRANCH   5   7
ENDBRANCH   3   4
ENDBRANCH   2   3
ENDBRANCH   1   2
BRANCH   1  19
HETATM   19  C7  UNL     1      41.819  14.052  -5.975  1.00  0.00     0.002 C 
BRANCH  19  20
HETATM   20  C8  UNL     1      43.259  14.033  -6.300  1.00  0.00     0.027 C 
BRANCH  20  21
HETATM   21  C9  UNL     1      44.107  14.770  -5.314  1.00  0.00     0.232 C 
BRANCH  21  22
HETATM   22  N2  UNL     1      43.355  15.590  -4.426  1.00  0.00    -0.075 N 
ATOM     23  H22 UNL     1      42.348  15.510  -4.572  1.00  0.00     0.277 HD
ATOM     24  H21 UNL     1      43.380  15.254  -3.463  1.00  0.00     0.277 HD
BRANCH  22  25
HETATM   25  C10 UNL     1      43.846  16.996  -4.558  1.00  0.00     0.232 C 
BRANCH  25  26
HETATM   26  C11 UNL     1      45.122  17.152  -3.816  1.00  0.00     0.033 C 
BRANCH  26  27
HETATM   27  C12 UNL     1      45.855  18.441  -3.981  1.00  0.00     0.061 C 
BRANCH  27  28
HETATM   28  C13 UNL     1      47.324  18.427  -3.928  1.00  0.00     0.159 C 
BRANCH  28  29
HETATM   29  N3  UNL     1      48.102  17.357  -4.200  1.00  0.00    -0.380 NA
HETATM   30  C14 UNL     1      48.893  16.277  -4.477  1.00  0.00     0.399 C 
HETATM   31  O1  UNL     1      50.011  16.210  -5.024  1.00  0.00    -0.247 OA
BRANCH  30  32
HETATM   32  C15 UNL     1      48.367  14.890  -4.078  1.00  0.00     0.486 C 
HETATM   33  F1  UNL     1      47.017  14.843  -4.043  1.00  0.00    -0.161 F 
HETATM   34  F2  UNL     1      48.878  14.008  -5.052  1.00  0.00    -0.161 F 
HETATM   35  F3  UNL     1      48.889  14.472  -2.884  1.00  0.00    -0.161 F 
ENDBRANCH  30  32
ENDBRANCH  28  29
ENDBRANCH  27  28
ENDBRANCH  26  27
ENDBRANCH  25  26
ENDBRANCH  22  25
ENDBRANCH  21  22
ENDBRANCH  20  21
ENDBRANCH  19  20
ENDBRANCH   1  19
TORSDOF 15
ENDMDL
MODEL 2
REMARK VINA RESULT: -8.783208021      1.561      2.048
REMARK  15 active torsions:
REMARK  status: ('A' for Active; 'I' for Inactive)
REMARK    1  A    between atoms: C2_2  and  N1_3 
REMARK    2  A    between atoms: C2_2  and  N4_26 
REMARK    3  A    between atoms: C3_5  and  C4_6 
REMARK    4  A    between atoms: C4_6  and  C5_7 
REMARK    5  A    between atoms: C5_7  and  C6_8 
REMARK    6  A    between atoms: C6_8  and  C7_9 
REMARK    7  A    between atoms: C7_9  and  C8_10 
REMARK    8  A    between atoms: C8_10  and  C9_11 
REMARK    9  A    between atoms: C9_11  and  N2_12 
REMARK   10  A    between atoms: N2_12  and  C10_15 
REMARK   11  A    between atoms: C10_15  and  C11_16 
REMARK   12  A    between atoms: C11_16  and  C12_17 
REMARK   13  A    between atoms: C12_17  and  C13_18 
REMARK   14  A    between atoms: C13_18  and  N3_19 
REMARK       I    between atoms: N3_19  and  C14_20 
REMARK   15  A    between atoms: C14_20  and  C15_22 
ROOT
HETATM    1  C6  UNL     1      42.166  14.039  -6.920  1.00  0.00     0.000 C 
ENDROOT
BRANCH   1   2
HETATM    2  C5  UNL     1      41.343  15.284  -6.990  1.00  0.00     0.005 C 
BRANCH   2   3
HETATM    3  C4  UNL     1      39.897  15.001  -7.244  1.00  0.00     0.044 C 
BRANCH   3   4
HETATM    4  C3  UNL     1      39.089  16.216  -7.594  1.00  0.00     0.062 C 
HETATM    5  N1  UNL     1      38.911  17.052  -6.558  1.00  0.00    -0.360 N 
ATOM      6  H1  UNL     1      38.956  17.982  -6.975  1.00  0.00     0.166 HD
BRANCH   5   7
HETATM    7  C2  UNL     1      38.725  17.262  -5.379  1.00  0.00     0.075 C 
HETATM    8  C1  UNL     1      38.788  18.678  -4.820  1.00  0.00     0.089 C 
BRANCH   7   9
HETATM    9  N4  UNL     1      38.438  16.223  -4.415  1.00  0.00    -0.356 N 
HETATM   10  C16 UNL     1      39.404  15.342  -3.832  1.00  0.00     0.091 C 
HETATM   11  C17 UNL     1      39.115  15.636  -2.344  1.00  0.00     0.028 C 
HETATM   12  C22 UNL     1      39.086  13.893  -4.019  1.00  0.00     0.073 C 
HETATM   13  C18 UNL     1      37.580  15.538  -2.366  1.00  0.00     0.033 C 
HETATM   14  C19 UNL     1      37.191  15.843  -3.833  1.00  0.00     0.127 C 
HETATM   15  C20 UNL     1      36.808  14.545  -4.489  1.00  0.00     0.025 C 
HETATM   16 BR1  UNL     1      35.043  14.252  -5.154  1.00  0.00    -0.052 Br
HETATM   17  C21 UNL     1      37.742  13.612  -4.576  1.00  0.00     0.006 C 
HETATM   18 BR2  UNL     1      37.359  11.905  -5.395  1.00  0.00    -0.054 Br
ENDBRANCH   7   9
ENDBRANCH   5   7
ENDBRANCH   3   4
ENDBRANCH   2   3
ENDBRANCH   1   2
BRANCH   1  19
HETATM   19  C7  UNL     1      43.328  14.315  -5.967  1.00  0.00     0.002 C 
BRANCH  19  20
HETATM   20  C8  UNL     1      42.895  15.118  -4.806  1.00  0.00     0.027 C 
BRANCH  20  21
HETATM   21  C9  UNL     1      43.925  16.090  -4.329  1.00  0.00     0.232 C 
BRANCH  21  22
HETATM   22  N2  UNL     1      43.551  17.450  -4.526  1.00  0.00    -0.075 N 
ATOM     23  H22 UNL     1      43.467  17.696  -5.513  1.00  0.00     0.277 HD
ATOM     24  H21 UNL     1      42.585  17.636  -4.256  1.00  0.00     0.277 HD
BRANCH  22  25
HETATM   25  C10 UNL     1      44.529  18.314  -3.798  1.00  0.00     0.232 C 
BRANCH  25  26
HETATM   26  C11 UNL     1      45.913  17.943  -4.190  1.00  0.00     0.033 C 
BRANCH  26  27
HETATM   27  C12 UNL     1      47.007  18.880  -3.802  1.00  0.00     0.061 C 
BRANCH  27  28
HETATM   28  C13 UNL     1      48.155  18.349  -3.053  1.00  0.00     0.159 C 
BRANCH  28  29
HETATM   29  N3  UNL     1      48.426  17.039  -2.869  1.00  0.00    -0.380 NA
HETATM   30  C14 UNL     1      48.701  15.713  -2.679  1.00  0.00     0.399 C 
HETATM   31  O1  UNL     1      49.247  15.128  -1.723  1.00  0.00    -0.247 OA
BRANCH  30  32
HETATM   32  C15 UNL     1      48.301  14.736  -3.795  1.00  0.00     0.486 C 
HETATM   33  F1  UNL     1      47.026  14.918  -4.204  1.00  0.00    -0.161 F 
HETATM   34  F2  UNL     1      49.209  14.986  -4.844  1.00  0.00    -0.161 F 
HETATM   35  F3  UNL     1      48.502  13.433  -3.428  1.00  0.00    -0.161 F 
ENDBRANCH  30  32
ENDBRANCH  28  29
ENDBRANCH  27  28
ENDBRANCH  26  27
ENDBRANCH  25  26
ENDBRANCH  22  25
ENDBRANCH  21  22
ENDBRANCH  20  21
ENDBRANCH  19  20
ENDBRANCH   1  19
TORSDOF 15
ENDMDL
MODEL 3
REMARK VINA RESULT: -8.764348518      1.568      2.608
REMARK  15 active torsions:
REMARK  status: ('A' for Active; 'I' for Inactive)
REMARK    1  A    between atoms: C2_2  and  N1_3 
REMARK    2  A    between atoms: C2_2  and  N4_26 
REMARK    3  A    between atoms: C3_5  and  C4_6 
REMARK    4  A    between atoms: C4_6  and  C5_7 
REMARK    5  A    between atoms: C5_7  and  C6_8 
REMARK    6  A    between atoms: C6_8  and  C7_9 
REMARK    7  A    between atoms: C7_9  and  C8_10 
REMARK    8  A    between atoms: C8_10  and  C9_11 
REMARK    9  A    between atoms: C9_11  and  N2_12 
REMARK   10  A    between atoms: N2_12  and  C10_15 
REMARK   11  A    between atoms: C10_15  and  C11_16 
REMARK   12  A    between atoms: C11_16  and  C12_17 
REMARK   13  A    between atoms: C12_17  and  C13_18 
REMARK   14  A    between atoms: C13_18  and  N3_19 
REMARK       I    between atoms: N3_19  and  C14_20 
REMARK   15  A    between atoms: C14_20  and  C15_22 
ROOT
HETATM    1  C6  UNL     1      39.530  19.357  -5.394  1.00  0.00     0.000 C 
ENDROOT
BRANCH   1   2
HETATM    2  C5  UNL     1      38.818  18.182  -5.981  1.00  0.00     0.005 C 
BRANCH   2   3
HETATM    3  C4  UNL     1      39.155  17.971  -7.423  1.00  0.00     0.044 C 
BRANCH   3   4
HETATM    4  C3  UNL     1      38.358  16.884  -8.084  1.00  0.00     0.062 C 
HETATM    5  N1  UNL     1      38.421  15.710  -7.435  1.00  0.00    -0.360 N 
ATOM      6  H1  UNL     1      37.485  15.317  -7.536  1.00  0.00     0.166 HD
BRANCH   5   7
HETATM    7  C2  UNL     1      39.024  14.881  -6.791  1.00  0.00     0.075 C 
HETATM    8  C1  UNL     1      40.421  14.435  -7.207  1.00  0.00     0.089 C 
BRANCH   7   9
HETATM    9  N4  UNL     1      38.494  14.246  -5.604  1.00  0.00    -0.356 N 
HETATM   10  C16 UNL     1      37.560  13.163  -5.589  1.00  0.00     0.091 C 
HETATM   11  C17 UNL     1      38.376  12.166  -4.736  1.00  0.00     0.028 C 
HETATM   12  C22 UNL     1      36.324  13.444  -4.795  1.00  0.00     0.073 C 
HETATM   13  C18 UNL     1      38.808  13.110  -3.600  1.00  0.00     0.033 C 
HETATM   14  C19 UNL     1      38.763  14.524  -4.230  1.00  0.00     0.127 C 
HETATM   15  C20 UNL     1      37.540  15.225  -3.705  1.00  0.00     0.025 C 
HETATM   16 BR1  UNL     1      37.680  16.810  -2.652  1.00  0.00    -0.052 Br
HETATM   17  C21 UNL     1      36.364  14.690  -3.994  1.00  0.00     0.006 C 
HETATM   18 BR2  UNL     1      34.729  15.504  -3.367  1.00  0.00    -0.054 Br
ENDBRANCH   7   9
ENDBRANCH   5   7
ENDBRANCH   3   4
ENDBRANCH   2   3
ENDBRANCH   1   2
BRANCH   1  19
HETATM   19  C7  UNL     1      40.901  18.870  -4.927  1.00  0.00     0.002 C 
BRANCH  19  20
HETATM   20  C8  UNL     1      40.890  17.422  -4.637  1.00  0.00     0.027 C 
BRANCH  20  21
HETATM   21  C9  UNL     1      42.165  16.728  -4.993  1.00  0.00     0.232 C 
BRANCH  21  22
HETATM   22  N2  UNL     1      43.267  17.617  -5.143  1.00  0.00    -0.075 N 
ATOM     23  H22 UNL     1      43.558  17.724  -6.115  1.00  0.00     0.277 HD
ATOM     24  H21 UNL     1      43.016  18.590  -4.966  1.00  0.00     0.277 HD
BRANCH  22  25
HETATM   25  C10 UNL     1      44.376  17.139  -4.260  1.00  0.00     0.232 C 
BRANCH  25  26
HETATM   26  C11 UNL     1      44.994  18.295  -3.563  1.00  0.00     0.033 C 
BRANCH  26  27
HETATM   27  C12 UNL     1      46.195  18.912  -4.195  1.00  0.00     0.061 C 
BRANCH  27  28
HETATM   28  C13 UNL     1      47.526  18.517  -3.711  1.00  0.00     0.159 C 
BRANCH  28  29
HETATM   29  N3  UNL     1      48.185  17.395  -4.073  1.00  0.00    -0.380 NA
HETATM   30  C14 UNL     1      48.856  16.262  -4.443  1.00  0.00     0.399 C 
HETATM   31  O1  UNL     1      49.938  16.121  -5.043  1.00  0.00    -0.247 OA
BRANCH  30  32
HETATM   32  C15 UNL     1      48.215  14.911  -4.091  1.00  0.00     0.486 C 
HETATM   33  F1  UNL     1      46.872  14.924  -4.244  1.00  0.00    -0.161 F 
HETATM   34  F2  UNL     1      48.814  13.982  -4.966  1.00  0.00    -0.161 F 
HETATM   35  F3  UNL     1      48.546  14.504  -2.827  1.00  0.00    -0.161 F 
ENDBRANCH  30  32
ENDBRANCH  28  29
ENDBRANCH  27  28
ENDBRANCH  26  27
ENDBRANCH  25  26
ENDBRANCH  22  25
ENDBRANCH  21  22
ENDBRANCH  20  21
ENDBRANCH  19  20
ENDBRANCH   1  19
TORSDOF 15
ENDMDL
MODEL 4
REMARK VINA RESULT: -8.728946376      2.495      3.695
REMARK  15 active torsions:
REMARK  status: ('A' for Active; 'I' for Inactive)
REMARK    1  A    between atoms: C2_2  and  N1_3 
REMARK    2  A    between atoms: C2_2  and  N4_26 
REMARK    3  A    between atoms: C3_5  and  C4_6 
REMARK    4  A    between atoms: C4_6  and  C5_7 
REMARK    5  A    between atoms: C5_7  and  C6_8 
REMARK    6  A    between atoms: C6_8  and  C7_9 
REMARK    7  A    between atoms: C7_9  and  C8_10 
REMARK    8  A    between atoms: C8_10  and  C9_11 
REMARK    9  A    between atoms: C9_11  and  N2_12 
REMARK   10  A    between atoms: N2_12  and  C10_15 
REMARK   11  A    between atoms: C10_15  and  C11_16 
REMARK   12  A    between atoms: C11_16  and  C12_17 
REMARK   13  A    between atoms: C12_17  and  C13_18 
REMARK   14  A    between atoms: C13_18  and  N3_19 
REMARK       I    between atoms: N3_19  and  C14_20 
REMARK   15  A    between atoms: C14_20  and  C15_22 
ROOT
HETATM    1  C6  UNL     1      40.776  18.537  -9.490  1.00  0.00     0.000 C 
ENDROOT
BRANCH   1   2
HETATM    2  C5  UNL     1      39.287  18.454  -9.570  1.00  0.00     0.005 C 
BRANCH   2   3
HETATM    3  C4  UNL     1      38.765  17.120  -9.142  1.00  0.00     0.044 C 
BRANCH   3   4
HETATM    4  C3  UNL     1      37.941  17.160  -7.888  1.00  0.00     0.062 C 
HETATM    5  N1  UNL     1      38.309  16.240  -6.981  1.00  0.00    -0.360 N 
ATOM      6  H1  UNL     1      38.193  16.712  -6.084  1.00  0.00     0.166 HD
BRANCH   5   7
HETATM    7  C2  UNL     1      38.710  15.136  -6.688  1.00  0.00     0.075 C 
HETATM    8  C1  UNL     1      39.723  14.414  -7.567  1.00  0.00     0.089 C 
BRANCH   7   9
HETATM    9  N4  UNL     1      38.276  14.411  -5.513  1.00  0.00    -0.356 N 
HETATM   10  C16 UNL     1      37.417  13.267  -5.513  1.00  0.00     0.091 C 
HETATM   11  C17 UNL     1      38.334  12.290  -4.745  1.00  0.00     0.028 C 
HETATM   12  C22 UNL     1      36.202  13.426  -4.658  1.00  0.00     0.073 C 
HETATM   13  C18 UNL     1      38.752  13.208  -3.582  1.00  0.00     0.033 C 
HETATM   14  C19 UNL     1      38.585  14.643  -4.139  1.00  0.00     0.127 C 
HETATM   15  C20 UNL     1      37.343  15.233  -3.530  1.00  0.00     0.025 C 
HETATM   16 BR1  UNL     1      37.423  16.774  -2.407  1.00  0.00    -0.052 Br
HETATM   17  C21 UNL     1      36.194  14.633  -3.798  1.00  0.00     0.006 C 
HETATM   18 BR2  UNL     1      34.537  15.303  -3.066  1.00  0.00    -0.054 Br
ENDBRANCH   7   9
ENDBRANCH   5   7
ENDBRANCH   3   4
ENDBRANCH   2   3
ENDBRANCH   1   2
BRANCH   1  19
HETATM   19  C7  UNL     1      41.178  18.133  -8.072  1.00  0.00     0.002 C 
BRANCH  19  20
HETATM   20  C8  UNL     1      40.722  19.126  -7.079  1.00  0.00     0.027 C 
BRANCH  20  21
HETATM   21  C9  UNL     1      40.750  18.625  -5.670  1.00  0.00     0.232 C 
BRANCH  21  22
HETATM   22  N2  UNL     1      41.969  17.970  -5.330  1.00  0.00    -0.075 N 
ATOM     23  H22 UNL     1      42.665  18.024  -6.074  1.00  0.00     0.277 HD
ATOM     24  H21 UNL     1      42.496  18.467  -4.612  1.00  0.00     0.277 HD
BRANCH  22  25
HETATM   25  C10 UNL     1      41.649  16.563  -4.940  1.00  0.00     0.232 C 
BRANCH  25  26
HETATM   26  C11 UNL     1      42.501  15.624  -5.712  1.00  0.00     0.033 C 
BRANCH  26  27
HETATM   27  C12 UNL     1      43.408  14.728  -4.937  1.00  0.00     0.061 C 
BRANCH  27  28
HETATM   28  C13 UNL     1      44.723  15.243  -4.527  1.00  0.00     0.159 C 
BRANCH  28  29
HETATM   29  N3  UNL     1      44.996  16.532  -4.230  1.00  0.00    -0.380 NA
HETATM   30  C14 UNL     1      45.268  17.837  -3.927  1.00  0.00     0.399 C 
HETATM   31  O1  UNL     1      44.514  18.758  -3.559  1.00  0.00    -0.247 OA
BRANCH  30  32
HETATM   32  C15 UNL     1      46.726  18.306  -4.050  1.00  0.00     0.486 C 
HETATM   33  F1  UNL     1      47.567  17.293  -4.357  1.00  0.00    -0.161 F 
HETATM   34  F2  UNL     1      46.715  19.279  -5.070  1.00  0.00    -0.161 F 
HETATM   35  F3  UNL     1      47.151  18.951  -2.920  1.00  0.00    -0.161 F 
ENDBRANCH  30  32
ENDBRANCH  28  29
ENDBRANCH  27  28
ENDBRANCH  26  27
ENDBRANCH  25  26
ENDBRANCH  22  25
ENDBRANCH  21  22
ENDBRANCH  20  21
ENDBRANCH  19  20
ENDBRANCH   1  19
TORSDOF 15
ENDMDL
MODEL 5
REMARK VINA RESULT: -8.572075923      2.186      3.239
REMARK  15 active torsions:
REMARK  status: ('A' for Active; 'I' for Inactive)
REMARK    1  A    between atoms: C2_2  and  N1_3 
REMARK    2  A    between atoms: C2_2  and  N4_26 
REMARK    3  A    between atoms: C3_5  and  C4_6 
REMARK    4  A    between atoms: C4_6  and  C5_7 
REMARK    5  A    between atoms: C5_7  and  C6_8 
REMARK    6  A    between atoms: C6_8  and  C7_9 
REMARK    7  A    between atoms: C7_9  and  C8_10 
REMARK    8  A    between atoms: C8_10  and  C9_11 
REMARK    9  A    between atoms: C9_11  and  N2_12 
REMARK   10  A    between atoms: N2_12  and  C10_15 
REMARK   11  A    between atoms: C10_15  and  C11_16 
REMARK   12  A    between atoms: C11_16  and  C12_17 
REMARK   13  A    between atoms: C12_17  and  C13_18 
REMARK   14  A    between atoms: C13_18  and  N3_19 
REMARK       I    between atoms: N3_19  and  C14_20 
REMARK   15  A    between atoms: C14_20  and  C15_22 
ROOT
HETATM    1  C6  UNL     1      40.111  19.542  -4.878  1.00  0.00     0.000 C 
ENDROOT
BRANCH   1   2
HETATM    2  C5  UNL     1      38.686  19.231  -4.557  1.00  0.00     0.005 C 
BRANCH   2   3
HETATM    3  C4  UNL     1      38.479  17.791  -4.208  1.00  0.00     0.044 C 
BRANCH   3   4
HETATM    4  C3  UNL     1      37.862  17.573  -2.857  1.00  0.00     0.062 C 
HETATM    5  N1  UNL     1      37.234  16.391  -2.745  1.00  0.00    -0.360 N 
ATOM      6  H1  UNL     1      37.425  16.095  -1.788  1.00  0.00     0.166 HD
BRANCH   5   7
HETATM    7  C2  UNL     1      36.556  15.499  -3.204  1.00  0.00     0.075 C 
HETATM    8  C1  UNL     1      35.048  15.475  -2.987  1.00  0.00     0.089 C 
BRANCH   7   9
HETATM    9  N4  UNL     1      37.093  14.398  -3.973  1.00  0.00    -0.356 N 
HETATM   10  C16 UNL     1      37.758  13.253  -3.431  1.00  0.00     0.091 C 
HETATM   11  C17 UNL     1      36.869  12.154  -4.054  1.00  0.00     0.028 C 
HETATM   12  C22 UNL     1      39.124  13.027  -3.997  1.00  0.00     0.073 C 
HETATM   13  C18 UNL     1      36.819  12.669  -5.503  1.00  0.00     0.033 C 
HETATM   14  C19 UNL     1      37.086  14.190  -5.385  1.00  0.00     0.127 C 
HETATM   15  C20 UNL     1      38.494  14.448  -5.847  1.00  0.00     0.025 C 
HETATM   16 BR1  UNL     1      38.855  15.536  -7.372  1.00  0.00    -0.052 Br
HETATM   17  C21 UNL     1      39.471  13.881  -5.157  1.00  0.00     0.006 C 
HETATM   18 BR2  UNL     1      41.317  14.141  -5.663  1.00  0.00    -0.054 Br
ENDBRANCH   7   9
ENDBRANCH   5   7
ENDBRANCH   3   4
ENDBRANCH   2   3
ENDBRANCH   1   2
BRANCH   1  19
HETATM   19  C7  UNL     1      40.324  19.225  -6.358  1.00  0.00     0.002 C 
BRANCH  19  20
HETATM   20  C8  UNL     1      41.358  18.188  -6.544  1.00  0.00     0.027 C 
BRANCH  20  21
HETATM   21  C9  UNL     1      41.843  17.586  -5.264  1.00  0.00     0.232 C 
BRANCH  21  22
HETATM   22  N2  UNL     1      43.170  17.975  -4.926  1.00  0.00    -0.075 N 
ATOM     23  H22 UNL     1      43.639  18.473  -5.683  1.00  0.00     0.277 HD
ATOM     24  H21 UNL     1      43.197  18.722  -4.232  1.00  0.00     0.277 HD
BRANCH  22  25
HETATM   25  C10 UNL     1      43.917  16.755  -4.489  1.00  0.00     0.232 C 
BRANCH  25  26
HETATM   26  C11 UNL     1      45.039  17.148  -3.599  1.00  0.00     0.033 C 
BRANCH  26  27
HETATM   27  C12 UNL     1      45.713  18.448  -3.881  1.00  0.00     0.061 C 
BRANCH  27  28
HETATM   28  C13 UNL     1      47.177  18.465  -4.021  1.00  0.00     0.159 C 
BRANCH  28  29
HETATM   29  N3  UNL     1      47.947  17.386  -4.272  1.00  0.00    -0.380 NA
HETATM   30  C14 UNL     1      48.731  16.294  -4.527  1.00  0.00     0.399 C 
HETATM   31  O1  UNL     1      49.873  16.215  -5.021  1.00  0.00    -0.247 OA
BRANCH  30  32
HETATM   32  C15 UNL     1      48.162  14.912  -4.175  1.00  0.00     0.486 C 
HETATM   33  F1  UNL     1      46.846  14.810  -4.461  1.00  0.00    -0.161 F 
HETATM   34  F2  UNL     1      48.917  13.998  -4.938  1.00  0.00    -0.161 F 
HETATM   35  F3  UNL     1      48.391  14.586  -2.865  1.00  0.00    -0.161 F 
ENDBRANCH  30  32
ENDBRANCH  28  29
ENDBRANCH  27  28
ENDBRANCH  26  27
ENDBRANCH  25  26
ENDBRANCH  22  25
ENDBRANCH  21  22
ENDBRANCH  20  21
ENDBRANCH  19  20
ENDBRANCH   1  19
TORSDOF 15
ENDMDL
