MODEL 1
REMARK VINA RESULT: -8.354723952      0.000      0.000
REMARK  3 active torsions:
REMARK  status: ('A' for Active; 'I' for Inactive)
REMARK    1  A    between atoms: C2_3  and  N2_4 
REMARK    2  A    between atoms: C8_11  and  N4_12 
REMARK       I    between atoms: N4_12  and  C9_14 
REMARK       I    between atoms: C9_14  and  N5_16 
REMARK    3  A    between atoms: N5_16  and  C10_18 
ROOT
HETATM    1  N1  UNL     1      13.988   9.500   5.494  1.00  0.00    -0.191 NA
HETATM    2  C1  UNL     1      14.429   9.337   4.433  1.00  0.00     0.105 C 
HETATM    3  C2  UNL     1      14.971   9.114   3.070  1.00  0.00     0.186 C 
ENDROOT
BRANCH   3   4
HETATM    4  N2  UNL     1      16.085   9.944   2.886  1.00  0.00    -0.338 N 
HETATM    5  C3  UNL     1      17.089   9.998   3.870  1.00  0.00     0.066 C 
HETATM    6  C4  UNL     1      18.376   9.476   3.269  1.00  0.00     0.046 C 
HETATM    7  C5  UNL     1      18.756  10.181   2.019  1.00  0.00     0.028 C 
HETATM    8  C6  UNL     1      17.695  10.945   1.321  1.00  0.00     0.136 C 
HETATM    9  C7  UNL     1      17.953  12.403   1.382  1.00  0.00     0.068 C 
HETATM   10  C8  UNL     1      16.282  10.609   1.663  1.00  0.00     0.210 C 
HETATM   11  N3  UNL     1      18.148  13.551   1.431  1.00  0.00    -0.197 NA
BRANCH  10  12
HETATM   12  N4  UNL     1      15.660   9.807   0.598  1.00  0.00    -0.320 N 
HETATM   13  C9  UNL     1      15.053  10.448  -0.509  1.00  0.00     0.318 C 
HETATM   14  O1  UNL     1      15.048  11.706  -0.577  1.00  0.00    -0.247 OA
HETATM   15  N5  UNL     1      14.436   9.741  -1.568  1.00  0.00    -0.338 N 
ATOM     16  H5  UNL     1      14.429   8.721  -1.531  1.00  0.00     0.164 HD
ATOM     17  H4  UNL     1      15.667   8.789   0.658  1.00  0.00     0.166 HD
BRANCH  15  18
HETATM   18  C10 UNL     1      13.819  10.386  -2.694  1.00  0.00     0.086 C 
HETATM   19  C11 UNL     1      12.483   9.828  -3.045  1.00  0.00     0.025 C 
HETATM   20  C12 UNL     1      12.574   9.408  -4.485  1.00  0.00     0.002 C 
HETATM   21  C13 UNL     1      14.039   9.213  -4.791  1.00  0.00     0.002 C 
HETATM   22  C14 UNL     1      14.671  10.312  -3.942  1.00  0.00     0.025 C 
ENDBRANCH  15  18
ENDBRANCH  10  12
ENDBRANCH   3   4
TORSDOF 3
ENDMDL
MODEL 2
REMARK VINA RESULT: -8.281586276      1.535      1.721
REMARK  3 active torsions:
REMARK  status: ('A' for Active; 'I' for Inactive)
REMARK    1  A    between atoms: C2_3  and  N2_4 
REMARK    2  A    between atoms: C8_11  and  N4_12 
REMARK       I    between atoms: N4_12  and  C9_14 
REMARK       I    between atoms: C9_14  and  N5_16 
REMARK    3  A    between atoms: N5_16  and  C10_18 
ROOT
HETATM    1  N1  UNL     1      11.676   9.034   1.973  1.00  0.00    -0.191 NA
HETATM    2  C1  UNL     1      12.776   8.667   2.021  1.00  0.00     0.105 C 
HETATM    3  C2  UNL     1      14.175   8.176   2.066  1.00  0.00     0.186 C 
ENDROOT
BRANCH   3   4
HETATM    4  N2  UNL     1      14.974   9.148   2.682  1.00  0.00    -0.338 N 
HETATM    5  C3  UNL     1      15.370   8.984   4.022  1.00  0.00     0.066 C 
HETATM    6  C4  UNL     1      16.877   8.860   4.064  1.00  0.00     0.046 C 
HETATM    7  C5  UNL     1      17.568   9.990   3.394  1.00  0.00     0.028 C 
HETATM    8  C6  UNL     1      16.770  10.812   2.453  1.00  0.00     0.136 C 
HETATM    9  C7  UNL     1      16.560  12.181   2.980  1.00  0.00     0.068 C 
HETATM   10  C8  UNL     1      15.509  10.210   1.931  1.00  0.00     0.210 C 
HETATM   11  N3  UNL     1      16.387  13.258   3.390  1.00  0.00    -0.197 NA
BRANCH  10  12
HETATM   12  N4  UNL     1      15.681   9.751   0.544  1.00  0.00    -0.320 N 
HETATM   13  C9  UNL     1      14.925  10.341  -0.497  1.00  0.00     0.318 C 
HETATM   14  O1  UNL     1      14.106  11.260  -0.230  1.00  0.00    -0.247 OA
HETATM   15  N5  UNL     1      15.038   9.950  -1.853  1.00  0.00    -0.338 N 
ATOM     16  H5  UNL     1      15.696   9.207  -2.089  1.00  0.00     0.164 HD
ATOM     17  H4  UNL     1      16.346   9.006   0.332  1.00  0.00     0.166 HD
BRANCH  15  18
HETATM   18  C10 UNL     1      14.273  10.547  -2.913  1.00  0.00     0.086 C 
HETATM   19  C11 UNL     1      12.931   9.930  -3.102  1.00  0.00     0.025 C 
HETATM   20  C12 UNL     1      12.878   9.483  -4.536  1.00  0.00     0.002 C 
HETATM   21  C13 UNL     1      14.306   9.339  -5.001  1.00  0.00     0.002 C 
HETATM   22  C14 UNL     1      14.983  10.479  -4.247  1.00  0.00     0.025 C 
ENDBRANCH  15  18
ENDBRANCH  10  12
ENDBRANCH   3   4
TORSDOF 3
ENDMDL
MODEL 3
REMARK VINA RESULT: -7.863039121      1.094      1.265
REMARK  3 active torsions:
REMARK  status: ('A' for Active; 'I' for Inactive)
REMARK    1  A    between atoms: C2_3  and  N2_4 
REMARK    2  A    between atoms: C8_11  and  N4_12 
REMARK       I    between atoms: N4_12  and  C9_14 
REMARK       I    between atoms: C9_14  and  N5_16 
REMARK    3  A    between atoms: N5_16  and  C10_18 
ROOT
HETATM    1  N1  UNL     1      13.510   7.882   2.431  1.00  0.00    -0.191 NA
HETATM    2  C1  UNL     1      13.711   9.013   2.603  1.00  0.00     0.105 C 
HETATM    3  C2  UNL     1      13.942  10.461   2.826  1.00  0.00     0.186 C 
ENDROOT
BRANCH   3   4
HETATM    4  N2  UNL     1      15.321  10.687   2.933  1.00  0.00    -0.338 N 
HETATM    5  C3  UNL     1      15.935  10.689   4.198  1.00  0.00     0.066 C 
HETATM    6  C4  UNL     1      16.923   9.544   4.253  1.00  0.00     0.046 C 
HETATM    7  C5  UNL     1      17.902   9.575   3.138  1.00  0.00     0.028 C 
HETATM    8  C6  UNL     1      17.556  10.394   1.952  1.00  0.00     0.136 C 
HETATM    9  C7  UNL     1      18.453  11.568   1.830  1.00  0.00     0.068 C 
HETATM   10  C8  UNL     1      16.121  10.761   1.779  1.00  0.00     0.210 C 
HETATM   11  N3  UNL     1      19.151  12.496   1.731  1.00  0.00    -0.197 NA
BRANCH  10  12
HETATM   12  N4  UNL     1      15.492   9.943   0.730  1.00  0.00    -0.320 N 
HETATM   13  C9  UNL     1      15.003  10.557  -0.449  1.00  0.00     0.318 C 
HETATM   14  O1  UNL     1      15.108  11.803  -0.594  1.00  0.00    -0.247 OA
HETATM   15  N5  UNL     1      14.387   9.833  -1.498  1.00  0.00    -0.338 N 
ATOM     16  H5  UNL     1      14.292   8.823  -1.398  1.00  0.00     0.164 HD
ATOM     17  H4  UNL     1      15.409   8.934   0.852  1.00  0.00     0.166 HD
BRANCH  15  18
HETATM   18  C10 UNL     1      13.889  10.451  -2.696  1.00  0.00     0.086 C 
HETATM   19  C11 UNL     1      12.568   9.923  -3.136  1.00  0.00     0.025 C 
HETATM   20  C12 UNL     1      12.762   9.440  -4.545  1.00  0.00     0.002 C 
HETATM   21  C13 UNL     1      14.239   9.184  -4.720  1.00  0.00     0.002 C 
HETATM   22  C14 UNL     1      14.838  10.297  -3.864  1.00  0.00     0.025 C 
ENDBRANCH  15  18
ENDBRANCH  10  12
ENDBRANCH   3   4
TORSDOF 3
ENDMDL
MODEL 4
REMARK VINA RESULT: -7.718878388      1.930      2.274
REMARK  3 active torsions:
REMARK  status: ('A' for Active; 'I' for Inactive)
REMARK    1  A    between atoms: C2_3  and  N2_4 
REMARK    2  A    between atoms: C8_11  and  N4_12 
REMARK       I    between atoms: N4_12  and  C9_14 
REMARK       I    between atoms: C9_14  and  N5_16 
REMARK    3  A    between atoms: N5_16  and  C10_18 
ROOT
HETATM    1  N1  UNL     1      16.008  13.216   3.639  1.00  0.00    -0.191 NA
HETATM    2  C1  UNL     1      16.373  12.117   3.566  1.00  0.00     0.105 C 
HETATM    3  C2  UNL     1      16.815  10.703   3.479  1.00  0.00     0.186 C 
ENDROOT
BRANCH   3   4
HETATM    4  N2  UNL     1      18.095  10.665   2.910  1.00  0.00    -0.338 N 
HETATM    5  C3  UNL     1      19.225  10.506   3.734  1.00  0.00     0.066 C 
HETATM    6  C4  UNL     1      19.895   9.198   3.379  1.00  0.00     0.046 C 
HETATM    7  C5  UNL     1      20.217   9.087   1.934  1.00  0.00     0.028 C 
HETATM    8  C6  UNL     1      19.505  10.001   1.009  1.00  0.00     0.136 C 
HETATM    9  C7  UNL     1      20.432  10.992   0.413  1.00  0.00     0.068 C 
HETATM   10  C8  UNL     1      18.253  10.634   1.512  1.00  0.00     0.210 C 
HETATM   11  N3  UNL     1      21.155  11.777  -0.055  1.00  0.00    -0.197 NA
BRANCH  10  12
HETATM   12  N4  UNL     1      17.066   9.986   0.932  1.00  0.00    -0.320 N 
HETATM   13  C9  UNL     1      16.356  10.618  -0.118  1.00  0.00     0.318 C 
HETATM   14  O1  UNL     1      16.745  11.735  -0.551  1.00  0.00    -0.247 OA
HETATM   15  N5  UNL     1      15.208  10.055  -0.724  1.00  0.00    -0.338 N 
ATOM     16  H5  UNL     1      14.877   9.150  -0.386  1.00  0.00     0.164 HD
ATOM     17  H4  UNL     1      16.755   9.081   1.286  1.00  0.00     0.166 HD
BRANCH  15  18
HETATM   18  C10 UNL     1      14.485  10.692  -1.789  1.00  0.00     0.086 C 
HETATM   19  C11 UNL     1      13.008  10.527  -1.691  1.00  0.00     0.025 C 
HETATM   20  C12 UNL     1      12.573   9.900  -2.986  1.00  0.00     0.002 C 
HETATM   21  C13 UNL     1      13.788   9.223  -3.572  1.00  0.00     0.002 C 
HETATM   22  C14 UNL     1      14.897  10.184  -3.153  1.00  0.00     0.025 C 
ENDBRANCH  15  18
ENDBRANCH  10  12
ENDBRANCH   3   4
TORSDOF 3
ENDMDL
MODEL 5
REMARK VINA RESULT: -7.579928722      3.240      7.149
REMARK  3 active torsions:
REMARK  status: ('A' for Active; 'I' for Inactive)
REMARK    1  A    between atoms: C2_3  and  N2_4 
REMARK    2  A    between atoms: C8_11  and  N4_12 
REMARK       I    between atoms: N4_12  and  C9_14 
REMARK       I    between atoms: C9_14  and  N5_16 
REMARK    3  A    between atoms: N5_16  and  C10_18 
ROOT
HETATM    1  N1  UNL     1      13.184   7.144   1.620  1.00  0.00    -0.191 NA
HETATM    2  C1  UNL     1      13.417   8.281   1.643  1.00  0.00     0.105 C 
HETATM    3  C2  UNL     1      13.689   9.739   1.680  1.00  0.00     0.186 C 
ENDROOT
BRANCH   3   4
HETATM    4  N2  UNL     1      15.073   9.942   1.604  1.00  0.00    -0.338 N 
HETATM    5  C3  UNL     1      15.680  10.178   0.357  1.00  0.00     0.066 C 
HETATM    6  C4  UNL     1      16.279  11.567   0.371  1.00  0.00     0.046 C 
HETATM    7  C5  UNL     1      17.205  11.784   1.512  1.00  0.00     0.028 C 
HETATM    8  C6  UNL     1      17.101  10.848   2.657  1.00  0.00     0.136 C 
HETATM    9  C7  UNL     1      18.307   9.992   2.763  1.00  0.00     0.068 C 
HETATM   10  C8  UNL     1      15.840  10.061   2.777  1.00  0.00     0.210 C 
HETATM   11  N3  UNL     1      19.250   9.313   2.848  1.00  0.00    -0.197 NA
BRANCH  10  12
HETATM   12  N4  UNL     1      14.978  10.607   3.836  1.00  0.00    -0.320 N 
HETATM   13  C9  UNL     1      15.046  10.079   5.148  1.00  0.00     0.318 C 
HETATM   14  O1  UNL     1      15.847   9.141   5.403  1.00  0.00    -0.247 OA
HETATM   15  N5  UNL     1      14.247  10.555   6.215  1.00  0.00    -0.338 N 
ATOM     16  H5  UNL     1      13.592  11.314   6.028  1.00  0.00     0.164 HD
ATOM     17  H4  UNL     1      14.330  11.367   3.625  1.00  0.00     0.166 HD
BRANCH  15  18
HETATM   18  C10 UNL     1      14.313  10.023   7.548  1.00  0.00     0.086 C 
HETATM   19  C11 UNL     1      13.220   9.061   7.862  1.00  0.00     0.025 C 
HETATM   20  C12 UNL     1      12.529   9.601   9.082  1.00  0.00     0.002 C 
HETATM   21  C13 UNL     1      12.839  11.076   9.142  1.00  0.00     0.002 C 
HETATM   22  C14 UNL     1      14.267  11.104   8.606  1.00  0.00     0.025 C 
ENDBRANCH  15  18
ENDBRANCH  10  12
ENDBRANCH   3   4
TORSDOF 3
ENDMDL
