MODEL 1
REMARK VINA RESULT: -9.819964554      0.000      0.000
REMARK  4 active torsions:
REMARK  status: ('A' for Active; 'I' for Inactive)
REMARK    1  A    between atoms: C2_2  and  C3_3 
REMARK    2  A    between atoms: C4_6  and  C5_7 
REMARK    3  A    between atoms: C5_7  and  N2_8 
REMARK    4  A    between atoms: N3_17  and  C14_18 
ROOT
HETATM    1  N2  UNL     1      14.906   9.563   3.054  1.00  0.00     0.095 N 
HETATM    2  C6  UNL     1      15.085   8.284   2.386  1.00  0.00     0.273 C 
HETATM    3  C7  UNL     1      14.112   8.045   1.278  1.00  0.00     0.031 C 
HETATM    4  C8  UNL     1      14.689   8.383  -0.075  1.00  0.00     0.011 C 
HETATM    5  C9  UNL     1      14.942   9.837  -0.286  1.00  0.00    -0.035 C 
HETATM    6  C10 UNL     1      15.483  10.553   0.933  1.00  0.00     0.040 C 
HETATM    7  C11 UNL     1      14.529  10.583   2.090  1.00  0.00     0.273 C 
HETATM    8  C12 UNL     1      16.004   9.972  -1.352  1.00  0.00     0.040 C 
HETATM    9  C13 UNL     1      15.500   9.596  -2.719  1.00  0.00     0.273 C 
HETATM   10  N3  UNL     1      14.321  10.326  -3.056  1.00  0.00     0.092 N 
HETATM   11  C17 UNL     1      13.266  10.291  -2.098  1.00  0.00     0.273 C 
HETATM   12  C18 UNL     1      13.647  10.497  -0.676  1.00  0.00     0.040 C 
ENDROOT
BRANCH   1  13
HETATM   13  C5  UNL     1      13.823   9.402   3.992  1.00  0.00     0.349 C 
BRANCH  13  14
HETATM   14  C4  UNL     1      14.251   9.328   5.404  1.00  0.00     0.127 A 
HETATM   15  N1  UNL     1      13.581   9.997   6.373  1.00  0.00    -0.333 N 
HETATM   16  C3  UNL     1      13.924   9.970   7.672  1.00  0.00     0.098 A 
ATOM     17  H1  UNL     1      12.771  10.553   6.100  1.00  0.00     0.168 HD
HETATM   18  N6  UNL     1      14.994   9.231   8.014  1.00  0.00    -0.181 N 
HETATM   19  C19 UNL     1      15.690   8.546   7.063  1.00  0.00     0.678 A 
ATOM     20  H6  UNL     1      15.287   9.183   8.990  1.00  0.00     0.185 HD
HETATM   21  N4  UNL     1      15.315   8.600   5.771  1.00  0.00    -0.179 N 
HETATM   22  N5  UNL     1      16.721   7.827   7.348  1.00  0.00    -0.234 N 
ATOM     23  H4  UNL     1      15.843   8.083   5.067  1.00  0.00     0.185 HD
ATOM     24  H52 UNL     1      17.241   7.314   6.636  1.00  0.00     0.174 HD
ATOM     25  H51 UNL     1      17.004   7.787   8.326  1.00  0.00     0.174 HD
BRANCH  16  26
HETATM   26  C2  UNL     1      13.163  10.718   8.713  1.00  0.00     0.072 C 
HETATM   27  C1  UNL     1      14.115  11.095   9.813  1.00  0.00     0.013 C 
ENDBRANCH  16  26
ENDBRANCH  13  14
ENDBRANCH   1  13
BRANCH  10  28
HETATM   28  C14 UNL     1      13.769   9.868  -4.323  1.00  0.00     0.215 C 
HETATM   29  C15 UNL     1      13.268   8.452  -4.247  1.00  0.00     0.042 C 
HETATM   30  C16 UNL     1      14.758   9.984  -5.442  1.00  0.00     0.042 C 
ENDBRANCH  10  28
TORSDOF 4
ENDMDL
MODEL 2
REMARK VINA RESULT: -8.727044994      1.258      2.003
REMARK  4 active torsions:
REMARK  status: ('A' for Active; 'I' for Inactive)
REMARK    1  A    between atoms: C2_2  and  C3_3 
REMARK    2  A    between atoms: C4_6  and  C5_7 
REMARK    3  A    between atoms: C5_7  and  N2_8 
REMARK    4  A    between atoms: N3_17  and  C14_18 
ROOT
HETATM    1  N2  UNL     1      14.715  10.597   3.782  1.00  0.00     0.095 N 
HETATM    2  C6  UNL     1      15.639  11.372   2.969  1.00  0.00     0.273 C 
HETATM    3  C7  UNL     1      16.249  10.594   1.849  1.00  0.00     0.031 C 
HETATM    4  C8  UNL     1      15.533  10.818   0.539  1.00  0.00     0.011 C 
HETATM    5  C9  UNL     1      14.151  10.261   0.495  1.00  0.00    -0.035 C 
HETATM    6  C10 UNL     1      13.375  10.429   1.785  1.00  0.00     0.040 C 
HETATM    7  C11 UNL     1      13.961   9.680   2.944  1.00  0.00     0.273 C 
HETATM    8  C12 UNL     1      13.378  11.022  -0.556  1.00  0.00     0.040 C 
HETATM    9  C13 UNL     1      13.832  10.698  -1.954  1.00  0.00     0.273 C 
HETATM   10  N3  UNL     1      13.804   9.292  -2.195  1.00  0.00     0.092 N 
HETATM   11  C17 UNL     1      14.479   8.477  -1.239  1.00  0.00     0.273 C 
HETATM   12  C18 UNL     1      14.237   8.789   0.194  1.00  0.00     0.040 C 
ENDROOT
BRANCH   1  13
HETATM   13  C5  UNL     1      15.509   9.823   4.703  1.00  0.00     0.349 C 
BRANCH  13  14
HETATM   14  C4  UNL     1      14.783   9.399   5.918  1.00  0.00     0.127 A 
HETATM   15  N1  UNL     1      14.308  10.309   6.802  1.00  0.00    -0.333 N 
HETATM   16  C3  UNL     1      13.644   9.986   7.924  1.00  0.00     0.098 A 
ATOM     17  H1  UNL     1      14.465  11.298   6.604  1.00  0.00     0.168 HD
HETATM   18  N6  UNL     1      13.445   8.678   8.169  1.00  0.00    -0.181 N 
HETATM   19  C19 UNL     1      13.910   7.737   7.300  1.00  0.00     0.678 A 
ATOM     20  H6  UNL     1      12.944   8.390   9.009  1.00  0.00     0.185 HD
HETATM   21  N4  UNL     1      14.573   8.102   6.186  1.00  0.00    -0.179 N 
HETATM   22  N5  UNL     1      13.742   6.475   7.497  1.00  0.00    -0.234 N 
ATOM     23  H4  UNL     1      14.917   7.389   5.543  1.00  0.00     0.185 HD
ATOM     24  H52 UNL     1      14.090   5.770   6.846  1.00  0.00     0.174 HD
ATOM     25  H51 UNL     1      13.240   6.198   8.341  1.00  0.00     0.174 HD
BRANCH  16  26
HETATM   26  C2  UNL     1      13.134  11.015   8.874  1.00  0.00     0.072 C 
HETATM   27  C1  UNL     1      14.092  11.105  10.029  1.00  0.00     0.013 C 
ENDBRANCH  16  26
ENDBRANCH  13  14
ENDBRANCH   1  13
BRANCH  10  28
HETATM   28  C14 UNL     1      14.363   8.977  -3.502  1.00  0.00     0.215 C 
HETATM   29  C15 UNL     1      15.108  10.139  -4.098  1.00  0.00     0.042 C 
HETATM   30  C16 UNL     1      13.313   8.514  -4.466  1.00  0.00     0.042 C 
ENDBRANCH  10  28
TORSDOF 4
ENDMDL
MODEL 3
REMARK VINA RESULT: -8.583234178      1.446      9.091
REMARK  4 active torsions:
REMARK  status: ('A' for Active; 'I' for Inactive)
REMARK    1  A    between atoms: C2_2  and  C3_3 
REMARK    2  A    between atoms: C4_6  and  C5_7 
REMARK    3  A    between atoms: C5_7  and  N2_8 
REMARK    4  A    between atoms: N3_17  and  C14_18 
ROOT
HETATM    1  N2  UNL     1      14.842   9.873   1.698  1.00  0.00     0.095 N 
HETATM    2  C6  UNL     1      15.297  11.021   2.466  1.00  0.00     0.273 C 
HETATM    3  C7  UNL     1      14.452  11.315   3.662  1.00  0.00     0.031 C 
HETATM    4  C8  UNL     1      15.033  10.738   4.930  1.00  0.00     0.011 C 
HETATM    5  C9  UNL     1      15.020   9.249   4.986  1.00  0.00    -0.035 C 
HETATM    6  C10 UNL     1      15.345   8.578   3.668  1.00  0.00     0.040 C 
HETATM    7  C11 UNL     1      14.337   8.843   2.590  1.00  0.00     0.273 C 
HETATM    8  C12 UNL     1      16.098   8.812   5.951  1.00  0.00     0.040 C 
HETATM    9  C13 UNL     1      15.754   9.128   7.381  1.00  0.00     0.273 C 
HETATM   10  N3  UNL     1      14.480   8.592   7.738  1.00  0.00     0.092 N 
HETATM   11  C17 UNL     1      13.397   8.918   6.871  1.00  0.00     0.273 C 
HETATM   12  C18 UNL     1      13.650   8.796   5.412  1.00  0.00     0.040 C 
ENDROOT
BRANCH   1  13
HETATM   13  C5  UNL     1      13.756  10.325   0.865  1.00  0.00     0.349 C 
BRANCH  13  14
HETATM   14  C4  UNL     1      13.993  10.154  -0.584  1.00  0.00     0.127 A 
HETATM   15  N1  UNL     1      12.964   9.943  -1.439  1.00  0.00    -0.333 N 
HETATM   16  C3  UNL     1      13.117   9.778  -2.764  1.00  0.00     0.098 A 
ATOM     17  H1  UNL     1      12.020   9.907  -1.056  1.00  0.00     0.168 HD
HETATM   18  N6  UNL     1      14.369   9.829  -3.254  1.00  0.00    -0.181 N 
HETATM   19  C19 UNL     1      15.425  10.039  -2.419  1.00  0.00     0.678 A 
ATOM     20  H6  UNL     1      14.527   9.710  -4.254  1.00  0.00     0.185 HD
HETATM   21  N4  UNL     1      15.231  10.199  -1.096  1.00  0.00    -0.179 N 
HETATM   22  N5  UNL     1      16.640  10.094  -2.846  1.00  0.00    -0.234 N 
ATOM     23  H4  UNL     1      16.029  10.355  -0.481  1.00  0.00     0.185 HD
ATOM     24  H52 UNL     1      17.431  10.251  -2.221  1.00  0.00     0.174 HD
ATOM     25  H51 UNL     1      16.787   9.973  -3.848  1.00  0.00     0.174 HD
BRANCH  16  26
HETATM   26  C2  UNL     1      11.961   9.550  -3.678  1.00  0.00     0.072 C 
HETATM   27  C1  UNL     1      12.481   9.473  -5.086  1.00  0.00     0.013 C 
ENDBRANCH  16  26
ENDBRANCH  13  14
ENDBRANCH   1  13
BRANCH  10  28
HETATM   28  C14 UNL     1      14.099   9.008   9.081  1.00  0.00     0.215 C 
HETATM   29  C15 UNL     1      12.636   9.341   9.180  1.00  0.00     0.042 C 
HETATM   30  C16 UNL     1      14.906  10.176   9.558  1.00  0.00     0.042 C 
ENDBRANCH  10  28
TORSDOF 4
ENDMDL
MODEL 4
REMARK VINA RESULT: -8.578164665      4.891      9.238
REMARK  4 active torsions:
REMARK  status: ('A' for Active; 'I' for Inactive)
REMARK    1  A    between atoms: C2_2  and  C3_3 
REMARK    2  A    between atoms: C4_6  and  C5_7 
REMARK    3  A    between atoms: C5_7  and  N2_8 
REMARK    4  A    between atoms: N3_17  and  C14_18 
ROOT
HETATM    1  N2  UNL     1      16.554  10.703  -0.878  1.00  0.00     0.095 N 
HETATM    2  C6  UNL     1      16.463  11.171   0.497  1.00  0.00     0.273 C 
HETATM    3  C7  UNL     1      17.148  10.277   1.479  1.00  0.00     0.031 C 
HETATM    4  C8  UNL     1      18.534  10.762   1.826  1.00  0.00     0.011 C 
HETATM    5  C9  UNL     1      19.510  10.676   0.702  1.00  0.00    -0.035 C 
HETATM    6  C10 UNL     1      18.931  11.038  -0.649  1.00  0.00     0.040 C 
HETATM    7  C11 UNL     1      17.856  10.103  -1.116  1.00  0.00     0.273 C 
HETATM    8  C12 UNL     1      20.610  11.678   0.965  1.00  0.00     0.040 C 
HETATM    9  C13 UNL     1      21.497  11.273   2.110  1.00  0.00     0.273 C 
HETATM   10  N3  UNL     1      22.019   9.959   1.922  1.00  0.00     0.092 N 
HETATM   11  C17 UNL     1      21.064   8.940   1.635  1.00  0.00     0.273 C 
HETATM   12  C18 UNL     1      20.026   9.264   0.622  1.00  0.00     0.040 C 
ENDROOT
BRANCH   1  13
HETATM   13  C5  UNL     1      15.547   9.686  -1.046  1.00  0.00     0.349 C 
BRANCH  13  14
HETATM   14  C4  UNL     1      14.914   9.677  -2.381  1.00  0.00     0.127 A 
HETATM   15  N1  UNL     1      13.572   9.551  -2.517  1.00  0.00    -0.333 N 
HETATM   16  C3  UNL     1      12.940   9.534  -3.702  1.00  0.00     0.098 A 
ATOM     17  H1  UNL     1      13.010   9.464  -1.670  1.00  0.00     0.168 HD
HETATM   18  N6  UNL     1      13.696   9.650  -4.808  1.00  0.00    -0.181 N 
HETATM   19  C19 UNL     1      15.049   9.778  -4.706  1.00  0.00     0.678 A 
ATOM     20  H6  UNL     1      13.255   9.642  -5.728  1.00  0.00     0.185 HD
HETATM   21  N4  UNL     1      15.646   9.790  -3.499  1.00  0.00    -0.179 N 
HETATM   22  N5  UNL     1      15.810   9.891  -5.739  1.00  0.00    -0.234 N 
ATOM     23  H4  UNL     1      16.659   9.886  -3.434  1.00  0.00     0.185 HD
ATOM     24  H52 UNL     1      16.823   9.987  -5.663  1.00  0.00     0.174 HD
ATOM     25  H51 UNL     1      15.358   9.882  -6.654  1.00  0.00     0.174 HD
BRANCH  16  26
HETATM   26  C2  UNL     1      11.460   9.395  -3.815  1.00  0.00     0.072 C 
HETATM   27  C1  UNL     1      11.081   9.547  -5.261  1.00  0.00     0.013 C 
ENDBRANCH  16  26
ENDBRANCH  13  14
ENDBRANCH   1  13
BRANCH  10  28
HETATM   28  C14 UNL     1      22.773   9.526   3.090  1.00  0.00     0.215 C 
HETATM   29  C15 UNL     1      23.327   8.137   2.929  1.00  0.00     0.042 C 
HETATM   30  C16 UNL     1      21.955   9.591   4.344  1.00  0.00     0.042 C 
ENDBRANCH  10  28
TORSDOF 4
ENDMDL
MODEL 5
REMARK VINA RESULT: -8.359182502      1.190      2.246
REMARK  4 active torsions:
REMARK  status: ('A' for Active; 'I' for Inactive)
REMARK    1  A    between atoms: C2_2  and  C3_3 
REMARK    2  A    between atoms: C4_6  and  C5_7 
REMARK    3  A    between atoms: C5_7  and  N2_8 
REMARK    4  A    between atoms: N3_17  and  C14_18 
ROOT
HETATM    1  N2  UNL     1      14.555   9.626   2.625  1.00  0.00     0.095 N 
HETATM    2  C6  UNL     1      14.945   8.372   2.001  1.00  0.00     0.273 C 
HETATM    3  C7  UNL     1      13.981   7.893   0.965  1.00  0.00     0.031 C 
HETATM    4  C8  UNL     1      14.411   8.263  -0.434  1.00  0.00     0.011 C 
HETATM    5  C9  UNL     1      14.366   9.725  -0.720  1.00  0.00    -0.035 C 
HETATM    6  C10 UNL     1      14.819  10.596   0.433  1.00  0.00     0.040 C 
HETATM    7  C11 UNL     1      13.938  10.503   1.643  1.00  0.00     0.273 C 
HETATM    8  C12 UNL     1      15.325  10.006  -1.853  1.00  0.00     0.040 C 
HETATM    9  C13 UNL     1      14.834   9.469  -3.170  1.00  0.00     0.273 C 
HETATM   10  N3  UNL     1      13.520   9.940  -3.465  1.00  0.00     0.092 N 
HETATM   11  C17 UNL     1      12.542   9.754  -2.444  1.00  0.00     0.273 C 
HETATM   12  C18 UNL     1      12.949  10.104  -1.059  1.00  0.00     0.040 C 
ENDROOT
BRANCH   1  13
HETATM   13  C5  UNL     1      13.573   9.311   3.632  1.00  0.00     0.349 C 
BRANCH  13  14
HETATM   14  C4  UNL     1      14.128   9.174   4.995  1.00  0.00     0.127 A 
HETATM   15  N1  UNL     1      15.459   9.030   5.196  1.00  0.00    -0.333 N 
HETATM   16  C3  UNL     1      16.022   8.899   6.409  1.00  0.00     0.098 A 
ATOM     17  H1  UNL     1      16.070   9.019   4.379  1.00  0.00     0.168 HD
HETATM   18  N6  UNL     1      15.202   8.917   7.476  1.00  0.00    -0.181 N 
HETATM   19  C19 UNL     1      13.857   9.060   7.307  1.00  0.00     0.678 A 
ATOM     20  H6  UNL     1      15.589   8.821   8.414  1.00  0.00     0.185 HD
HETATM   21  N4  UNL     1      13.332   9.187   6.074  1.00  0.00    -0.179 N 
HETATM   22  N5  UNL     1      13.037   9.081   8.301  1.00  0.00    -0.234 N 
ATOM     23  H4  UNL     1      12.325   9.293   5.960  1.00  0.00     0.185 HD
ATOM     24  H52 UNL     1      12.031   9.189   8.175  1.00  0.00     0.174 HD
ATOM     25  H51 UNL     1      13.435   8.985   9.235  1.00  0.00     0.174 HD
BRANCH  16  26
HETATM   26  C2  UNL     1      17.493   8.743   6.594  1.00  0.00     0.072 C 
HETATM   27  C1  UNL     1      18.166   9.042   5.284  1.00  0.00     0.013 C 
ENDBRANCH  16  26
ENDBRANCH  13  14
ENDBRANCH   1  13
BRANCH  10  28
HETATM   28  C14 UNL     1      13.003   9.318  -4.676  1.00  0.00     0.215 C 
HETATM   29  C15 UNL     1      11.539   9.596  -4.880  1.00  0.00     0.042 C 
HETATM   30  C16 UNL     1      13.233   7.838  -4.690  1.00  0.00     0.042 C 
ENDBRANCH  10  28
TORSDOF 4
ENDMDL
