MODEL 1
REMARK VINA RESULT: -8.734384274      0.000      0.000
REMARK  8 active torsions:
REMARK  status: ('A' for Active; 'I' for Inactive)
REMARK    1  A    between atoms: C2_3  and  N1_4 
REMARK    2  A    between atoms: N1_4  and  C3_6 
REMARK    3  A    between atoms: C3_6  and  C4_7 
REMARK    4  A    between atoms: C4_7  and  O2_8 
REMARK    5  A    between atoms: C5_10  and  N2_11 
REMARK    6  A    between atoms: N3_18  and  N4_19 
REMARK    7  A    between atoms: N4_19  and  O3_20 
REMARK    8  A    between atoms: N5_22  and  C12_24 
ROOT
HETATM    1  N2  UNL     1      17.947  10.733   1.514  1.00  0.00    -0.374 N 
HETATM    2  C6  UNL     1      17.342  11.289   0.326  1.00  0.00     0.123 C 
HETATM    3  C7  UNL     1      16.796  10.264  -0.619  1.00  0.00     0.020 C 
HETATM    4  C8  UNL     1      15.318  10.500  -0.849  1.00  0.00     0.002 C 
HETATM    5  C9  UNL     1      14.550   9.345  -0.228  1.00  0.00     0.002 C 
HETATM    6  C10 UNL     1      13.939   9.765   1.097  1.00  0.00     0.021 C 
HETATM    7  C11 UNL     1      14.208   8.737   2.176  1.00  0.00     0.147 C 
HETATM    8  N3  UNL     1      15.205   9.205   3.117  1.00  0.00    -0.285 N 
HETATM    9  C18 UNL     1      16.627   9.144   2.844  1.00  0.00     0.166 C 
HETATM   10  C19 UNL     1      17.147  10.555   2.697  1.00  0.00     0.144 C 
ENDROOT
BRANCH   1  11
HETATM   11  C5  UNL     1      19.311  10.383   1.468  1.00  0.00     0.116 A 
HETATM   12  C2  UNL     1      20.170   9.437   2.023  1.00  0.00     0.114 A 
HETATM   13  C1  UNL     1      21.255   9.950   1.350  1.00  0.00     0.252 A 
HETATM   14  O1  UNL     1      22.483   9.727   1.233  1.00  0.00    -0.281 OA
HETATM   15  C20 UNL     1      20.442  10.880   0.797  1.00  0.00     0.252 A 
HETATM   16  O4  UNL     1      20.591  11.834  -0.007  1.00  0.00    -0.281 OA
BRANCH  12  17
HETATM   17  N1  UNL     1      20.024   8.364   2.937  1.00  0.00    -0.383 N 
ATOM     18  H1  UNL     1      19.820   7.443   2.548  1.00  0.00     0.160 HD
BRANCH  17  19
HETATM   19  C3  UNL     1      20.139   8.466   4.372  1.00  0.00     0.146 C 
BRANCH  19  20
HETATM   20  C4  UNL     1      19.723   7.199   5.047  1.00  0.00     0.183 C 
BRANCH  20  21
HETATM   21  O2  UNL     1      18.926   6.443   4.171  1.00  0.00    -0.399 OA
ATOM     22  H2  UNL     1      19.485   5.914   3.613  1.00  0.00     0.209 HD
ENDBRANCH  20  21
ENDBRANCH  19  20
ENDBRANCH  17  19
ENDBRANCH  12  17
ENDBRANCH   1  11
BRANCH   8  23
HETATM   23  N4  UNL     1      14.755   9.733   4.328  1.00  0.00    -0.101 N 
HETATM   24  N5  UNL     1      15.046   9.083   5.372  1.00  0.00    -0.290 N 
ATOM     25  H5  UNL     1      15.585   8.224   5.252  1.00  0.00     0.184 HD
BRANCH  23  26
HETATM   26  O3  UNL     1      14.043  10.886   4.391  1.00  0.00    -0.254 OA
ATOM     27  H3  UNL     1      13.098  10.890   4.496  1.00  0.00     0.248 HD
ENDBRANCH  23  26
BRANCH  24  28
HETATM   28  C12 UNL     1      14.686   9.446   6.707  1.00  0.00     0.103 C 
HETATM   29  C13 UNL     1      13.287   8.902   6.966  1.00  0.00     0.027 C 
HETATM   30  C14 UNL     1      12.867   9.050   8.390  1.00  0.00     0.002 C 
HETATM   31  C15 UNL     1      14.004   9.622   9.221  1.00  0.00     0.000 C 
HETATM   32  C16 UNL     1      15.188   8.700   9.052  1.00  0.00     0.002 C 
HETATM   33  C17 UNL     1      15.696   8.790   7.639  1.00  0.00     0.027 C 
ENDBRANCH  24  28
ENDBRANCH   8  23
TORSDOF 8
ENDMDL
MODEL 2
REMARK VINA RESULT: -8.525175160      2.261      6.384
REMARK  8 active torsions:
REMARK  status: ('A' for Active; 'I' for Inactive)
REMARK    1  A    between atoms: C2_3  and  N1_4 
REMARK    2  A    between atoms: N1_4  and  C3_6 
REMARK    3  A    between atoms: C3_6  and  C4_7 
REMARK    4  A    between atoms: C4_7  and  O2_8 
REMARK    5  A    between atoms: C5_10  and  N2_11 
REMARK    6  A    between atoms: N3_18  and  N4_19 
REMARK    7  A    between atoms: N4_19  and  O3_20 
REMARK    8  A    between atoms: N5_22  and  C12_24 
ROOT
HETATM    1  N2  UNL     1      18.035   9.123   3.454  1.00  0.00    -0.374 N 
HETATM    2  C6  UNL     1      17.606   8.566   4.716  1.00  0.00     0.123 C 
HETATM    3  C7  UNL     1      17.036   9.571   5.666  1.00  0.00     0.020 C 
HETATM    4  C8  UNL     1      15.619   9.189   6.044  1.00  0.00     0.002 C 
HETATM    5  C9  UNL     1      14.674  10.221   5.452  1.00  0.00     0.002 C 
HETATM    6  C10 UNL     1      13.998   9.672   4.209  1.00  0.00     0.021 C 
HETATM    7  C11 UNL     1      14.052  10.668   3.069  1.00  0.00     0.147 C 
HETATM    8  N3  UNL     1      15.007  10.263   2.058  1.00  0.00    -0.285 N 
HETATM    9  C18 UNL     1      16.432  10.491   2.193  1.00  0.00     0.166 C 
HETATM   10  C19 UNL     1      17.119   9.154   2.346  1.00  0.00     0.144 C 
ENDROOT
BRANCH   1  11
HETATM   11  C5  UNL     1      19.351   9.620   3.357  1.00  0.00     0.116 A 
HETATM   12  C2  UNL     1      20.068  10.546   2.603  1.00  0.00     0.114 A 
HETATM   13  C1  UNL     1      21.234  10.273   3.281  1.00  0.00     0.252 A 
HETATM   14  O1  UNL     1      22.431  10.644   3.282  1.00  0.00    -0.281 OA
HETATM   15  C20 UNL     1      20.560   9.368   4.028  1.00  0.00     0.252 A 
HETATM   16  O4  UNL     1      20.855   8.585   4.964  1.00  0.00    -0.281 OA
BRANCH  12  17
HETATM   17  N1  UNL     1      19.758  11.428   1.538  1.00  0.00    -0.383 N 
ATOM     18  H1  UNL     1      19.518  12.389   1.781  1.00  0.00     0.160 HD
BRANCH  17  19
HETATM   19  C3  UNL     1      19.752  11.078   0.138  1.00  0.00     0.146 C 
BRANCH  19  20
HETATM   20  C4  UNL     1      18.504  11.546  -0.539  1.00  0.00     0.183 C 
BRANCH  20  21
HETATM   21  O2  UNL     1      18.261  12.886  -0.196  1.00  0.00    -0.399 OA
ATOM     22  H2  UNL     1      17.330  13.013  -0.058  1.00  0.00     0.209 HD
ENDBRANCH  20  21
ENDBRANCH  19  20
ENDBRANCH  17  19
ENDBRANCH  12  17
ENDBRANCH   1  11
BRANCH   8  23
HETATM   23  N4  UNL     1      14.513   9.629   0.917  1.00  0.00    -0.101 N 
HETATM   24  N5  UNL     1      14.896  10.089  -0.197  1.00  0.00    -0.290 N 
ATOM     25  H5  UNL     1      15.534  10.885  -0.178  1.00  0.00     0.184 HD
BRANCH  23  26
HETATM   26  O3  UNL     1      13.665   8.573   0.990  1.00  0.00    -0.254 OA
ATOM     27  H3  UNL     1      12.797   8.595   0.604  1.00  0.00     0.248 HD
ENDBRANCH  23  26
BRANCH  24  28
HETATM   28  C12 UNL     1      14.513   9.589  -1.480  1.00  0.00     0.103 C 
HETATM   29  C13 UNL     1      13.344  10.435  -1.968  1.00  0.00     0.027 C 
HETATM   30  C14 UNL     1      12.969  10.137  -3.381  1.00  0.00     0.002 C 
HETATM   31  C15 UNL     1      13.933   9.128  -3.983  1.00  0.00     0.000 C 
HETATM   32  C16 UNL     1      15.322   9.706  -3.855  1.00  0.00     0.002 C 
HETATM   33  C17 UNL     1      15.713   9.753  -2.403  1.00  0.00     0.027 C 
ENDBRANCH  24  28
ENDBRANCH   8  23
TORSDOF 8
ENDMDL
MODEL 3
REMARK VINA RESULT: -8.453207549      2.362      3.807
REMARK  8 active torsions:
REMARK  status: ('A' for Active; 'I' for Inactive)
REMARK    1  A    between atoms: C2_3  and  N1_4 
REMARK    2  A    between atoms: N1_4  and  C3_6 
REMARK    3  A    between atoms: C3_6  and  C4_7 
REMARK    4  A    between atoms: C4_7  and  O2_8 
REMARK    5  A    between atoms: C5_10  and  N2_11 
REMARK    6  A    between atoms: N3_18  and  N4_19 
REMARK    7  A    between atoms: N4_19  and  O3_20 
REMARK    8  A    between atoms: N5_22  and  C12_24 
ROOT
HETATM    1  N2  UNL     1      20.377   8.637   4.144  1.00  0.00    -0.374 N 
HETATM    2  C6  UNL     1      21.000   9.649   3.323  1.00  0.00     0.123 C 
HETATM    3  C7  UNL     1      20.707   9.516   1.862  1.00  0.00     0.020 C 
HETATM    4  C8  UNL     1      20.053  10.780   1.342  1.00  0.00     0.002 C 
HETATM    5  C9  UNL     1      18.618  10.453   0.966  1.00  0.00     0.002 C 
HETATM    6  C10 UNL     1      17.661  10.949   2.035  1.00  0.00     0.021 C 
HETATM    7  C11 UNL     1      16.655   9.881   2.411  1.00  0.00     0.147 C 
HETATM    8  N3  UNL     1      16.946   9.316   3.712  1.00  0.00    -0.285 N 
HETATM    9  C18 UNL     1      17.955   8.295   3.914  1.00  0.00     0.166 C 
HETATM   10  C19 UNL     1      19.084   8.892   4.722  1.00  0.00     0.144 C 
ENDROOT
BRANCH   1  11
HETATM   11  C5  UNL     1      21.067   7.426   4.350  1.00  0.00     0.116 A 
HETATM   12  C2  UNL     1      20.800   6.059   4.383  1.00  0.00     0.114 A 
HETATM   13  C1  UNL     1      22.114   5.755   4.652  1.00  0.00     0.252 A 
HETATM   14  O1  UNL     1      22.825   4.741   4.848  1.00  0.00    -0.281 OA
HETATM   15  C20 UNL     1      22.401   7.077   4.625  1.00  0.00     0.252 A 
HETATM   16  O4  UNL     1      23.437   7.770   4.779  1.00  0.00    -0.281 OA
BRANCH  12  17
HETATM   17  N1  UNL     1      19.640   5.260   4.224  1.00  0.00    -0.383 N 
ATOM     18  H1  UNL     1      18.775   5.737   3.969  1.00  0.00     0.160 HD
BRANCH  17  19
HETATM   19  C3  UNL     1      19.581   3.828   4.393  1.00  0.00     0.146 C 
BRANCH  19  20
HETATM   20  C4  UNL     1      20.081   3.112   3.179  1.00  0.00     0.183 C 
BRANCH  20  21
HETATM   21  O2  UNL     1      19.155   2.123   2.807  1.00  0.00    -0.399 OA
ATOM     22  H2  UNL     1      19.586   1.476   2.262  1.00  0.00     0.209 HD
ENDBRANCH  20  21
ENDBRANCH  19  20
ENDBRANCH  17  19
ENDBRANCH  12  17
ENDBRANCH   1  11
BRANCH   8  23
HETATM   23  N4  UNL     1      16.212   9.787   4.802  1.00  0.00    -0.101 N 
HETATM   24  N5  UNL     1      15.866   8.931   5.665  1.00  0.00    -0.290 N 
ATOM     25  H5  UNL     1      16.147   7.964   5.502  1.00  0.00     0.184 HD
BRANCH  23  26
HETATM   26  O3  UNL     1      15.882  11.097   4.936  1.00  0.00    -0.254 OA
ATOM     27  H3  UNL     1      16.396  11.694   5.468  1.00  0.00     0.248 HD
ENDBRANCH  23  26
BRANCH  24  28
HETATM   28  C12 UNL     1      15.115   9.201   6.852  1.00  0.00     0.103 C 
HETATM   29  C13 UNL     1      13.677   8.773   6.588  1.00  0.00     0.027 C 
HETATM   30  C14 UNL     1      12.827   8.828   7.813  1.00  0.00     0.002 C 
HETATM   31  C15 UNL     1      13.666   9.206   9.023  1.00  0.00     0.000 C 
HETATM   32  C16 UNL     1      14.781   8.194   9.128  1.00  0.00     0.002 C 
HETATM   33  C17 UNL     1      15.725   8.366   7.969  1.00  0.00     0.027 C 
ENDBRANCH  24  28
ENDBRANCH   8  23
TORSDOF 8
ENDMDL
MODEL 4
REMARK VINA RESULT: -8.444175897      1.110      1.167
REMARK  8 active torsions:
REMARK  status: ('A' for Active; 'I' for Inactive)
REMARK    1  A    between atoms: C2_3  and  N1_4 
REMARK    2  A    between atoms: N1_4  and  C3_6 
REMARK    3  A    between atoms: C3_6  and  C4_7 
REMARK    4  A    between atoms: C4_7  and  O2_8 
REMARK    5  A    between atoms: C5_10  and  N2_11 
REMARK    6  A    between atoms: N3_18  and  N4_19 
REMARK    7  A    between atoms: N4_19  and  O3_20 
REMARK    8  A    between atoms: N5_22  and  C12_24 
ROOT
HETATM    1  N2  UNL     1      18.709  10.718   2.394  1.00  0.00    -0.374 N 
HETATM    2  C6  UNL     1      18.400  11.411   1.165  1.00  0.00     0.123 C 
HETATM    3  C7  UNL     1      18.006  10.509   0.037  1.00  0.00     0.020 C 
HETATM    4  C8  UNL     1      16.625  10.875  -0.467  1.00  0.00     0.002 C 
HETATM    5  C9  UNL     1      15.678   9.737  -0.126  1.00  0.00     0.002 C 
HETATM    6  C10 UNL     1      14.828  10.096   1.080  1.00  0.00     0.021 C 
HETATM    7  C11 UNL     1      14.804   8.968   2.091  1.00  0.00     0.147 C 
HETATM    8  N3  UNL     1      15.608   9.282   3.254  1.00  0.00    -0.285 N 
HETATM    9  C18 UNL     1      17.050   9.134   3.272  1.00  0.00     0.166 C 
HETATM   10  C19 UNL     1      17.671  10.508   3.367  1.00  0.00     0.144 C 
ENDROOT
BRANCH   1  11
HETATM   11  C5  UNL     1      20.030  10.269   2.594  1.00  0.00     0.116 A 
HETATM   12  C2  UNL     1      20.698   9.096   2.940  1.00  0.00     0.114 A 
HETATM   13  C1  UNL     1      21.926   9.710   2.860  1.00  0.00     0.252 A 
HETATM   14  O1  UNL     1      23.136   9.418   3.011  1.00  0.00    -0.281 OA
HETATM   15  C20 UNL     1      21.302  10.862   2.522  1.00  0.00     0.252 A 
HETATM   16  O4  UNL     1      21.671  12.030   2.244  1.00  0.00    -0.281 OA
BRANCH  12  17
HETATM   17  N1  UNL     1      20.300   7.776   3.268  1.00  0.00    -0.383 N 
ATOM     18  H1  UNL     1      19.808   7.243   2.550  1.00  0.00     0.160 HD
BRANCH  17  19
HETATM   19  C3  UNL     1      20.535   7.122   4.533  1.00  0.00     0.146 C 
BRANCH  19  20
HETATM   20  C4  UNL     1      19.560   7.575   5.573  1.00  0.00     0.183 C 
BRANCH  20  21
HETATM   21  O2  UNL     1      19.271   6.506   6.438  1.00  0.00    -0.399 OA
ATOM     22  H2  UNL     1      18.330   6.430   6.541  1.00  0.00     0.209 HD
ENDBRANCH  20  21
ENDBRANCH  19  20
ENDBRANCH  17  19
ENDBRANCH  12  17
ENDBRANCH   1  11
BRANCH   8  23
HETATM   23  N4  UNL     1      14.946   9.745   4.393  1.00  0.00    -0.101 N 
HETATM   24  N5  UNL     1      15.180   9.132   5.473  1.00  0.00    -0.290 N 
ATOM     25  H5  UNL     1      15.832   8.348   5.432  1.00  0.00     0.184 HD
BRANCH  23  26
HETATM   26  O3  UNL     1      14.093  10.800   4.351  1.00  0.00    -0.254 OA
ATOM     27  H3  UNL     1      14.334  11.657   4.685  1.00  0.00     0.248 HD
ENDBRANCH  23  26
BRANCH  24  28
HETATM   28  C12 UNL     1      14.611   9.442   6.747  1.00  0.00     0.103 C 
HETATM   29  C13 UNL     1      13.289   8.693   6.850  1.00  0.00     0.027 C 
HETATM   30  C14 UNL     1      12.682   8.782   8.211  1.00  0.00     0.002 C 
HETATM   31  C15 UNL     1      13.612   9.524   9.157  1.00  0.00     0.000 C 
HETATM   32  C16 UNL     1      14.932   8.791   9.151  1.00  0.00     0.002 C 
HETATM   33  C17 UNL     1      15.588   8.951   7.807  1.00  0.00     0.027 C 
ENDBRANCH  24  28
ENDBRANCH   8  23
TORSDOF 8
ENDMDL
MODEL 5
REMARK VINA RESULT: -8.364478388      3.459      6.254
REMARK  8 active torsions:
REMARK  status: ('A' for Active; 'I' for Inactive)
REMARK    1  A    between atoms: C2_3  and  N1_4 
REMARK    2  A    between atoms: N1_4  and  C3_6 
REMARK    3  A    between atoms: C3_6  and  C4_7 
REMARK    4  A    between atoms: C4_7  and  O2_8 
REMARK    5  A    between atoms: C5_10  and  N2_11 
REMARK    6  A    between atoms: N3_18  and  N4_19 
REMARK    7  A    between atoms: N4_19  and  O3_20 
REMARK    8  A    between atoms: N5_22  and  C12_24 
ROOT
HETATM    1  N2  UNL     1      20.379   9.036   2.335  1.00  0.00    -0.374 N 
HETATM    2  C6  UNL     1      19.679   8.364   3.405  1.00  0.00     0.123 C 
HETATM    3  C7  UNL     1      19.474   9.206   4.626  1.00  0.00     0.020 C 
HETATM    4  C8  UNL     1      17.997   9.316   4.943  1.00  0.00     0.002 C 
HETATM    5  C9  UNL     1      17.567  10.754   4.709  1.00  0.00     0.002 C 
HETATM    6  C10 UNL     1      16.821  10.880   3.392  1.00  0.00     0.021 C 
HETATM    7  C11 UNL     1      17.335  12.050   2.579  1.00  0.00     0.147 C 
HETATM    8  N3  UNL     1      18.131  11.602   1.454  1.00  0.00    -0.285 N 
HETATM    9  C18 UNL     1      19.520  11.211   1.584  1.00  0.00     0.166 C 
HETATM   10  C19 UNL     1      19.626   9.727   1.323  1.00  0.00     0.144 C 
ENDROOT
BRANCH   1  11
HETATM   11  C5  UNL     1      21.787   8.988   2.325  1.00  0.00     0.116 A 
HETATM   12  C2  UNL     1      22.858   9.459   3.082  1.00  0.00     0.114 A 
HETATM   13  C1  UNL     1      23.777   8.875   2.241  1.00  0.00     0.252 A 
HETATM   14  O1  UNL     1      25.022   8.768   2.135  1.00  0.00    -0.281 OA
HETATM   15  C20 UNL     1      22.755   8.406   1.488  1.00  0.00     0.252 A 
HETATM   16  O4  UNL     1      22.658   7.716   0.443  1.00  0.00    -0.281 OA
BRANCH  12  17
HETATM   17  N1  UNL     1      22.988  10.246   4.254  1.00  0.00    -0.383 N 
ATOM     18  H1  UNL     1      22.651  11.207   4.212  1.00  0.00     0.160 HD
BRANCH  17  19
HETATM   19  C3  UNL     1      23.558   9.798   5.502  1.00  0.00     0.146 C 
BRANCH  19  20
HETATM   20  C4  UNL     1      24.950  10.314   5.685  1.00  0.00     0.183 C 
BRANCH  20  21
HETATM   21  O2  UNL     1      25.852   9.470   5.017  1.00  0.00    -0.399 OA
ATOM     22  H2  UNL     1      25.436   9.113   4.241  1.00  0.00     0.209 HD
ENDBRANCH  20  21
ENDBRANCH  19  20
ENDBRANCH  17  19
ENDBRANCH  12  17
ENDBRANCH   1  11
BRANCH   8  23
HETATM   23  N4  UNL     1      17.513  11.554   0.203  1.00  0.00    -0.101 N 
HETATM   24  N5  UNL     1      16.390  10.976   0.147  1.00  0.00    -0.290 N 
ATOM     25  H5  UNL     1      16.022  10.589   1.016  1.00  0.00     0.184 HD
BRANCH  23  26
HETATM   26  O3  UNL     1      18.082  12.099  -0.903  1.00  0.00    -0.254 OA
ATOM     27  H3  UNL     1      17.777  11.894  -1.779  1.00  0.00     0.248 HD
ENDBRANCH  23  26
BRANCH  24  28
HETATM   28  C12 UNL     1      15.593  10.818  -1.029  1.00  0.00     0.103 C 
HETATM   29  C13 UNL     1      15.903   9.444  -1.608  1.00  0.00     0.027 C 
HETATM   30  C14 UNL     1      14.996   9.077  -2.735  1.00  0.00     0.002 C 
HETATM   31  C15 UNL     1      13.936  10.149  -2.932  1.00  0.00     0.000 C 
HETATM   32  C16 UNL     1      13.207  10.302  -1.619  1.00  0.00     0.002 C 
HETATM   33  C17 UNL     1      14.135  10.899  -0.597  1.00  0.00     0.027 C 
ENDBRANCH  24  28
ENDBRANCH   8  23
TORSDOF 8
ENDMDL
