MODEL 1
REMARK VINA RESULT: -8.517176729      0.000      0.000
REMARK  6 active torsions:
REMARK  status: ('A' for Active; 'I' for Inactive)
REMARK    1  A    between atoms: C2_2  and  C4_4 
REMARK    2  A    between atoms: C8_12  and  N3_13 
REMARK    3  A    between atoms: N4_20  and  C15_21 
REMARK    4  A    between atoms: C15_21  and  C16_22 
REMARK    5  A    between atoms: C16_22  and  N5_23 
REMARK    6  A    between atoms: N5_23  and  C17_26 
ROOT
HETATM    1  C4  UNL     1      14.680   9.436  -2.008  1.00  0.00     0.085 A 
HETATM    2  N1  UNL     1      13.458   9.415  -1.449  1.00  0.00    -0.353 N 
ATOM      3  H1  UNL     1      12.655   9.212  -2.044  1.00  0.00     0.166 HD
HETATM    4  C5  UNL     1      13.248   9.646  -0.153  1.00  0.00     0.121 A 
HETATM    5  C6  UNL     1      14.326   9.923   0.659  1.00  0.00     0.079 A 
HETATM    6  C7  UNL     1      15.585   9.949   0.098  1.00  0.00     0.090 A 
HETATM    7  N2  UNL     1      15.733   9.706  -1.218  1.00  0.00    -0.342 N 
ATOM      8  H2  UNL     1      16.668   9.727  -1.626  1.00  0.00     0.167 HD
HETATM    9  C8  UNL     1      16.459  10.243   1.118  1.00  0.00     0.075 A 
HETATM   10  C14 UNL     1      15.741  10.394   2.283  1.00  0.00     0.123 A 
HETATM   11  N4  UNL     1      14.455  10.193   1.969  1.00  0.00    -0.350 N 
ENDROOT
BRANCH  11  12
HETATM   12  C15 UNL     1      13.356  10.261   2.934  1.00  0.00     0.156 C 
BRANCH  12  13
HETATM   13  C16 UNL     1      13.228   8.900   3.595  1.00  0.00     0.253 C 
BRANCH  13  14
HETATM   14  N5  UNL     1      13.068   9.140   5.003  1.00  0.00    -0.069 N 
ATOM     15  H52 UNL     1      12.864  10.124   5.179  1.00  0.00     0.277 HD
ATOM     16  H51 UNL     1      12.202   8.722   5.343  1.00  0.00     0.277 HD
BRANCH  14  17
HETATM   17  C17 UNL     1      14.197   8.701   5.803  1.00  0.00     0.195 C 
HETATM   18  C18 UNL     1      13.712   7.714   6.811  1.00  0.00     0.034 C 
HETATM   19  C19 UNL     1      14.234   7.953   8.205  1.00  0.00     0.012 C 
HETATM   20  C20 UNL     1      13.469   9.090   8.889  1.00  0.00     0.074 C 
HETATM   21  S1  UNL     1      13.533  10.486   7.698  1.00  0.00    -0.167 SA
HETATM   22  C21 UNL     1      14.768   9.963   6.442  1.00  0.00     0.106 C 
ENDBRANCH  14  17
ENDBRANCH  13  14
ENDBRANCH  12  13
ENDBRANCH  11  12
BRANCH   9  23
HETATM   23  N3  UNL     1      17.864  10.374   1.001  1.00  0.00    -0.374 N 
HETATM   24  C9  UNL     1      18.450  11.261   0.006  1.00  0.00     0.150 C 
HETATM   25  C10 UNL     1      19.490  12.061   0.732  1.00  0.00    -0.011 C 
HETATM   26  C11 UNL     1      20.347  11.397   1.481  1.00  0.00    -0.027 C 
HETATM   27  C12 UNL     1      20.188   9.904   1.528  1.00  0.00     0.047 C 
HETATM   28  C13 UNL     1      18.740   9.636   1.862  1.00  0.00     0.127 C 
ENDBRANCH   9  23
BRANCH   1  29
HETATM   29  C2  UNL     1      14.803   9.164  -3.463  1.00  0.00     0.045 C 
HETATM   30  C1  UNL     1      14.472  10.415  -4.261  1.00  0.00     0.017 C 
HETATM   31  C3  UNL     1      13.851   8.057  -3.825  1.00  0.00     0.017 C 
ENDBRANCH   1  29
TORSDOF 6
ENDMDL
MODEL 2
REMARK VINA RESULT: -8.406045455      2.522      7.605
REMARK  6 active torsions:
REMARK  status: ('A' for Active; 'I' for Inactive)
REMARK    1  A    between atoms: C2_2  and  C4_4 
REMARK    2  A    between atoms: C8_12  and  N3_13 
REMARK    3  A    between atoms: N4_20  and  C15_21 
REMARK    4  A    between atoms: C15_21  and  C16_22 
REMARK    5  A    between atoms: C16_22  and  N5_23 
REMARK    6  A    between atoms: N5_23  and  C17_26 
ROOT
HETATM    1  C4  UNL     1      17.482   9.864   3.652  1.00  0.00     0.085 A 
HETATM    2  N1  UNL     1      17.052   9.673   2.393  1.00  0.00    -0.353 N 
ATOM      3  H1  UNL     1      17.716   9.798   1.628  1.00  0.00     0.166 HD
HETATM    4  C5  UNL     1      15.799   9.329   2.098  1.00  0.00     0.121 A 
HETATM    5  C6  UNL     1      14.894   9.159   3.124  1.00  0.00     0.079 A 
HETATM    6  C7  UNL     1      15.322   9.352   4.419  1.00  0.00     0.090 A 
HETATM    7  N2  UNL     1      16.602   9.699   4.653  1.00  0.00    -0.342 N 
ATOM      8  H2  UNL     1      16.912   9.841   5.615  1.00  0.00     0.167 HD
HETATM    9  C8  UNL     1      14.234   9.120   5.227  1.00  0.00     0.075 A 
HETATM   10  C14 UNL     1      13.158   8.790   4.433  1.00  0.00     0.123 A 
HETATM   11  N4  UNL     1      13.593   8.823   3.167  1.00  0.00    -0.350 N 
ENDROOT
BRANCH  11  12
HETATM   12  C15 UNL     1      12.754   8.528   2.004  1.00  0.00     0.156 C 
BRANCH  12  13
HETATM   13  C16 UNL     1      12.719   9.768   1.126  1.00  0.00     0.253 C 
BRANCH  13  14
HETATM   14  N5  UNL     1      13.042   9.336  -0.207  1.00  0.00    -0.069 N 
ATOM     15  H52 UNL     1      13.875   8.747  -0.202  1.00  0.00     0.277 HD
ATOM     16  H51 UNL     1      12.356   8.660  -0.543  1.00  0.00     0.277 HD
BRANCH  14  17
HETATM   17  C17 UNL     1      13.192  10.427  -1.153  1.00  0.00     0.195 C 
HETATM   18  C18 UNL     1      12.704   9.972  -2.486  1.00  0.00     0.034 C 
HETATM   19  C19 UNL     1      13.623  10.320  -3.629  1.00  0.00     0.012 C 
HETATM   20  C20 UNL     1      14.812   9.356  -3.689  1.00  0.00     0.074 C 
HETATM   21  S1  UNL     1      15.512   9.363  -1.993  1.00  0.00    -0.167 SA
HETATM   22  C21 UNL     1      14.679  10.771  -1.157  1.00  0.00     0.106 C 
ENDBRANCH  14  17
ENDBRANCH  13  14
ENDBRANCH  12  13
ENDBRANCH  11  12
BRANCH   9  23
HETATM   23  N3  UNL     1      14.209   9.206   6.640  1.00  0.00    -0.374 N 
HETATM   24  C9  UNL     1      13.947  10.475   7.306  1.00  0.00     0.150 C 
HETATM   25  C10 UNL     1      12.916  10.181   8.354  1.00  0.00    -0.011 C 
HETATM   26  C11 UNL     1      13.140   9.154   9.149  1.00  0.00    -0.027 C 
HETATM   27  C12 UNL     1      14.409   8.385   8.917  1.00  0.00     0.047 C 
HETATM   28  C13 UNL     1      14.443   8.045   7.446  1.00  0.00     0.127 C 
ENDBRANCH   9  23
BRANCH   1  29
HETATM   29  C2  UNL     1      18.901  10.247   3.869  1.00  0.00     0.045 C 
HETATM   30  C1  UNL     1      19.582  10.512   2.537  1.00  0.00     0.017 C 
HETATM   31  C3  UNL     1      19.595   9.122   4.587  1.00  0.00     0.017 C 
ENDBRANCH   1  29
TORSDOF 6
ENDMDL
MODEL 3
REMARK VINA RESULT: -8.367541901      3.958      7.280
REMARK  6 active torsions:
REMARK  status: ('A' for Active; 'I' for Inactive)
REMARK    1  A    between atoms: C2_2  and  C4_4 
REMARK    2  A    between atoms: C8_12  and  N3_13 
REMARK    3  A    between atoms: N4_20  and  C15_21 
REMARK    4  A    between atoms: C15_21  and  C16_22 
REMARK    5  A    between atoms: C16_22  and  N5_23 
REMARK    6  A    between atoms: N5_23  and  C17_26 
ROOT
HETATM    1  C4  UNL     1      22.084   9.006   0.811  1.00  0.00     0.085 A 
HETATM    2  N1  UNL     1      21.374  10.139   0.672  1.00  0.00    -0.353 N 
ATOM      3  H1  UNL     1      21.688  10.829  -0.010  1.00  0.00     0.166 HD
HETATM    4  C5  UNL     1      20.280  10.402   1.387  1.00  0.00     0.121 A 
HETATM    5  C6  UNL     1      19.849   9.477   2.313  1.00  0.00     0.079 A 
HETATM    6  C7  UNL     1      20.568   8.311   2.465  1.00  0.00     0.090 A 
HETATM    7  N2  UNL     1      21.666   8.103   1.712  1.00  0.00    -0.342 N 
ATOM      8  H2  UNL     1      22.193   7.237   1.830  1.00  0.00     0.167 HD
HETATM    9  C8  UNL     1      19.926   7.582   3.437  1.00  0.00     0.075 A 
HETATM   10  C14 UNL     1      18.831   8.294   3.871  1.00  0.00     0.123 A 
HETATM   11  N4  UNL     1      18.814   9.435   3.170  1.00  0.00    -0.350 N 
ENDROOT
BRANCH  11  12
HETATM   12  C15 UNL     1      17.800  10.479   3.327  1.00  0.00     0.156 C 
BRANCH  12  13
HETATM   13  C16 UNL     1      16.440   9.854   3.067  1.00  0.00     0.253 C 
BRANCH  13  14
HETATM   14  N5  UNL     1      16.326   9.697   1.642  1.00  0.00    -0.069 N 
ATOM     15  H52 UNL     1      17.248   9.672   1.208  1.00  0.00     0.277 HD
ATOM     16  H51 UNL     1      16.001   8.759   1.409  1.00  0.00     0.277 HD
BRANCH  14  17
HETATM   17  C17 UNL     1      15.490  10.701   1.009  1.00  0.00     0.195 C 
HETATM   18  C18 UNL     1      14.513  10.015   0.117  1.00  0.00     0.034 C 
HETATM   19  C19 UNL     1      14.384  10.639  -1.249  1.00  0.00     0.012 C 
HETATM   20  C20 UNL     1      15.555  10.233  -2.149  1.00  0.00     0.074 C 
HETATM   21  S1  UNL     1      17.059  10.616  -1.169  1.00  0.00    -0.167 SA
HETATM   22  C21 UNL     1      16.445  11.614   0.246  1.00  0.00     0.106 C 
ENDBRANCH  14  17
ENDBRANCH  13  14
ENDBRANCH  12  13
ENDBRANCH  11  12
BRANCH   9  23
HETATM   23  N3  UNL     1      20.317   6.310   3.922  1.00  0.00    -0.374 N 
HETATM   24  C9  UNL     1      19.457   5.561   4.829  1.00  0.00     0.150 C 
HETATM   25  C10 UNL     1      19.397   4.167   4.279  1.00  0.00    -0.011 C 
HETATM   26  C11 UNL     1      20.542   3.592   3.970  1.00  0.00    -0.027 C 
HETATM   27  C12 UNL     1      21.788   4.398   4.202  1.00  0.00     0.047 C 
HETATM   28  C13 UNL     1      21.568   5.732   3.531  1.00  0.00     0.127 C 
ENDBRANCH   9  23
BRANCH   1  29
HETATM   29  C2  UNL     1      23.289   8.813  -0.037  1.00  0.00     0.045 C 
HETATM   30  C1  UNL     1      22.894   8.760  -1.504  1.00  0.00     0.017 C 
HETATM   31  C3  UNL     1      23.954   7.525   0.363  1.00  0.00     0.017 C 
ENDBRANCH   1  29
TORSDOF 6
ENDMDL
MODEL 4
REMARK VINA RESULT: -8.355402000      3.746      6.746
REMARK  6 active torsions:
REMARK  status: ('A' for Active; 'I' for Inactive)
REMARK    1  A    between atoms: C2_2  and  C4_4 
REMARK    2  A    between atoms: C8_12  and  N3_13 
REMARK    3  A    between atoms: N4_20  and  C15_21 
REMARK    4  A    between atoms: C15_21  and  C16_22 
REMARK    5  A    between atoms: C16_22  and  N5_23 
REMARK    6  A    between atoms: N5_23  and  C17_26 
ROOT
HETATM    1  C4  UNL     1      22.113   9.033   0.795  1.00  0.00     0.085 A 
HETATM    2  N1  UNL     1      21.403  10.164   0.640  1.00  0.00    -0.353 N 
ATOM      3  H1  UNL     1      21.723  10.849  -0.044  1.00  0.00     0.166 HD
HETATM    4  C5  UNL     1      20.300  10.430   1.340  1.00  0.00     0.121 A 
HETATM    5  C6  UNL     1      19.860   9.511   2.269  1.00  0.00     0.079 A 
HETATM    6  C7  UNL     1      20.580   8.348   2.437  1.00  0.00     0.090 A 
HETATM    7  N2  UNL     1      21.686   8.136   1.699  1.00  0.00    -0.342 N 
ATOM      8  H2  UNL     1      22.214   7.272   1.830  1.00  0.00     0.167 HD
HETATM    9  C8  UNL     1      19.928   7.625   3.408  1.00  0.00     0.075 A 
HETATM   10  C14 UNL     1      18.827   8.338   3.824  1.00  0.00     0.123 A 
HETATM   11  N4  UNL     1      18.816   9.474   3.114  1.00  0.00    -0.350 N 
ENDROOT
BRANCH  11  12
HETATM   12  C15 UNL     1      17.799  10.517   3.252  1.00  0.00     0.156 C 
BRANCH  12  13
HETATM   13  C16 UNL     1      16.437   9.871   3.065  1.00  0.00     0.253 C 
BRANCH  13  14
HETATM   14  N5  UNL     1      16.291   9.622   1.656  1.00  0.00    -0.069 N 
ATOM     15  H52 UNL     1      17.109   9.952   1.145  1.00  0.00     0.277 HD
ATOM     16  H51 UNL     1      16.356   8.623   1.458  1.00  0.00     0.277 HD
BRANCH  14  17
HETATM   17  C17 UNL     1      15.075  10.177   1.088  1.00  0.00     0.195 C 
HETATM   18  C18 UNL     1      14.115  10.454   2.194  1.00  0.00     0.034 C 
HETATM   19  C19 UNL     1      12.710   9.980   1.921  1.00  0.00     0.012 C 
HETATM   20  C20 UNL     1      12.590   8.469   2.139  1.00  0.00     0.074 C 
HETATM   21  S1  UNL     1      13.949   7.738   1.146  1.00  0.00    -0.167 SA
HETATM   22  C21 UNL     1      14.559   9.127   0.108  1.00  0.00     0.106 C 
ENDBRANCH  14  17
ENDBRANCH  13  14
ENDBRANCH  12  13
ENDBRANCH  11  12
BRANCH   9  23
HETATM   23  N3  UNL     1      20.316   6.357   3.907  1.00  0.00    -0.374 N 
HETATM   24  C9  UNL     1      19.468   5.634   4.845  1.00  0.00     0.150 C 
HETATM   25  C10 UNL     1      19.382   4.232   4.321  1.00  0.00    -0.011 C 
HETATM   26  C11 UNL     1      20.514   3.639   3.998  1.00  0.00    -0.027 C 
HETATM   27  C12 UNL     1      21.773   4.435   4.191  1.00  0.00     0.047 C 
HETATM   28  C13 UNL     1      21.553   5.760   3.500  1.00  0.00     0.127 C 
ENDBRANCH   9  23
BRANCH   1  29
HETATM   29  C2  UNL     1      23.328   8.836  -0.038  1.00  0.00     0.045 C 
HETATM   30  C1  UNL     1      22.954   8.806  -1.511  1.00  0.00     0.017 C 
HETATM   31  C3  UNL     1      23.972   7.535   0.356  1.00  0.00     0.017 C 
ENDBRANCH   1  29
TORSDOF 6
ENDMDL
MODEL 5
REMARK VINA RESULT: -8.254297092      0.858      4.534
REMARK  6 active torsions:
REMARK  status: ('A' for Active; 'I' for Inactive)
REMARK    1  A    between atoms: C2_2  and  C4_4 
REMARK    2  A    between atoms: C8_12  and  N3_13 
REMARK    3  A    between atoms: N4_20  and  C15_21 
REMARK    4  A    between atoms: C15_21  and  C16_22 
REMARK    5  A    between atoms: C16_22  and  N5_23 
REMARK    6  A    between atoms: N5_23  and  C17_26 
ROOT
HETATM    1  C4  UNL     1      18.199  10.316   1.305  1.00  0.00     0.085 A 
HETATM    2  N1  UNL     1      17.871  10.341   2.608  1.00  0.00    -0.353 N 
ATOM      3  H1  UNL     1      18.622  10.362   3.298  1.00  0.00     0.166 HD
HETATM    4  C5  UNL     1      16.610  10.341   3.040  1.00  0.00     0.121 A 
HETATM    5  C6  UNL     1      15.588  10.311   2.116  1.00  0.00     0.079 A 
HETATM    6  C7  UNL     1      15.911  10.285   0.776  1.00  0.00     0.090 A 
HETATM    7  N2  UNL     1      17.205  10.288   0.402  1.00  0.00    -0.342 N 
ATOM      8  H2  UNL     1      17.436  10.267  -0.591  1.00  0.00     0.167 HD
HETATM    9  C8  UNL     1      14.720  10.260   0.090  1.00  0.00     0.075 A 
HETATM   10  C14 UNL     1      13.687  10.272   0.999  1.00  0.00     0.123 A 
HETATM   11  N4  UNL     1      14.248  10.303   2.215  1.00  0.00    -0.350 N 
ENDROOT
BRANCH  11  12
HETATM   12  C15 UNL     1      13.490  10.327   3.467  1.00  0.00     0.156 C 
BRANCH  12  13
HETATM   13  C16 UNL     1      13.248   8.890   3.895  1.00  0.00     0.253 C 
BRANCH  13  14
HETATM   14  N5  UNL     1      13.017   8.917   5.314  1.00  0.00    -0.069 N 
ATOM     15  H52 UNL     1      12.640   9.820   5.600  1.00  0.00     0.277 HD
ATOM     16  H51 UNL     1      12.231   8.316   5.563  1.00  0.00     0.277 HD
BRANCH  14  17
HETATM   17  C17 UNL     1      14.188   8.579   6.103  1.00  0.00     0.195 C 
HETATM   18  C18 UNL     1      13.777   7.651   7.195  1.00  0.00     0.034 C 
HETATM   19  C19 UNL     1      14.333   8.010   8.549  1.00  0.00     0.012 C 
HETATM   20  C20 UNL     1      13.546   9.164   9.177  1.00  0.00     0.074 C 
HETATM   21  S1  UNL     1      13.515  10.471   7.889  1.00  0.00    -0.167 SA
HETATM   22  C21 UNL     1      14.729   9.906   6.630  1.00  0.00     0.106 C 
ENDBRANCH  14  17
ENDBRANCH  13  14
ENDBRANCH  12  13
ENDBRANCH  11  12
BRANCH   9  23
HETATM   23  N3  UNL     1      14.568  10.225  -1.318  1.00  0.00    -0.374 N 
HETATM   24  C9  UNL     1      15.731  10.176  -2.193  1.00  0.00     0.150 C 
HETATM   25  C10 UNL     1      15.449   9.091  -3.188  1.00  0.00    -0.011 C 
HETATM   26  C11 UNL     1      14.278   9.118  -3.794  1.00  0.00    -0.027 C 
HETATM   27  C12 UNL     1      13.350  10.237  -3.419  1.00  0.00     0.047 C 
HETATM   28  C13 UNL     1      13.264  10.238  -1.911  1.00  0.00     0.127 C 
ENDBRANCH   9  23
BRANCH   1  29
HETATM   29  C2  UNL     1      19.637  10.320   0.932  1.00  0.00     0.045 C 
HETATM   30  C1  UNL     1      20.377   9.229   1.689  1.00  0.00     0.017 C 
HETATM   31  C3  UNL     1      20.216  11.665   1.272  1.00  0.00     0.017 C 
ENDBRANCH   1  29
TORSDOF 6
ENDMDL
