MODEL 1
REMARK VINA RESULT: -7.683062496      0.000      0.000
REMARK  9 active torsions:
REMARK  status: ('A' for Active; 'I' for Inactive)
REMARK    1  A    between atoms: C2_2  and  C3_3 
REMARK    2  A    between atoms: C4_4  and  C5_5 
REMARK    3  A    between atoms: C5_5  and  C6_6 
REMARK    4  A    between atoms: C6_6  and  C7_7 
REMARK    5  A    between atoms: C10_11  and  O2_12 
REMARK    6  A    between atoms: C19_22  and  C20_23 
REMARK    7  A    between atoms: C20_23  and  C21_24 
REMARK    8  A    between atoms: C21_24  and  C22_25 
REMARK    9  A    between atoms: C22_25  and  O3_26 
ROOT
HETATM    1  C7  UNL     1       0.860 -10.201  34.464  1.00  0.00     0.066 C 
HETATM    2  C8  UNL     1      -0.440  -9.576  34.345  1.00  0.00     0.047 C 
HETATM    3  C9  UNL     1      -0.302  -8.271  35.153  1.00  0.00     0.172 C 
HETATM    4  O1  UNL     1       0.701  -8.291  36.075  1.00  0.00    -0.354 OA
HETATM    5  C10 UNL     1       0.937  -9.522  36.719  1.00  0.00     0.176 C 
HETATM    6  C11 UNL     1      -0.356  -9.535  37.507  1.00  0.00     0.045 C 
HETATM    7  C12 UNL     1      -0.257  -8.359  38.511  1.00  0.00     0.015 C 
HETATM    8  C13 UNL     1      -0.666 -10.742  38.262  1.00  0.00     0.010 C 
HETATM    9  C14 UNL     1       0.346 -11.761  37.910  1.00  0.00     0.007 C 
HETATM   10  C15 UNL     1       0.643 -11.901  36.417  1.00  0.00     0.011 C 
HETATM   11  C16 UNL     1       1.608 -13.061  36.426  1.00  0.00    -0.037 C 
HETATM   12  C17 UNL     1       1.251 -14.203  35.559  1.00  0.00     0.015 C 
HETATM   13  C18 UNL     1       1.776 -13.767  37.791  1.00  0.00     0.015 C 
HETATM   14  C19 UNL     1       2.914 -12.399  36.271  1.00  0.00     0.024 C 
HETATM   15  C23 UNL     1       2.587 -11.103  35.513  1.00  0.00     0.152 C 
HETATM   16  O4  UNL     1       2.444 -11.661  34.188  1.00  0.00    -0.314 OA
HETATM   17  C24 UNL     1       1.171 -11.415  33.680  1.00  0.00     0.269 C 
HETATM   18  O5  UNL     1       0.546 -12.051  32.833  1.00  0.00    -0.264 OA
HETATM   19  C25 UNL     1       1.220 -10.673  35.860  1.00  0.00     0.065 C 
ENDROOT
BRANCH   1  20
HETATM   20  C6  UNL     1       1.895  -9.305  33.824  1.00  0.00     0.025 C 
BRANCH  20  21
HETATM   21  C5  UNL     1       1.313  -8.624  32.556  1.00  0.00     0.028 C 
BRANCH  21  22
HETATM   22  C4  UNL     1       2.255  -8.942  31.423  1.00  0.00    -0.027 C 
HETATM   23  C3  UNL     1       1.851  -8.898  30.162  1.00  0.00    -0.005 C 
BRANCH  23  24
HETATM   24  C2  UNL     1       2.719  -9.196  29.049  1.00  0.00    -0.011 C 
HETATM   25  C1  UNL     1       2.241  -9.275  27.833  1.00  0.00     0.011 C 
ENDBRANCH  23  24
ENDBRANCH  21  22
ENDBRANCH  20  21
ENDBRANCH   1  20
BRANCH   5  26
HETATM   26  O2  UNL     1       1.980  -9.215  37.616  1.00  0.00    -0.364 OA
ATOM     27  H2  UNL     1       2.292 -10.073  37.881  1.00  0.00     0.213 HD
ENDBRANCH   5  26
BRANCH  14  28
HETATM   28  C20 UNL     1       3.999 -13.188  35.619  1.00  0.00     0.010 C 
BRANCH  28  29
HETATM   29  C21 UNL     1       5.357 -12.691  36.112  1.00  0.00     0.027 C 
BRANCH  29  30
HETATM   30  C22 UNL     1       6.216 -12.241  34.947  1.00  0.00     0.164 C 
BRANCH  30  31
HETATM   31  O3  UNL     1       6.105 -10.863  34.809  1.00  0.00    -0.401 OA
ATOM     32  H3  UNL     1       6.558 -10.595  34.018  1.00  0.00     0.209 HD
ENDBRANCH  30  31
ENDBRANCH  29  30
ENDBRANCH  28  29
ENDBRANCH  14  28
TORSDOF 9
ENDMDL
MODEL 2
REMARK VINA RESULT: -7.148178808      2.140      6.023
REMARK  9 active torsions:
REMARK  status: ('A' for Active; 'I' for Inactive)
REMARK    1  A    between atoms: C2_2  and  C3_3 
REMARK    2  A    between atoms: C4_4  and  C5_5 
REMARK    3  A    between atoms: C5_5  and  C6_6 
REMARK    4  A    between atoms: C6_6  and  C7_7 
REMARK    5  A    between atoms: C10_11  and  O2_12 
REMARK    6  A    between atoms: C19_22  and  C20_23 
REMARK    7  A    between atoms: C20_23  and  C21_24 
REMARK    8  A    between atoms: C21_24  and  C22_25 
REMARK    9  A    between atoms: C22_25  and  O3_26 
ROOT
HETATM    1  C7  UNL     1       0.764 -10.389  37.314  1.00  0.00     0.066 C 
HETATM    2  C8  UNL     1       1.164  -9.001  37.217  1.00  0.00     0.047 C 
HETATM    3  C9  UNL     1       0.451  -8.495  35.947  1.00  0.00     0.172 C 
HETATM    4  O1  UNL     1       0.099  -9.483  35.076  1.00  0.00    -0.354 OA
HETATM    5  C10 UNL     1       0.984 -10.575  34.976  1.00  0.00     0.176 C 
HETATM    6  C11 UNL     1       2.104  -9.807  34.306  1.00  0.00     0.045 C 
HETATM    7  C12 UNL     1       1.569  -9.399  32.910  1.00  0.00     0.015 C 
HETATM    8  C13 UNL     1       3.369 -10.502  34.113  1.00  0.00     0.010 C 
HETATM    9  C14 UNL     1       3.275 -11.803  34.810  1.00  0.00     0.007 C 
HETATM   10  C15 UNL     1       2.690 -11.749  36.221  1.00  0.00     0.011 C 
HETATM   11  C16 UNL     1       2.837 -13.189  36.646  1.00  0.00    -0.037 C 
HETATM   12  C17 UNL     1       3.565 -13.415  37.913  1.00  0.00     0.015 C 
HETATM   13  C18 UNL     1       3.646 -14.082  35.677  1.00  0.00     0.015 C 
HETATM   14  C19 UNL     1       1.475 -13.721  36.476  1.00  0.00     0.024 C 
HETATM   15  C23 UNL     1       0.570 -12.492  36.658  1.00  0.00     0.152 C 
HETATM   16  O4  UNL     1       0.613 -12.408  38.099  1.00  0.00    -0.314 OA
HETATM   17  C24 UNL     1       1.125 -11.179  38.509  1.00  0.00     0.269 C 
HETATM   18  O5  UNL     1       1.694 -10.898  39.563  1.00  0.00    -0.264 OA
HETATM   19  C25 UNL     1       1.297 -11.288  36.215  1.00  0.00     0.065 C 
ENDROOT
BRANCH   1  20
HETATM   20  C6  UNL     1      -0.734 -10.455  37.501  1.00  0.00     0.025 C 
BRANCH  20  21
HETATM   21  C5  UNL     1      -1.261  -9.137  38.132  1.00  0.00     0.028 C 
BRANCH  21  22
HETATM   22  C4  UNL     1      -1.242  -9.335  39.626  1.00  0.00    -0.027 C 
HETATM   23  C3  UNL     1      -0.713  -8.426  40.432  1.00  0.00    -0.005 C 
BRANCH  23  24
HETATM   24  C2  UNL     1      -0.674  -8.577  41.866  1.00  0.00    -0.011 C 
HETATM   25  C1  UNL     1      -0.478  -9.753  42.408  1.00  0.00     0.011 C 
ENDBRANCH  23  24
ENDBRANCH  21  22
ENDBRANCH  20  21
ENDBRANCH   1  20
BRANCH   5  26
HETATM   26  O2  UNL     1       0.377 -11.385  33.994  1.00  0.00    -0.364 OA
ATOM     27  H2  UNL     1      -0.044 -12.064  34.509  1.00  0.00     0.213 HD
ENDBRANCH   5  26
BRANCH  14  28
HETATM   28  C20 UNL     1       1.079 -14.862  37.351  1.00  0.00     0.010 C 
BRANCH  28  29
HETATM   29  C21 UNL     1       0.123 -15.779  36.591  1.00  0.00     0.027 C 
BRANCH  29  30
HETATM   30  C22 UNL     1       0.713 -16.177  35.254  1.00  0.00     0.164 C 
BRANCH  30  31
HETATM   31  O3  UNL     1      -0.147 -15.771  34.241  1.00  0.00    -0.401 OA
ATOM     32  H3  UNL     1       0.365 -15.415  33.525  1.00  0.00     0.209 HD
ENDBRANCH  30  31
ENDBRANCH  29  30
ENDBRANCH  28  29
ENDBRANCH  14  28
TORSDOF 9
ENDMDL
MODEL 3
REMARK VINA RESULT: -7.047875147      2.331      6.037
REMARK  9 active torsions:
REMARK  status: ('A' for Active; 'I' for Inactive)
REMARK    1  A    between atoms: C2_2  and  C3_3 
REMARK    2  A    between atoms: C4_4  and  C5_5 
REMARK    3  A    between atoms: C5_5  and  C6_6 
REMARK    4  A    between atoms: C6_6  and  C7_7 
REMARK    5  A    between atoms: C10_11  and  O2_12 
REMARK    6  A    between atoms: C19_22  and  C20_23 
REMARK    7  A    between atoms: C20_23  and  C21_24 
REMARK    8  A    between atoms: C21_24  and  C22_25 
REMARK    9  A    between atoms: C22_25  and  O3_26 
ROOT
HETATM    1  C7  UNL     1       0.953 -10.587  37.713  1.00  0.00     0.066 C 
HETATM    2  C8  UNL     1       1.444  -9.226  37.717  1.00  0.00     0.047 C 
HETATM    3  C9  UNL     1       0.663  -8.545  36.575  1.00  0.00     0.172 C 
HETATM    4  O1  UNL     1       0.165  -9.412  35.648  1.00  0.00    -0.354 OA
HETATM    5  C10 UNL     1       0.955 -10.542  35.358  1.00  0.00     0.176 C 
HETATM    6  C11 UNL     1       2.067  -9.781  34.665  1.00  0.00     0.045 C 
HETATM    7  C12 UNL     1       1.443  -9.196  33.372  1.00  0.00     0.015 C 
HETATM    8  C13 UNL     1       3.255 -10.532  34.287  1.00  0.00     0.010 C 
HETATM    9  C14 UNL     1       3.126 -11.891  34.858  1.00  0.00     0.007 C 
HETATM   10  C15 UNL     1       2.672 -11.947  36.316  1.00  0.00     0.011 C 
HETATM   11  C16 UNL     1       2.750 -13.430  36.582  1.00  0.00    -0.037 C 
HETATM   12  C17 UNL     1       3.566 -13.834  37.746  1.00  0.00     0.015 C 
HETATM   13  C18 UNL     1       3.403 -14.267  35.458  1.00  0.00     0.015 C 
HETATM   14  C19 UNL     1       1.342 -13.852  36.488  1.00  0.00     0.024 C 
HETATM   15  C23 UNL     1       0.549 -12.594  36.874  1.00  0.00     0.152 C 
HETATM   16  O4  UNL     1       0.723 -12.664  38.306  1.00  0.00    -0.314 OA
HETATM   17  C24 UNL     1       1.357 -11.520  38.786  1.00  0.00     0.269 C 
HETATM   18  O5  UNL     1       2.035 -11.388  39.804  1.00  0.00    -0.264 OA
HETATM   19  C25 UNL     1       1.321 -11.399  36.486  1.00  0.00     0.065 C 
ENDROOT
BRANCH   1  20
HETATM   20  C6  UNL     1      -0.523 -10.576  38.033  1.00  0.00     0.025 C 
BRANCH  20  21
HETATM   21  C5  UNL     1      -0.751 -10.281  39.540  1.00  0.00     0.028 C 
BRANCH  21  22
HETATM   22  C4  UNL     1      -1.235  -8.856  39.634  1.00  0.00    -0.027 C 
HETATM   23  C3  UNL     1      -1.176  -8.185  40.774  1.00  0.00    -0.005 C 
BRANCH  23  24
HETATM   24  C2  UNL     1      -1.629  -6.822  40.907  1.00  0.00    -0.011 C 
HETATM   25  C1  UNL     1      -2.867  -6.501  40.625  1.00  0.00     0.011 C 
ENDBRANCH  23  24
ENDBRANCH  21  22
ENDBRANCH  20  21
ENDBRANCH   1  20
BRANCH   5  26
HETATM   26  O2  UNL     1       0.207 -11.203  34.363  1.00  0.00    -0.364 OA
ATOM     27  H2  UNL     1      -0.095 -10.489  33.814  1.00  0.00     0.213 HD
ENDBRANCH   5  26
BRANCH  14  28
HETATM   28  C20 UNL     1       0.941 -15.051  37.280  1.00  0.00     0.010 C 
BRANCH  28  29
HETATM   29  C21 UNL     1      -0.062 -15.879  36.479  1.00  0.00     0.027 C 
BRANCH  29  30
HETATM   30  C22 UNL     1       0.594 -16.468  35.247  1.00  0.00     0.164 C 
BRANCH  30  31
HETATM   31  O3  UNL     1       0.003 -15.921  34.115  1.00  0.00    -0.401 OA
ATOM     32  H3  UNL     1       0.420 -15.089  33.920  1.00  0.00     0.209 HD
ENDBRANCH  30  31
ENDBRANCH  29  30
ENDBRANCH  28  29
ENDBRANCH  14  28
TORSDOF 9
ENDMDL
MODEL 4
REMARK VINA RESULT: -6.632171893      1.871      2.407
REMARK  9 active torsions:
REMARK  status: ('A' for Active; 'I' for Inactive)
REMARK    1  A    between atoms: C2_2  and  C3_3 
REMARK    2  A    between atoms: C4_4  and  C5_5 
REMARK    3  A    between atoms: C5_5  and  C6_6 
REMARK    4  A    between atoms: C6_6  and  C7_7 
REMARK    5  A    between atoms: C10_11  and  O2_12 
REMARK    6  A    between atoms: C19_22  and  C20_23 
REMARK    7  A    between atoms: C20_23  and  C21_24 
REMARK    8  A    between atoms: C21_24  and  C22_25 
REMARK    9  A    between atoms: C22_25  and  O3_26 
ROOT
HETATM    1  C7  UNL     1       1.170 -11.019  33.605  1.00  0.00     0.066 C 
HETATM    2  C8  UNL     1       0.089 -10.144  33.202  1.00  0.00     0.047 C 
HETATM    3  C9  UNL     1       0.782  -8.793  32.936  1.00  0.00     0.172 C 
HETATM    4  O1  UNL     1       1.984  -8.651  33.564  1.00  0.00    -0.354 OA
HETATM    5  C10 UNL     1       2.098  -9.239  34.839  1.00  0.00     0.176 C 
HETATM    6  C11 UNL     1       1.147  -8.288  35.535  1.00  0.00     0.045 C 
HETATM    7  C12 UNL     1       1.833  -6.898  35.504  1.00  0.00     0.015 C 
HETATM    8  C13 UNL     1       0.800  -8.583  36.918  1.00  0.00     0.010 C 
HETATM    9  C14 UNL     1       1.375  -9.905  37.251  1.00  0.00     0.007 C 
HETATM   10  C15 UNL     1       1.155 -10.996  36.204  1.00  0.00     0.011 C 
HETATM   11  C16 UNL     1       1.764 -12.187  36.902  1.00  0.00    -0.037 C 
HETATM   12  C17 UNL     1       0.891 -13.372  37.033  1.00  0.00     0.015 C 
HETATM   13  C18 UNL     1       2.166 -11.952  38.377  1.00  0.00     0.015 C 
HETATM   14  C19 UNL     1       3.079 -12.310  36.251  1.00  0.00     0.024 C 
HETATM   15  C23 UNL     1       2.861 -11.708  34.855  1.00  0.00     0.152 C 
HETATM   16  O4  UNL     1       2.187 -12.829  34.242  1.00  0.00    -0.314 OA
HETATM   17  C24 UNL     1       0.920 -12.463  33.795  1.00  0.00     0.269 C 
HETATM   18  O5  UNL     1      -0.070 -13.174  33.628  1.00  0.00    -0.264 OA
HETATM   19  C25 UNL     1       1.814 -10.672  34.934  1.00  0.00     0.065 C 
ENDROOT
BRANCH   1  20
HETATM   20  C6  UNL     1       2.143 -11.155  32.458  1.00  0.00     0.025 C 
BRANCH  20  21
HETATM   21  C5  UNL     1       1.382 -11.389  31.125  1.00  0.00     0.028 C 
BRANCH  21  22
HETATM   22  C4  UNL     1       2.101 -10.587  30.069  1.00  0.00    -0.027 C 
HETATM   23  C3  UNL     1       1.507  -9.578  29.451  1.00  0.00    -0.005 C 
BRANCH  23  24
HETATM   24  C2  UNL     1       2.158  -8.786  28.436  1.00  0.00    -0.011 C 
HETATM   25  C1  UNL     1       2.058  -9.111  27.171  1.00  0.00     0.011 C 
ENDBRANCH  23  24
ENDBRANCH  21  22
ENDBRANCH  20  21
ENDBRANCH   1  20
BRANCH   5  26
HETATM   26  O2  UNL     1       3.408  -8.894  35.230  1.00  0.00    -0.364 OA
ATOM     27  H2  UNL     1       3.868  -8.831  34.401  1.00  0.00     0.213 HD
ENDBRANCH   5  26
BRANCH  14  28
HETATM   28  C20 UNL     1       3.685 -13.672  36.202  1.00  0.00     0.010 C 
BRANCH  28  29
HETATM   29  C21 UNL     1       4.614 -13.860  37.401  1.00  0.00     0.027 C 
BRANCH  29  30
HETATM   30  C22 UNL     1       4.500 -15.267  37.950  1.00  0.00     0.164 C 
BRANCH  30  31
HETATM   31  O3  UNL     1       3.286 -15.397  38.613  1.00  0.00    -0.401 OA
ATOM     32  H3  UNL     1       2.989 -16.296  38.541  1.00  0.00     0.209 HD
ENDBRANCH  30  31
ENDBRANCH  29  30
ENDBRANCH  28  29
ENDBRANCH  14  28
TORSDOF 9
ENDMDL
MODEL 5
REMARK VINA RESULT: -6.423511306      1.866      5.414
REMARK  9 active torsions:
REMARK  status: ('A' for Active; 'I' for Inactive)
REMARK    1  A    between atoms: C2_2  and  C3_3 
REMARK    2  A    between atoms: C4_4  and  C5_5 
REMARK    3  A    between atoms: C5_5  and  C6_6 
REMARK    4  A    between atoms: C6_6  and  C7_7 
REMARK    5  A    between atoms: C10_11  and  O2_12 
REMARK    6  A    between atoms: C19_22  and  C20_23 
REMARK    7  A    between atoms: C20_23  and  C21_24 
REMARK    8  A    between atoms: C21_24  and  C22_25 
REMARK    9  A    between atoms: C22_25  and  O3_26 
ROOT
HETATM    1  C7  UNL     1       2.057 -12.302  36.929  1.00  0.00     0.066 C 
HETATM    2  C8  UNL     1       2.608 -12.150  38.259  1.00  0.00     0.047 C 
HETATM    3  C9  UNL     1       1.367 -12.062  39.169  1.00  0.00     0.172 C 
HETATM    4  O1  UNL     1       0.230 -11.678  38.522  1.00  0.00    -0.354 OA
HETATM    5  C10 UNL     1       0.386 -10.738  37.484  1.00  0.00     0.176 C 
HETATM    6  C11 UNL     1       0.769  -9.579  38.380  1.00  0.00     0.045 C 
HETATM    7  C12 UNL     1      -0.487  -9.260  39.230  1.00  0.00     0.015 C 
HETATM    8  C13 UNL     1       1.194  -8.346  37.732  1.00  0.00     0.010 C 
HETATM    9  C14 UNL     1       1.301  -8.617  36.282  1.00  0.00     0.007 C 
HETATM   10  C15 UNL     1       2.022  -9.912  35.910  1.00  0.00     0.011 C 
HETATM   11  C16 UNL     1       2.032  -9.809  34.405  1.00  0.00    -0.037 C 
HETATM   12  C17 UNL     1       3.357  -9.927  33.760  1.00  0.00     0.015 C 
HETATM   13  C18 UNL     1       1.545  -8.457  33.833  1.00  0.00     0.015 C 
HETATM   14  C19 UNL     1       0.938 -10.711  34.009  1.00  0.00     0.024 C 
HETATM   15  C23 UNL     1       0.869 -11.737  35.151  1.00  0.00     0.152 C 
HETATM   16  O4  UNL     1       1.999 -12.553  34.772  1.00  0.00    -0.314 OA
HETATM   17  C24 UNL     1       2.953 -12.581  35.787  1.00  0.00     0.269 C 
HETATM   18  O5  UNL     1       4.163 -12.784  35.697  1.00  0.00    -0.264 OA
HETATM   19  C25 UNL     1       1.306 -11.094  36.403  1.00  0.00     0.065 C 
ENDROOT
BRANCH   1  20
HETATM   20  C6  UNL     1       1.279 -13.595  36.866  1.00  0.00     0.025 C 
BRANCH  20  21
HETATM   21  C5  UNL     1       2.191 -14.797  37.234  1.00  0.00     0.028 C 
BRANCH  21  22
HETATM   22  C4  UNL     1       2.086 -15.783  36.098  1.00  0.00    -0.027 C 
HETATM   23  C3  UNL     1       1.087 -15.727  35.231  1.00  0.00    -0.005 C 
BRANCH  23  24
HETATM   24  C2  UNL     1       0.948 -16.650  34.132  1.00  0.00    -0.011 C 
HETATM   25  C1  UNL     1       0.792 -17.932  34.353  1.00  0.00     0.011 C 
ENDBRANCH  23  24
ENDBRANCH  21  22
ENDBRANCH  20  21
ENDBRANCH   1  20
BRANCH   5  26
HETATM   26  O2  UNL     1      -0.939 -10.522  37.052  1.00  0.00    -0.364 OA
ATOM     27  H2  UNL     1      -0.968 -10.979  36.220  1.00  0.00     0.213 HD
ENDBRANCH   5  26
BRANCH  14  28
HETATM   28  C20 UNL     1       1.042 -11.352  32.666  1.00  0.00     0.010 C 
BRANCH  28  29
HETATM   29  C21 UNL     1       0.984 -10.277  31.582  1.00  0.00     0.027 C 
BRANCH  29  30
HETATM   30  C22 UNL     1       1.558 -10.798  30.280  1.00  0.00     0.164 C 
BRANCH  30  31
HETATM   31  O3  UNL     1       0.602 -10.668  29.280  1.00  0.00    -0.401 OA
ATOM     32  H3  UNL     1       0.203 -11.516  29.123  1.00  0.00     0.209 HD
ENDBRANCH  30  31
ENDBRANCH  29  30
ENDBRANCH  28  29
ENDBRANCH  14  28
TORSDOF 9
ENDMDL
