MODEL 1
REMARK VINA RESULT: -8.098480795      0.000      0.000
REMARK  6 active torsions:
REMARK  status: ('A' for Active; 'I' for Inactive)
REMARK       I    between atoms: C2_2  and  N1_4 
REMARK    1  A    between atoms: N1_4  and  C3_6 
REMARK    2  A    between atoms: N2_9  and  C6_10 
REMARK    3  A    between atoms: C6_10  and  C7_11 
REMARK    4  A    between atoms: N3_15  and  S1_16 
REMARK    5  A    between atoms: S1_16  and  C11_19 
REMARK    6  A    between atoms: C11_19  and  C12_20 
ROOT
HETATM    1  C7  UNL     1     -18.732  -2.190   3.522  1.00  0.00     0.028 C 
HETATM    2  C8  UNL     1     -19.258  -3.573   3.834  1.00  0.00     0.009 C 
HETATM    3  C9  UNL     1     -18.069  -4.459   4.124  1.00  0.00     0.016 C 
HETATM    4  C10 UNL     1     -17.348  -4.668   2.781  1.00  0.00     0.107 C 
HETATM    5  N3  UNL     1     -17.254  -3.465   2.039  1.00  0.00    -0.210 NA
HETATM    6  C18 UNL     1     -17.400  -2.252   2.807  1.00  0.00     0.113 C 
ENDROOT
BRANCH   1   7
HETATM    7  C6  UNL     1     -18.491  -1.482   4.836  1.00  0.00     0.278 C 
BRANCH   7   8
HETATM    8  N2  UNL     1     -19.465  -0.474   5.112  1.00  0.00     0.088 N 
HETATM    9  C5  UNL     1     -20.393  -0.203   4.061  1.00  0.00     0.274 C 
HETATM   10  C4  UNL     1     -21.721   0.172   4.683  1.00  0.00     0.055 C 
HETATM   11  C3  UNL     1     -22.309  -1.085   5.289  1.00  0.00     0.087 C 
HETATM   12  C20 UNL     1     -21.229  -1.753   6.100  1.00  0.00     0.055 C 
HETATM   13  C19 UNL     1     -20.131  -0.771   6.351  1.00  0.00     0.274 C 
BRANCH  11  14
HETATM   14  N1  UNL     1     -23.460  -0.784   6.120  1.00  0.00    -0.357 N 
HETATM   15  C2  UNL     1     -24.757  -0.923   5.560  1.00  0.00     0.213 C 
HETATM   16  C1  UNL     1     -25.990  -0.631   6.350  1.00  0.00     0.117 C 
HETATM   17  O1  UNL     1     -24.942  -1.300   4.369  1.00  0.00    -0.274 OA
ATOM     18  H1  UNL     1     -23.339  -0.478   7.085  1.00  0.00     0.162 HD
ENDBRANCH  11  14
ENDBRANCH   7   8
ENDBRANCH   1   7
BRANCH   5  19
HETATM   19  S1  UNL     1     -15.878  -3.300   1.036  1.00  0.00     0.211 S 
HETATM   20  O2  UNL     1     -16.402  -3.260  -0.396  1.00  0.00    -0.211 OA
HETATM   21  O3  UNL     1     -15.292  -1.944   1.310  1.00  0.00    -0.211 OA
BRANCH  19  22
HETATM   22  C11 UNL     1     -14.714  -4.588   1.142  1.00  0.00     0.162 C 
BRANCH  22  23
HETATM   23  C12 UNL     1     -13.913  -4.684   2.386  1.00  0.00     0.001 C 
HETATM   24  C13 UNL     1     -14.026  -6.160   2.836  1.00  0.00     0.005 C 
HETATM   25  C14 UNL     1     -12.892  -6.919   2.183  1.00  0.00     0.000 C 
HETATM   26  C15 UNL     1     -11.645  -6.627   3.003  1.00  0.00     0.000 C 
HETATM   27  C16 UNL     1     -11.572  -5.129   3.153  1.00  0.00     0.000 C 
HETATM   28  C17 UNL     1     -12.427  -4.419   2.117  1.00  0.00     0.005 C 
ENDBRANCH  22  23
ENDBRANCH  19  22
ENDBRANCH   5  19
TORSDOF 6
ENDMDL
MODEL 2
REMARK VINA RESULT: -8.058459373      1.803      2.435
REMARK  6 active torsions:
REMARK  status: ('A' for Active; 'I' for Inactive)
REMARK       I    between atoms: C2_2  and  N1_4 
REMARK    1  A    between atoms: N1_4  and  C3_6 
REMARK    2  A    between atoms: N2_9  and  C6_10 
REMARK    3  A    between atoms: C6_10  and  C7_11 
REMARK    4  A    between atoms: N3_15  and  S1_16 
REMARK    5  A    between atoms: S1_16  and  C11_19 
REMARK    6  A    between atoms: C11_19  and  C12_20 
ROOT
HETATM    1  C7  UNL     1     -18.580  -3.172   6.035  1.00  0.00     0.028 C 
HETATM    2  C8  UNL     1     -17.370  -2.802   6.864  1.00  0.00     0.009 C 
HETATM    3  C9  UNL     1     -16.627  -1.713   6.125  1.00  0.00     0.016 C 
HETATM    4  C10 UNL     1     -15.997  -2.381   4.891  1.00  0.00     0.107 C 
HETATM    5  N3  UNL     1     -16.897  -3.271   4.255  1.00  0.00    -0.210 NA
HETATM    6  C18 UNL     1     -18.293  -3.058   4.553  1.00  0.00     0.113 C 
ENDROOT
BRANCH   1   7
HETATM    7  C6  UNL     1     -19.674  -2.176   6.347  1.00  0.00     0.278 C 
BRANCH   7   8
HETATM    8  N2  UNL     1     -20.850  -2.377   5.562  1.00  0.00     0.088 N 
HETATM    9  C5  UNL     1     -22.065  -2.543   6.294  1.00  0.00     0.274 C 
HETATM   10  C4  UNL     1     -23.195  -1.943   5.485  1.00  0.00     0.055 C 
HETATM   11  C3  UNL     1     -23.025  -0.438   5.517  1.00  0.00     0.087 C 
HETATM   12  C20 UNL     1     -21.586  -0.130   5.195  1.00  0.00     0.055 C 
HETATM   13  C19 UNL     1     -20.957  -1.336   4.576  1.00  0.00     0.274 C 
BRANCH  11  14
HETATM   14  N1  UNL     1     -23.912   0.215   4.573  1.00  0.00    -0.357 N 
HETATM   15  C2  UNL     1     -25.288   0.337   4.903  1.00  0.00     0.213 C 
HETATM   16  C1  UNL     1     -26.263   0.994   3.983  1.00  0.00     0.117 C 
HETATM   17  O1  UNL     1     -25.763  -0.102   5.988  1.00  0.00    -0.274 OA
ATOM     18  H1  UNL     1     -23.555   0.579   3.690  1.00  0.00     0.162 HD
ENDBRANCH  11  14
ENDBRANCH   7   8
ENDBRANCH   1   7
BRANCH   5  19
HETATM   19  S1  UNL     1     -16.732  -3.432   2.559  1.00  0.00     0.211 S 
HETATM   20  O2  UNL     1     -17.634  -4.593   2.156  1.00  0.00    -0.211 OA
HETATM   21  O3  UNL     1     -17.326  -2.199   1.939  1.00  0.00    -0.211 OA
BRANCH  19  22
HETATM   22  C11 UNL     1     -15.126  -3.783   1.992  1.00  0.00     0.162 C 
BRANCH  22  23
HETATM   23  C12 UNL     1     -14.782  -5.206   1.753  1.00  0.00     0.001 C 
HETATM   24  C13 UNL     1     -13.313  -5.198   1.269  1.00  0.00     0.005 C 
HETATM   25  C14 UNL     1     -12.433  -5.311   2.495  1.00  0.00     0.000 C 
HETATM   26  C15 UNL     1     -12.432  -6.778   2.896  1.00  0.00     0.000 C 
HETATM   27  C16 UNL     1     -13.876  -7.207   2.952  1.00  0.00     0.000 C 
HETATM   28  C17 UNL     1     -14.813  -6.015   3.054  1.00  0.00     0.005 C 
ENDBRANCH  22  23
ENDBRANCH  19  22
ENDBRANCH   5  19
TORSDOF 6
ENDMDL
MODEL 3
REMARK VINA RESULT: -7.911287259      2.921      8.535
REMARK  6 active torsions:
REMARK  status: ('A' for Active; 'I' for Inactive)
REMARK       I    between atoms: C2_2  and  N1_4 
REMARK    1  A    between atoms: N1_4  and  C3_6 
REMARK    2  A    between atoms: N2_9  and  C6_10 
REMARK    3  A    between atoms: C6_10  and  C7_11 
REMARK    4  A    between atoms: N3_15  and  S1_16 
REMARK    5  A    between atoms: S1_16  and  C11_19 
REMARK    6  A    between atoms: C11_19  and  C12_20 
ROOT
HETATM    1  C7  UNL     1     -16.599  -2.161   4.850  1.00  0.00     0.028 C 
HETATM    2  C8  UNL     1     -16.443  -2.484   6.320  1.00  0.00     0.009 C 
HETATM    3  C9  UNL     1     -17.728  -3.131   6.784  1.00  0.00     0.016 C 
HETATM    4  C10 UNL     1     -18.792  -2.019   6.794  1.00  0.00     0.107 C 
HETATM    5  N3  UNL     1     -18.710  -1.200   5.642  1.00  0.00    -0.210 NA
HETATM    6  C18 UNL     1     -18.025  -1.783   4.514  1.00  0.00     0.113 C 
ENDROOT
BRANCH   1   7
HETATM    7  C6  UNL     1     -16.282  -3.416   4.068  1.00  0.00     0.278 C 
BRANCH   7   8
HETATM    8  N2  UNL     1     -15.521  -3.157   2.887  1.00  0.00     0.088 N 
HETATM    9  C5  UNL     1     -15.142  -4.306   2.128  1.00  0.00     0.274 C 
HETATM   10  C4  UNL     1     -15.122  -3.924   0.663  1.00  0.00     0.055 C 
HETATM   11  C3  UNL     1     -16.560  -3.735   0.226  1.00  0.00     0.087 C 
HETATM   12  C20 UNL     1     -17.242  -2.864   1.250  1.00  0.00     0.055 C 
HETATM   13  C19 UNL     1     -16.201  -2.182   2.078  1.00  0.00     0.274 C 
BRANCH  11  14
HETATM   14  N1  UNL     1     -16.637  -3.131  -1.092  1.00  0.00    -0.357 N 
HETATM   15  C2  UNL     1     -17.666  -3.553  -1.974  1.00  0.00     0.213 C 
HETATM   16  C1  UNL     1     -17.811  -2.981  -3.345  1.00  0.00     0.117 C 
HETATM   17  O1  UNL     1     -18.515  -4.431  -1.651  1.00  0.00    -0.274 OA
ATOM     18  H1  UNL     1     -15.966  -2.419  -1.378  1.00  0.00     0.162 HD
ENDBRANCH  11  14
ENDBRANCH   7   8
ENDBRANCH   1   7
BRANCH   5  19
HETATM   19  S1  UNL     1     -20.183  -0.530   5.084  1.00  0.00     0.211 S 
HETATM   20  O2  UNL     1     -20.004   0.984   5.136  1.00  0.00    -0.211 OA
HETATM   21  O3  UNL     1     -20.309  -0.891   3.631  1.00  0.00    -0.211 OA
BRANCH  19  22
HETATM   22  C11 UNL     1     -21.592  -0.933   6.019  1.00  0.00     0.162 C 
BRANCH  22  23
HETATM   23  C12 UNL     1     -22.715  -1.594   5.313  1.00  0.00     0.001 C 
HETATM   24  C13 UNL     1     -22.618  -3.089   5.694  1.00  0.00     0.005 C 
HETATM   25  C14 UNL     1     -23.440  -3.290   6.948  1.00  0.00     0.000 C 
HETATM   26  C15 UNL     1     -24.894  -3.361   6.508  1.00  0.00     0.000 C 
HETATM   27  C16 UNL     1     -25.133  -2.164   5.624  1.00  0.00     0.000 C 
HETATM   28  C17 UNL     1     -24.071  -1.096   5.826  1.00  0.00     0.005 C 
ENDBRANCH  22  23
ENDBRANCH  19  22
ENDBRANCH   5  19
TORSDOF 6
ENDMDL
MODEL 4
REMARK VINA RESULT: -7.824698759      1.793      2.293
REMARK  6 active torsions:
REMARK  status: ('A' for Active; 'I' for Inactive)
REMARK       I    between atoms: C2_2  and  N1_4 
REMARK    1  A    between atoms: N1_4  and  C3_6 
REMARK    2  A    between atoms: N2_9  and  C6_10 
REMARK    3  A    between atoms: C6_10  and  C7_11 
REMARK    4  A    between atoms: N3_15  and  S1_16 
REMARK    5  A    between atoms: S1_16  and  C11_19 
REMARK    6  A    between atoms: C11_19  and  C12_20 
ROOT
HETATM    1  C7  UNL     1     -18.621  -3.197   6.159  1.00  0.00     0.028 C 
HETATM    2  C8  UNL     1     -17.377  -2.672   6.841  1.00  0.00     0.009 C 
HETATM    3  C9  UNL     1     -16.803  -1.582   5.967  1.00  0.00     0.016 C 
HETATM    4  C10 UNL     1     -16.233  -2.282   4.722  1.00  0.00     0.107 C 
HETATM    5  N3  UNL     1     -17.106  -3.285   4.234  1.00  0.00    -0.210 NA
HETATM    6  C18 UNL     1     -18.482  -3.166   4.652  1.00  0.00     0.113 C 
ENDROOT
BRANCH   1   7
HETATM    7  C6  UNL     1     -19.765  -2.273   6.512  1.00  0.00     0.278 C 
BRANCH   7   8
HETATM    8  N2  UNL     1     -20.911  -2.465   5.682  1.00  0.00     0.088 N 
HETATM    9  C5  UNL     1     -22.155  -2.622   6.366  1.00  0.00     0.274 C 
HETATM   10  C4  UNL     1     -23.248  -2.012   5.515  1.00  0.00     0.055 C 
HETATM   11  C3  UNL     1     -23.069  -0.509   5.558  1.00  0.00     0.087 C 
HETATM   12  C20 UNL     1     -21.615  -0.211   5.292  1.00  0.00     0.055 C 
HETATM   13  C19 UNL     1     -20.973  -1.420   4.695  1.00  0.00     0.274 C 
BRANCH  11  14
HETATM   14  N1  UNL     1     -23.913   0.152   4.581  1.00  0.00    -0.357 N 
HETATM   15  C2  UNL     1     -25.294   0.313   4.872  1.00  0.00     0.213 C 
HETATM   16  C1  UNL     1     -26.227   0.982   3.918  1.00  0.00     0.117 C 
HETATM   17  O1  UNL     1     -25.808  -0.097   5.951  1.00  0.00    -0.274 OA
ATOM     18  H1  UNL     1     -23.524   0.494   3.702  1.00  0.00     0.162 HD
ENDBRANCH  11  14
ENDBRANCH   7   8
ENDBRANCH   1   7
BRANCH   5  19
HETATM   19  S1  UNL     1     -17.083  -3.552   2.544  1.00  0.00     0.211 S 
HETATM   20  O2  UNL     1     -18.449  -4.132   2.190  1.00  0.00    -0.211 OA
HETATM   21  O3  UNL     1     -17.013  -2.204   1.885  1.00  0.00    -0.211 OA
BRANCH  19  22
HETATM   22  C11 UNL     1     -15.870  -4.661   1.976  1.00  0.00     0.162 C 
BRANCH  22  23
HETATM   23  C12 UNL     1     -14.691  -4.889   2.847  1.00  0.00     0.001 C 
HETATM   24  C13 UNL     1     -14.346  -6.388   2.688  1.00  0.00     0.005 C 
HETATM   25  C14 UNL     1     -13.373  -6.507   1.535  1.00  0.00     0.000 C 
HETATM   26  C15 UNL     1     -12.008  -6.114   2.076  1.00  0.00     0.000 C 
HETATM   27  C16 UNL     1     -12.191  -4.796   2.784  1.00  0.00     0.000 C 
HETATM   28  C17 UNL     1     -13.471  -4.101   2.355  1.00  0.00     0.005 C 
ENDBRANCH  22  23
ENDBRANCH  19  22
ENDBRANCH   5  19
TORSDOF 6
ENDMDL
MODEL 5
REMARK VINA RESULT: -7.738369836      3.086      8.847
REMARK  6 active torsions:
REMARK  status: ('A' for Active; 'I' for Inactive)
REMARK       I    between atoms: C2_2  and  N1_4 
REMARK    1  A    between atoms: N1_4  and  C3_6 
REMARK    2  A    between atoms: N2_9  and  C6_10 
REMARK    3  A    between atoms: C6_10  and  C7_11 
REMARK    4  A    between atoms: N3_15  and  S1_16 
REMARK    5  A    between atoms: S1_16  and  C11_19 
REMARK    6  A    between atoms: C11_19  and  C12_20 
ROOT
HETATM    1  C7  UNL     1     -17.189  -2.333   4.263  1.00  0.00     0.028 C 
HETATM    2  C8  UNL     1     -16.424  -2.076   5.543  1.00  0.00     0.009 C 
HETATM    3  C9  UNL     1     -16.864  -3.111   6.553  1.00  0.00     0.016 C 
HETATM    4  C10 UNL     1     -18.307  -2.747   6.944  1.00  0.00     0.107 C 
HETATM    5  N3  UNL     1     -19.085  -2.387   5.816  1.00  0.00    -0.210 NA
HETATM    6  C18 UNL     1     -18.583  -2.849   4.544  1.00  0.00     0.113 C 
ENDROOT
BRANCH   1   7
HETATM    7  C6  UNL     1     -16.463  -3.421   3.504  1.00  0.00     0.278 C 
BRANCH   7   8
HETATM    8  N2  UNL     1     -15.917  -2.966   2.266  1.00  0.00     0.088 N 
HETATM    9  C5  UNL     1     -15.402  -3.980   1.403  1.00  0.00     0.274 C 
HETATM   10  C4  UNL     1     -15.635  -3.551  -0.030  1.00  0.00     0.055 C 
HETATM   11  C3  UNL     1     -17.122  -3.654  -0.297  1.00  0.00     0.087 C 
HETATM   12  C20 UNL     1     -17.842  -2.983   0.845  1.00  0.00     0.055 C 
HETATM   13  C19 UNL     1     -16.874  -2.128   1.595  1.00  0.00     0.274 C 
BRANCH  11  14
HETATM   14  N1  UNL     1     -17.476  -3.033  -1.560  1.00  0.00    -0.357 N 
HETATM   15  C2  UNL     1     -18.270  -3.768  -2.480  1.00  0.00     0.213 C 
HETATM   16  C1  UNL     1     -18.675  -3.199  -3.800  1.00  0.00     0.117 C 
HETATM   17  O1  UNL     1     -18.677  -4.939  -2.236  1.00  0.00    -0.274 OA
ATOM     18  H1  UNL     1     -17.162  -2.089  -1.782  1.00  0.00     0.162 HD
ENDBRANCH  11  14
ENDBRANCH   7   8
ENDBRANCH   1   7
BRANCH   5  19
HETATM   19  S1  UNL     1     -20.753  -2.757   5.898  1.00  0.00     0.211 S 
HETATM   20  O2  UNL     1     -20.944  -4.029   5.078  1.00  0.00    -0.211 OA
HETATM   21  O3  UNL     1     -21.054  -3.125   7.324  1.00  0.00    -0.211 OA
BRANCH  19  22
HETATM   22  C11 UNL     1     -21.823  -1.545   5.258  1.00  0.00     0.162 C 
BRANCH  22  23
HETATM   23  C12 UNL     1     -23.139  -1.375   5.922  1.00  0.00     0.001 C 
HETATM   24  C13 UNL     1     -23.733  -0.076   5.331  1.00  0.00     0.005 C 
HETATM   25  C14 UNL     1     -24.531  -0.462   4.104  1.00  0.00     0.000 C 
HETATM   26  C15 UNL     1     -25.862  -1.001   4.604  1.00  0.00     0.000 C 
HETATM   27  C16 UNL     1     -25.540  -2.029   5.658  1.00  0.00     0.000 C 
HETATM   28  C17 UNL     1     -24.102  -2.509   5.553  1.00  0.00     0.005 C 
ENDBRANCH  22  23
ENDBRANCH  19  22
ENDBRANCH   5  19
TORSDOF 6
ENDMDL
