MODEL 1
REMARK VINA RESULT: -5.396272635      0.000      0.000
REMARK  5 active torsions:
REMARK  status: ('A' for Active; 'I' for Inactive)
REMARK    1  A    between atoms: O1_1  and  C1_3 
REMARK    2  A    between atoms: C1_3  and  C2_4 
REMARK    3  A    between atoms: C2_4  and  C3_5 
REMARK    4  A    between atoms: C3_5  and  N1_6 
REMARK    5  A    between atoms: N2_11  and  O2_13 
ROOT
HETATM    1  C2  UNL     1      64.998  96.505  50.789  1.00  0.00     0.065 C 
HETATM    2  N2  UNL     1      65.179  97.547  51.509  1.00  0.00    -0.270 N 
ATOM      3  H2  UNL     1      65.651  97.469  52.410  1.00  0.00     0.194 HD
ENDROOT
BRANCH   1   4
HETATM    4  C1  UNL     1      64.297  96.641  49.458  1.00  0.00     0.224 C 
BRANCH   4   5
HETATM    5  O1  UNL     1      64.247  95.451  48.785  1.00  0.00    -0.395 OA
ATOM      6  H1  UNL     1      63.577  95.453  48.112  1.00  0.00     0.209 HD
ENDBRANCH   4   5
ENDBRANCH   1   4
BRANCH   1   7
HETATM    7  C3  UNL     1      65.422  95.156  51.230  1.00  0.00     0.088 C 
BRANCH   7   8
HETATM    8  N1  UNL     1      66.551  95.080  52.071  1.00  0.00    -0.291 NA
HETATM    9  C4  UNL     1      66.631  94.001  53.011  1.00  0.00     0.095 C 
HETATM   10  C5  UNL     1      67.587  92.972  52.386  1.00  0.00     0.016 C 
HETATM   11  C6  UNL     1      68.047  93.637  51.094  1.00  0.00     0.016 C 
HETATM   12  C7  UNL     1      67.828  95.090  51.432  1.00  0.00     0.095 C 
ENDBRANCH   7   8
ENDBRANCH   1   7
BRANCH   2  13
HETATM   13  O2  UNL     1      64.732  98.792  51.062  1.00  0.00    -0.290 OA
ATOM     14  H2  UNL     1      64.068  99.264  51.552  1.00  0.00     0.244 HD
ENDBRANCH   2  13
TORSDOF 5
ENDMDL
MODEL 2
REMARK VINA RESULT: -4.918570513      1.267      1.836
REMARK  5 active torsions:
REMARK  status: ('A' for Active; 'I' for Inactive)
REMARK    1  A    between atoms: O1_1  and  C1_3 
REMARK    2  A    between atoms: C1_3  and  C2_4 
REMARK    3  A    between atoms: C2_4  and  C3_5 
REMARK    4  A    between atoms: C3_5  and  N1_6 
REMARK    5  A    between atoms: N2_11  and  O2_13 
ROOT
HETATM    1  C2  UNL     1      64.816  96.694  50.412  1.00  0.00     0.065 C 
HETATM    2  N2  UNL     1      64.273  96.818  49.260  1.00  0.00    -0.270 N 
ATOM      3  H2  UNL     1      64.141  95.997  48.668  1.00  0.00     0.194 HD
ENDROOT
BRANCH   1   4
HETATM    4  C1  UNL     1      65.003  97.922  51.273  1.00  0.00     0.224 C 
BRANCH   4   5
HETATM    5  O1  UNL     1      65.710  98.896  50.622  1.00  0.00    -0.395 OA
ATOM      6  H1  UNL     1      65.139  99.501  50.164  1.00  0.00     0.209 HD
ENDBRANCH   4   5
ENDBRANCH   1   4
BRANCH   1   7
HETATM    7  C3  UNL     1      65.300  95.392  50.923  1.00  0.00     0.088 C 
BRANCH   7   8
HETATM    8  N1  UNL     1      66.365  95.418  51.847  1.00  0.00    -0.291 NA
HETATM    9  C4  UNL     1      66.303  94.551  52.985  1.00  0.00     0.095 C 
HETATM   10  C5  UNL     1      67.216  93.359  52.653  1.00  0.00     0.016 C 
HETATM   11  C6  UNL     1      67.805  93.718  51.294  1.00  0.00     0.016 C 
HETATM   12  C7  UNL     1      67.676  95.221  51.319  1.00  0.00     0.095 C 
ENDBRANCH   7   8
ENDBRANCH   1   7
BRANCH   2  13
HETATM   13  O2  UNL     1      63.862  98.074  48.811  1.00  0.00    -0.290 OA
ATOM     14  H2  UNL     1      64.140  98.389  47.959  1.00  0.00     0.244 HD
ENDBRANCH   2  13
TORSDOF 5
ENDMDL
MODEL 3
REMARK VINA RESULT: -4.657310147      3.069      5.546
REMARK  5 active torsions:
REMARK  status: ('A' for Active; 'I' for Inactive)
REMARK    1  A    between atoms: O1_1  and  C1_3 
REMARK    2  A    between atoms: C1_3  and  C2_4 
REMARK    3  A    between atoms: C2_4  and  C3_5 
REMARK    4  A    between atoms: C3_5  and  N1_6 
REMARK    5  A    between atoms: N2_11  and  O2_13 
ROOT
HETATM    1  C2  UNL     1      64.887  97.535  50.486  1.00  0.00     0.065 C 
HETATM    2  N2  UNL     1      65.190  97.694  51.719  1.00  0.00    -0.270 N 
ATOM      3  H2  UNL     1      65.469  98.614  52.061  1.00  0.00     0.194 HD
ENDROOT
BRANCH   1   4
HETATM    4  C1  UNL     1      64.475  96.165  50.000  1.00  0.00     0.224 C 
BRANCH   4   5
HETATM    5  O1  UNL     1      65.411  95.214  50.306  1.00  0.00    -0.395 OA
ATOM      6  H1  UNL     1      65.274  94.850  51.172  1.00  0.00     0.209 HD
ENDBRANCH   4   5
ENDBRANCH   1   4
BRANCH   1   7
HETATM    7  C3  UNL     1      64.959  98.642  49.505  1.00  0.00     0.088 C 
BRANCH   7   8
HETATM    8  N1  UNL     1      63.766  98.988  48.838  1.00  0.00    -0.291 NA
HETATM    9  C4  UNL     1      63.556 100.360  48.483  1.00  0.00     0.095 C 
HETATM   10  C5  UNL     1      63.892 100.461  46.986  1.00  0.00     0.016 C 
HETATM   11  C6  UNL     1      64.217  99.026  46.587  1.00  0.00     0.016 C 
HETATM   12  C7  UNL     1      63.464  98.262  47.647  1.00  0.00     0.095 C 
ENDBRANCH   7   8
ENDBRANCH   1   7
BRANCH   2  13
HETATM   13  O2  UNL     1      65.137  96.611  52.598  1.00  0.00    -0.290 OA
ATOM     14  H2  UNL     1      64.317  96.378  53.018  1.00  0.00     0.244 HD
ENDBRANCH   2  13
TORSDOF 5
ENDMDL
MODEL 4
REMARK VINA RESULT: -4.245043820      2.911      3.848
REMARK  5 active torsions:
REMARK  status: ('A' for Active; 'I' for Inactive)
REMARK    1  A    between atoms: O1_1  and  C1_3 
REMARK    2  A    between atoms: C1_3  and  C2_4 
REMARK    3  A    between atoms: C2_4  and  C3_5 
REMARK    4  A    between atoms: C3_5  and  N1_6 
REMARK    5  A    between atoms: N2_11  and  O2_13 
ROOT
HETATM    1  C2  UNL     1      63.995  99.118  48.580  1.00  0.00     0.065 C 
HETATM    2  N2  UNL     1      63.584 100.314  48.768  1.00  0.00    -0.270 N 
ATOM      3  H2  UNL     1      63.901 100.841  49.582  1.00  0.00     0.194 HD
ENDROOT
BRANCH   1   4
HETATM    4  C1  UNL     1      63.513  98.355  47.368  1.00  0.00     0.224 C 
BRANCH   4   5
HETATM    5  O1  UNL     1      63.869  98.976  46.202  1.00  0.00    -0.395 OA
ATOM      6  H1  UNL     1      64.478  98.454  45.694  1.00  0.00     0.209 HD
ENDBRANCH   4   5
ENDBRANCH   1   4
BRANCH   1   7
HETATM    7  C3  UNL     1      64.905  98.436  49.529  1.00  0.00     0.088 C 
BRANCH   7   8
HETATM    8  N1  UNL     1      64.337  97.472  50.386  1.00  0.00    -0.291 NA
HETATM    9  C4  UNL     1      64.250  96.117  49.927  1.00  0.00     0.095 C 
HETATM   10  C5  UNL     1      65.415  95.373  50.601  1.00  0.00     0.016 C 
HETATM   11  C6  UNL     1      66.057  96.428  51.493  1.00  0.00     0.016 C 
HETATM   12  C7  UNL     1      64.896  97.369  51.695  1.00  0.00     0.095 C 
ENDBRANCH   7   8
ENDBRANCH   1   7
BRANCH   2  13
HETATM   13  O2  UNL     1      62.701 100.901  47.860  1.00  0.00    -0.290 OA
ATOM     14  H2  UNL     1      62.680 101.846  47.758  1.00  0.00     0.244 HD
ENDBRANCH   2  13
TORSDOF 5
ENDMDL
MODEL 5
REMARK VINA RESULT: -4.221258771      1.425      2.501
REMARK  5 active torsions:
REMARK  status: ('A' for Active; 'I' for Inactive)
REMARK    1  A    between atoms: O1_1  and  C1_3 
REMARK    2  A    between atoms: C1_3  and  C2_4 
REMARK    3  A    between atoms: C2_4  and  C3_5 
REMARK    4  A    between atoms: C3_5  and  N1_6 
REMARK    5  A    between atoms: N2_11  and  O2_13 
ROOT
HETATM    1  C2  UNL     1      64.758  96.968  50.156  1.00  0.00     0.065 C 
HETATM    2  N2  UNL     1      64.269  96.220  49.240  1.00  0.00    -0.270 N 
ATOM      3  H2  UNL     1      64.289  95.206  49.347  1.00  0.00     0.194 HD
ENDROOT
BRANCH   1   4
HETATM    4  C1  UNL     1      64.719  98.469  49.980  1.00  0.00     0.224 C 
BRANCH   4   5
HETATM    5  O1  UNL     1      65.793  99.078  50.570  1.00  0.00    -0.395 OA
ATOM      6  H1  UNL     1      65.554  99.907  50.966  1.00  0.00     0.209 HD
ENDBRANCH   4   5
ENDBRANCH   1   4
BRANCH   1   7
HETATM    7  C3  UNL     1      65.393  96.415  51.374  1.00  0.00     0.088 C 
BRANCH   7   8
HETATM    8  N1  UNL     1      65.668  95.033  51.385  1.00  0.00    -0.291 NA
HETATM    9  C4  UNL     1      66.924  94.582  50.865  1.00  0.00     0.095 C 
HETATM   10  C5  UNL     1      67.811  94.310  52.091  1.00  0.00     0.016 C 
HETATM   11  C6  UNL     1      66.891  94.585  53.276  1.00  0.00     0.016 C 
HETATM   12  C7  UNL     1      65.541  94.365  52.640  1.00  0.00     0.095 C 
ENDBRANCH   7   8
ENDBRANCH   1   7
BRANCH   2  13
HETATM   13  O2  UNL     1      63.710  96.790  48.096  1.00  0.00    -0.290 OA
ATOM     14  H2  UNL     1      64.110  96.644  47.246  1.00  0.00     0.244 HD
ENDBRANCH   2  13
TORSDOF 5
ENDMDL
