MODEL 1
REMARK VINA RESULT: -7.936377654      0.000      0.000
REMARK  4 active torsions:
REMARK  status: ('A' for Active; 'I' for Inactive)
REMARK    1  A    between atoms: C4_5  and  C5_6 
REMARK    2  A    between atoms: C5_6  and  C6_7 
REMARK    3  A    between atoms: C6_7  and  O1_8 
REMARK    4  A    between atoms: O1_8  and  C7_9 
ROOT
HETATM    1  C7  UNL     1      31.112 -19.344  17.771  1.00  0.00     0.111 A 
HETATM    2  C8  UNL     1      31.041 -20.476  18.604  1.00  0.00     0.081 A 
HETATM    3  N2  UNL     1      29.787 -20.761  19.262  1.00  0.00    -0.099 NA
HETATM    4  C9  UNL     1      32.122 -21.289  18.799  1.00  0.00     0.032 A 
HETATM    5  C10 UNL     1      33.307 -20.997  18.169  1.00  0.00     0.032 A 
HETATM    6  C11 UNL     1      33.397 -19.882  17.345  1.00  0.00     0.045 A 
HETATM    7  N3  UNL     1      34.399 -19.336  16.642  1.00  0.00    -0.365 N 
ATOM      8  H3  UNL     1      35.342 -19.720  16.587  1.00  0.00     0.165 HD
HETATM    9  C12 UNL     1      33.996 -18.220  16.023  1.00  0.00     0.089 A 
HETATM   10  C13 UNL     1      32.683 -18.012  16.317  1.00  0.00     0.034 A 
HETATM   11  C14 UNL     1      32.295 -19.053  17.146  1.00  0.00     0.028 A 
ENDROOT
BRANCH   1  12
HETATM   12  O1  UNL     1      29.956 -18.623  17.672  1.00  0.00    -0.320 OA
BRANCH  12  13
HETATM   13  C6  UNL     1      29.546 -17.430  18.181  1.00  0.00     0.143 C 
BRANCH  13  14
HETATM   14  C5  UNL     1      29.378 -17.031  19.563  1.00  0.00     0.036 C 
BRANCH  14  15
HETATM   15  C4  UNL     1      30.463 -17.118  20.530  1.00  0.00    -0.034 A 
HETATM   16  C3  UNL     1      31.803 -17.241  20.277  1.00  0.00     0.013 A 
HETATM   17  C2  UNL     1      32.777 -17.320  21.253  1.00  0.00     0.027 A 
HETATM   18  C1  UNL     1      32.436 -17.278  22.588  1.00  0.00     0.046 A 
HETATM   19  N1  UNL     1      33.432 -17.359  23.594  1.00  0.00    -0.102 NA
HETATM   20  C16 UNL     1      31.094 -17.154  22.865  1.00  0.00     0.027 A 
HETATM   21  C15 UNL     1      30.129 -17.075  21.895  1.00  0.00     0.013 A 
ENDBRANCH  14  15
ENDBRANCH  13  14
ENDBRANCH  12  13
ENDBRANCH   1  12
TORSDOF 4
ENDMDL
MODEL 2
REMARK VINA RESULT: -7.928189799      1.683      5.082
REMARK  4 active torsions:
REMARK  status: ('A' for Active; 'I' for Inactive)
REMARK    1  A    between atoms: C4_5  and  C5_6 
REMARK    2  A    between atoms: C5_6  and  C6_7 
REMARK    3  A    between atoms: C6_7  and  O1_8 
REMARK    4  A    between atoms: O1_8  and  C7_9 
ROOT
HETATM    1  C7  UNL     1      30.051 -18.084  19.828  1.00  0.00     0.111 A 
HETATM    2  C8  UNL     1      29.827 -17.189  18.766  1.00  0.00     0.081 A 
HETATM    3  N2  UNL     1      29.112 -17.670  17.607  1.00  0.00    -0.099 NA
HETATM    4  C9  UNL     1      30.271 -15.897  18.815  1.00  0.00     0.032 A 
HETATM    5  C10 UNL     1      30.954 -15.460  19.924  1.00  0.00     0.032 A 
HETATM    6  C11 UNL     1      31.187 -16.331  20.981  1.00  0.00     0.045 A 
HETATM    7  N3  UNL     1      31.835 -16.209  22.147  1.00  0.00    -0.365 N 
ATOM      8  H3  UNL     1      32.280 -15.351  22.474  1.00  0.00     0.165 HD
HETATM    9  C12 UNL     1      31.819 -17.362  22.827  1.00  0.00     0.089 A 
HETATM   10  C13 UNL     1      31.138 -18.286  22.094  1.00  0.00     0.034 A 
HETATM   11  C14 UNL     1      30.734 -17.648  20.932  1.00  0.00     0.028 A 
ENDROOT
BRANCH   1  12
HETATM   12  O1  UNL     1      29.553 -19.343  19.641  1.00  0.00    -0.320 OA
BRANCH  12  13
HETATM   13  C6  UNL     1      30.119 -20.543  19.343  1.00  0.00     0.143 C 
BRANCH  13  14
HETATM   14  C5  UNL     1      31.484 -20.845  18.965  1.00  0.00     0.036 C 
BRANCH  14  15
HETATM   15  C4  UNL     1      32.386 -19.828  18.446  1.00  0.00    -0.034 A 
HETATM   16  C3  UNL     1      33.397 -19.185  19.111  1.00  0.00     0.013 A 
HETATM   17  C2  UNL     1      34.214 -18.225  18.548  1.00  0.00     0.027 A 
HETATM   18  C1  UNL     1      34.046 -17.845  17.233  1.00  0.00     0.046 A 
HETATM   19  N1  UNL     1      34.881 -16.859  16.651  1.00  0.00    -0.102 NA
HETATM   20  C16 UNL     1      33.036 -18.479  16.546  1.00  0.00     0.027 A 
HETATM   21  C15 UNL     1      32.227 -19.433  17.107  1.00  0.00     0.013 A 
ENDBRANCH  14  15
ENDBRANCH  13  14
ENDBRANCH  12  13
ENDBRANCH   1  12
TORSDOF 4
ENDMDL
MODEL 3
REMARK VINA RESULT: -7.876773948      1.291      1.565
REMARK  4 active torsions:
REMARK  status: ('A' for Active; 'I' for Inactive)
REMARK    1  A    between atoms: C4_5  and  C5_6 
REMARK    2  A    between atoms: C5_6  and  C6_7 
REMARK    3  A    between atoms: C6_7  and  O1_8 
REMARK    4  A    between atoms: O1_8  and  C7_9 
ROOT
HETATM    1  C7  UNL     1      30.957 -19.215  17.827  1.00  0.00     0.111 A 
HETATM    2  C8  UNL     1      31.015 -20.385  18.606  1.00  0.00     0.081 A 
HETATM    3  N2  UNL     1      29.807 -20.827  19.264  1.00  0.00    -0.099 NA
HETATM    4  C9  UNL     1      32.176 -21.092  18.748  1.00  0.00     0.032 A 
HETATM    5  C10 UNL     1      33.314 -20.653  18.118  1.00  0.00     0.032 A 
HETATM    6  C11 UNL     1      33.277 -19.497  17.348  1.00  0.00     0.045 A 
HETATM    7  N3  UNL     1      34.206 -18.820  16.661  1.00  0.00    -0.365 N 
ATOM      8  H3  UNL     1      35.183 -19.103  16.576  1.00  0.00     0.165 HD
HETATM    9  C12 UNL     1      33.683 -17.723  16.100  1.00  0.00     0.089 A 
HETATM   10  C13 UNL     1      32.360 -17.663  16.420  1.00  0.00     0.034 A 
HETATM   11  C14 UNL     1      32.094 -18.776  17.202  1.00  0.00     0.028 A 
ENDROOT
BRANCH   1  12
HETATM   12  O1  UNL     1      29.732 -18.611  17.778  1.00  0.00    -0.320 OA
BRANCH  12  13
HETATM   13  C6  UNL     1      29.197 -17.520  18.388  1.00  0.00     0.143 C 
BRANCH  13  14
HETATM   14  C5  UNL     1      29.855 -16.326  18.878  1.00  0.00     0.036 C 
BRANCH  14  15
HETATM   15  C4  UNL     1      30.120 -16.114  20.293  1.00  0.00    -0.034 A 
HETATM   16  C3  UNL     1      29.989 -17.017  21.315  1.00  0.00     0.013 A 
HETATM   17  C2  UNL     1      30.259 -16.740  22.640  1.00  0.00     0.027 A 
HETATM   18  C1  UNL     1      30.689 -15.487  23.020  1.00  0.00     0.046 A 
HETATM   19  N1  UNL     1      30.967 -15.197  24.379  1.00  0.00    -0.102 NA
HETATM   20  C16 UNL     1      30.827 -14.563  22.009  1.00  0.00     0.027 A 
HETATM   21  C15 UNL     1      30.560 -14.841  20.694  1.00  0.00     0.013 A 
ENDBRANCH  14  15
ENDBRANCH  13  14
ENDBRANCH  12  13
ENDBRANCH   1  12
TORSDOF 4
ENDMDL
MODEL 4
REMARK VINA RESULT: -7.868048804      2.352      5.979
REMARK  4 active torsions:
REMARK  status: ('A' for Active; 'I' for Inactive)
REMARK    1  A    between atoms: C4_5  and  C5_6 
REMARK    2  A    between atoms: C5_6  and  C6_7 
REMARK    3  A    between atoms: C6_7  and  O1_8 
REMARK    4  A    between atoms: O1_8  and  C7_9 
ROOT
HETATM    1  C7  UNL     1      31.802 -16.817  20.964  1.00  0.00     0.111 A 
HETATM    2  C8  UNL     1      32.892 -17.699  21.077  1.00  0.00     0.081 A 
HETATM    3  N2  UNL     1      33.181 -18.572  19.964  1.00  0.00    -0.099 NA
HETATM    4  C9  UNL     1      33.664 -17.741  22.204  1.00  0.00     0.032 A 
HETATM    5  C10 UNL     1      33.370 -16.905  23.254  1.00  0.00     0.032 A 
HETATM    6  C11 UNL     1      32.295 -16.031  23.163  1.00  0.00     0.045 A 
HETATM    7  N3  UNL     1      31.755 -15.145  24.010  1.00  0.00    -0.365 N 
ATOM      8  H3  UNL     1      32.114 -14.946  24.944  1.00  0.00     0.165 HD
HETATM    9  C12 UNL     1      30.683 -14.555  23.469  1.00  0.00     0.089 A 
HETATM   10  C13 UNL     1      30.498 -15.060  22.217  1.00  0.00     0.034 A 
HETATM   11  C14 UNL     1      31.508 -15.987  22.014  1.00  0.00     0.028 A 
ENDROOT
BRANCH   1  12
HETATM   12  O1  UNL     1      31.119 -16.886  19.783  1.00  0.00    -0.320 OA
BRANCH  12  13
HETATM   13  C6  UNL     1      31.033 -16.073  18.697  1.00  0.00     0.143 C 
BRANCH  13  14
HETATM   14  C5  UNL     1      32.076 -15.642  17.789  1.00  0.00     0.036 C 
BRANCH  14  15
HETATM   15  C4  UNL     1      33.033 -16.574  17.211  1.00  0.00    -0.034 A 
HETATM   16  C3  UNL     1      34.400 -16.518  17.272  1.00  0.00     0.013 A 
HETATM   17  C2  UNL     1      35.245 -17.444  16.693  1.00  0.00     0.027 A 
HETATM   18  C1  UNL     1      34.736 -18.517  15.994  1.00  0.00     0.046 A 
HETATM   19  N1  UNL     1      35.599 -19.470  15.398  1.00  0.00    -0.102 NA
HETATM   20  C16 UNL     1      33.363 -18.593  15.921  1.00  0.00     0.027 A 
HETATM   21  C15 UNL     1      32.526 -17.673  16.496  1.00  0.00     0.013 A 
ENDBRANCH  14  15
ENDBRANCH  13  14
ENDBRANCH  12  13
ENDBRANCH   1  12
TORSDOF 4
ENDMDL
MODEL 5
REMARK VINA RESULT: -7.840044619      1.677      5.074
REMARK  4 active torsions:
REMARK  status: ('A' for Active; 'I' for Inactive)
REMARK    1  A    between atoms: C4_5  and  C5_6 
REMARK    2  A    between atoms: C5_6  and  C6_7 
REMARK    3  A    between atoms: C6_7  and  O1_8 
REMARK    4  A    between atoms: O1_8  and  C7_9 
ROOT
HETATM    1  C7  UNL     1      30.064 -18.093  19.823  1.00  0.00     0.111 A 
HETATM    2  C8  UNL     1      29.788 -17.215  18.759  1.00  0.00     0.081 A 
HETATM    3  N2  UNL     1      29.106 -17.740  17.600  1.00  0.00    -0.099 NA
HETATM    4  C9  UNL     1      30.153 -15.898  18.806  1.00  0.00     0.032 A 
HETATM    5  C10 UNL     1      30.807 -15.419  19.915  1.00  0.00     0.032 A 
HETATM    6  C11 UNL     1      31.091 -16.272  20.974  1.00  0.00     0.045 A 
HETATM    7  N3  UNL     1      31.728 -16.109  22.140  1.00  0.00    -0.365 N 
ATOM      8  H3  UNL     1      32.121 -15.226  22.466  1.00  0.00     0.165 HD
HETATM    9  C12 UNL     1      31.782 -17.260  22.822  1.00  0.00     0.089 A 
HETATM   10  C13 UNL     1      31.159 -18.225  22.090  1.00  0.00     0.034 A 
HETATM   11  C14 UNL     1      30.719 -17.614  20.927  1.00  0.00     0.028 A 
ENDROOT
BRANCH   1  12
HETATM   12  O1  UNL     1      29.644 -19.380  19.637  1.00  0.00    -0.320 OA
BRANCH  12  13
HETATM   13  C6  UNL     1      30.289 -20.569  19.498  1.00  0.00     0.143 C 
BRANCH  13  14
HETATM   14  C5  UNL     1      31.520 -20.868  18.796  1.00  0.00     0.036 C 
BRANCH  14  15
HETATM   15  C4  UNL     1      32.360 -19.824  18.227  1.00  0.00    -0.034 A 
HETATM   16  C3  UNL     1      32.303 -19.299  16.962  1.00  0.00     0.013 A 
HETATM   17  C2  UNL     1      33.140 -18.307  16.492  1.00  0.00     0.027 A 
HETATM   18  C1  UNL     1      34.117 -17.771  17.304  1.00  0.00     0.046 A 
HETATM   19  N1  UNL     1      34.978 -16.752  16.826  1.00  0.00    -0.102 NA
HETATM   20  C16 UNL     1      34.191 -18.284  18.579  1.00  0.00     0.027 A 
HETATM   21  C15 UNL     1      33.359 -19.269  19.043  1.00  0.00     0.013 A 
ENDBRANCH  14  15
ENDBRANCH  13  14
ENDBRANCH  12  13
ENDBRANCH   1  12
TORSDOF 4
ENDMDL
