MODEL 1
REMARK VINA RESULT: -7.600798728      0.000      0.000
REMARK  6 active torsions:
REMARK  status: ('A' for Active; 'I' for Inactive)
REMARK    1  A    between atoms: N1_1  and  C1_5 
REMARK    2  A    between atoms: C1_5  and  C2_6 
REMARK    3  A    between atoms: C5_9  and  N2_10 
REMARK    4  A    between atoms: N2_10  and  C6_12 
REMARK    5  A    between atoms: C13_19  and  C14_20 
REMARK    6  A    between atoms: C14_20  and  N3_21 
ROOT
HETATM    1  C6  UNL     1      34.044 -17.666  16.225  1.00  0.00     0.033 A 
HETATM    2  C7  UNL     1      34.335 -18.897  15.697  1.00  0.00     0.030 A 
HETATM    3  C8  UNL     1      35.646 -19.274  15.462  1.00  0.00     0.010 A 
HETATM    4  C9  UNL     1      36.659 -18.385  15.770  1.00  0.00    -0.051 A 
HETATM    5  C10 UNL     1      36.387 -17.149  16.299  1.00  0.00    -0.049 A 
HETATM    6  C11 UNL     1      35.100 -16.789  16.526  1.00  0.00     0.037 A 
HETATM    7  C12 UNL     1      37.643 -16.390  16.538  1.00  0.00     0.045 C 
HETATM    8  C13 UNL     1      38.672 -17.113  15.665  1.00  0.00     0.019 C 
HETATM    9  C15 UNL     1      38.118 -18.495  15.637  1.00  0.00     0.045 C 
ENDROOT
BRANCH   1  10
HETATM   10  N2  UNL     1      32.740 -17.221  16.514  1.00  0.00    -0.356 N 
ATOM     11  H2  UNL     1      32.049 -17.307  15.768  1.00  0.00     0.166 HD
BRANCH  10  12
HETATM   12  C5  UNL     1      32.297 -16.670  17.724  1.00  0.00     0.032 A 
HETATM   13  C4  UNL     1      32.190 -17.393  18.885  1.00  0.00     0.030 A 
HETATM   14  C3  UNL     1      31.730 -16.838  20.059  1.00  0.00     0.011 A 
HETATM   15  C2  UNL     1      31.348 -15.517  20.140  1.00  0.00    -0.033 A 
HETATM   16  C17 UNL     1      31.454 -14.781  18.979  1.00  0.00     0.011 A 
HETATM   17  C16 UNL     1      31.910 -15.329  17.809  1.00  0.00     0.030 A 
BRANCH  15  18
HETATM   18  C1  UNL     1      30.852 -14.916  21.403  1.00  0.00     0.268 C 
BRANCH  18  19
HETATM   19  N1  UNL     1      31.708 -15.347  22.495  1.00  0.00    -0.075 N 
ATOM     20  H13 UNL     1      31.621 -14.750  23.317  1.00  0.00     0.274 HD
ATOM     21  H12 UNL     1      31.390 -16.219  22.918  1.00  0.00     0.274 HD
ATOM     22  H11 UNL     1      32.668 -15.406  22.156  1.00  0.00     0.274 HD
ENDBRANCH  18  19
ENDBRANCH  15  18
ENDBRANCH  10  12
ENDBRANCH   1  10
BRANCH   8  23
HETATM   23  C14 UNL     1      38.654 -16.420  14.323  1.00  0.00     0.234 C 
BRANCH  23  24
HETATM   24  N3  UNL     1      39.749 -15.527  14.118  1.00  0.00    -0.079 N 
ATOM     25  H33 UNL     1      39.601 -14.656  14.627  1.00  0.00     0.274 HD
ATOM     26  H32 UNL     1      40.583 -15.867  14.597  1.00  0.00     0.274 HD
ATOM     27  H31 UNL     1      39.950 -15.339  13.136  1.00  0.00     0.274 HD
ENDBRANCH  23  24
ENDBRANCH   8  23
TORSDOF 6
ENDMDL
MODEL 2
REMARK VINA RESULT: -7.543170535      1.473      7.711
REMARK  6 active torsions:
REMARK  status: ('A' for Active; 'I' for Inactive)
REMARK    1  A    between atoms: N1_1  and  C1_5 
REMARK    2  A    between atoms: C1_5  and  C2_6 
REMARK    3  A    between atoms: C5_9  and  N2_10 
REMARK    4  A    between atoms: N2_10  and  C6_12 
REMARK    5  A    between atoms: C13_19  and  C14_20 
REMARK    6  A    between atoms: C14_20  and  N3_21 
ROOT
HETATM    1  C6  UNL     1      32.874 -17.551  18.866  1.00  0.00     0.033 A 
HETATM    2  C7  UNL     1      33.748 -18.063  19.791  1.00  0.00     0.030 A 
HETATM    3  C8  UNL     1      33.414 -18.101  21.133  1.00  0.00     0.010 A 
HETATM    4  C9  UNL     1      32.183 -17.613  21.528  1.00  0.00    -0.051 A 
HETATM    5  C10 UNL     1      31.295 -17.097  20.617  1.00  0.00    -0.049 A 
HETATM    6  C11 UNL     1      31.630 -17.064  19.305  1.00  0.00     0.037 A 
HETATM    7  C12 UNL     1      30.051 -16.642  21.293  1.00  0.00     0.045 C 
HETATM    8  C13 UNL     1      30.467 -16.509  22.761  1.00  0.00     0.019 C 
HETATM    9  C15 UNL     1      31.556 -17.521  22.853  1.00  0.00     0.045 C 
ENDROOT
BRANCH   1  10
HETATM   10  N2  UNL     1      33.130 -17.499  17.484  1.00  0.00    -0.356 N 
ATOM     11  H2  UNL     1      32.338 -17.291  16.876  1.00  0.00     0.166 HD
BRANCH  10  12
HETATM   12  C5  UNL     1      34.368 -17.705  16.859  1.00  0.00     0.032 A 
HETATM   13  C4  UNL     1      34.714 -18.880  16.242  1.00  0.00     0.030 A 
HETATM   14  C3  UNL     1      35.945 -19.070  15.654  1.00  0.00     0.011 A 
HETATM   15  C2  UNL     1      36.909 -18.087  15.649  1.00  0.00    -0.033 A 
HETATM   16  C17 UNL     1      36.572 -16.901  16.265  1.00  0.00     0.011 A 
HETATM   17  C16 UNL     1      35.348 -16.708  16.852  1.00  0.00     0.030 A 
BRANCH  15  18
HETATM   18  C1  UNL     1      38.237 -18.287  15.016  1.00  0.00     0.268 C 
BRANCH  18  19
HETATM   19  N1  UNL     1      38.750 -16.998  14.588  1.00  0.00    -0.075 N 
ATOM     20  H13 UNL     1      38.031 -16.274  14.583  1.00  0.00     0.274 HD
ATOM     21  H12 UNL     1      39.371 -16.576  15.278  1.00  0.00     0.274 HD
ATOM     22  H11 UNL     1      39.198 -17.108  13.678  1.00  0.00     0.274 HD
ENDBRANCH  18  19
ENDBRANCH  15  18
ENDBRANCH  10  12
ENDBRANCH   1  10
BRANCH   8  23
HETATM   23  C14 UNL     1      30.939 -15.085  22.941  1.00  0.00     0.234 C 
BRANCH  23  24
HETATM   24  N3  UNL     1      31.097 -14.696  24.305  1.00  0.00    -0.079 N 
ATOM     25  H33 UNL     1      31.373 -13.716  24.368  1.00  0.00     0.274 HD
ATOM     26  H32 UNL     1      30.191 -14.651  24.772  1.00  0.00     0.274 HD
ATOM     27  H31 UNL     1      31.743 -15.284  24.830  1.00  0.00     0.274 HD
ENDBRANCH  23  24
ENDBRANCH   8  23
TORSDOF 6
ENDMDL
MODEL 3
REMARK VINA RESULT: -7.536106173      1.371      7.397
REMARK  6 active torsions:
REMARK  status: ('A' for Active; 'I' for Inactive)
REMARK    1  A    between atoms: N1_1  and  C1_5 
REMARK    2  A    between atoms: C1_5  and  C2_6 
REMARK    3  A    between atoms: C5_9  and  N2_10 
REMARK    4  A    between atoms: N2_10  and  C6_12 
REMARK    5  A    between atoms: C13_19  and  C14_20 
REMARK    6  A    between atoms: C14_20  and  N3_21 
ROOT
HETATM    1  C6  UNL     1      31.701 -17.687  18.495  1.00  0.00     0.033 A 
HETATM    2  C7  UNL     1      31.528 -18.798  19.281  1.00  0.00     0.030 A 
HETATM    3  C8  UNL     1      31.063 -18.679  20.579  1.00  0.00     0.010 A 
HETATM    4  C9  UNL     1      30.775 -17.420  21.071  1.00  0.00    -0.051 A 
HETATM    5  C10 UNL     1      30.941 -16.298  20.299  1.00  0.00    -0.049 A 
HETATM    6  C11 UNL     1      31.396 -16.424  19.029  1.00  0.00     0.037 A 
HETATM    7  C12 UNL     1      30.563 -15.076  21.058  1.00  0.00     0.045 C 
HETATM    8  C13 UNL     1      30.595 -15.534  22.518  1.00  0.00     0.019 C 
HETATM    9  C15 UNL     1      30.275 -16.982  22.381  1.00  0.00     0.045 C 
ENDROOT
BRANCH   1  10
HETATM   10  N2  UNL     1      32.146 -17.728  17.161  1.00  0.00    -0.356 N 
ATOM     11  H2  UNL     1      31.437 -17.620  16.436  1.00  0.00     0.166 HD
BRANCH  10  12
HETATM   12  C5  UNL     1      33.468 -17.903  16.730  1.00  0.00     0.032 A 
HETATM   13  C4  UNL     1      33.908 -19.032  16.088  1.00  0.00     0.030 A 
HETATM   14  C3  UNL     1      35.218 -19.194  15.694  1.00  0.00     0.011 A 
HETATM   15  C2  UNL     1      36.172 -18.226  15.921  1.00  0.00    -0.033 A 
HETATM   16  C17 UNL     1      35.740 -17.086  16.564  1.00  0.00     0.011 A 
HETATM   17  C16 UNL     1      34.438 -16.921  16.959  1.00  0.00     0.030 A 
BRANCH  15  18
HETATM   18  C1  UNL     1      37.584 -18.395  15.497  1.00  0.00     0.268 C 
BRANCH  18  19
HETATM   19  N1  UNL     1      38.277 -17.130  15.662  1.00  0.00    -0.075 N 
ATOM     20  H13 UNL     1      39.282 -17.249  15.790  1.00  0.00     0.274 HD
ATOM     21  H12 UNL     1      38.308 -16.587  14.798  1.00  0.00     0.274 HD
ATOM     22  H11 UNL     1      37.845 -16.615  16.429  1.00  0.00     0.274 HD
ENDBRANCH  18  19
ENDBRANCH  15  18
ENDBRANCH  10  12
ENDBRANCH   1  10
BRANCH   8  23
HETATM   23  C14 UNL     1      31.995 -15.262  23.018  1.00  0.00     0.234 C 
BRANCH  23  24
HETATM   24  N3  UNL     1      32.658 -16.414  23.538  1.00  0.00    -0.079 N 
ATOM     25  H33 UNL     1      32.262 -16.679  24.440  1.00  0.00     0.274 HD
ATOM     26  H32 UNL     1      32.416 -17.243  22.994  1.00  0.00     0.274 HD
ATOM     27  H31 UNL     1      33.670 -16.313  23.607  1.00  0.00     0.274 HD
ENDBRANCH  23  24
ENDBRANCH   8  23
TORSDOF 6
ENDMDL
MODEL 4
REMARK VINA RESULT: -7.530904273      2.332      7.294
REMARK  6 active torsions:
REMARK  status: ('A' for Active; 'I' for Inactive)
REMARK    1  A    between atoms: N1_1  and  C1_5 
REMARK    2  A    between atoms: C1_5  and  C2_6 
REMARK    3  A    between atoms: C5_9  and  N2_10 
REMARK    4  A    between atoms: N2_10  and  C6_12 
REMARK    5  A    between atoms: C13_19  and  C14_20 
REMARK    6  A    between atoms: C14_20  and  N3_21 
ROOT
HETATM    1  C6  UNL     1      33.375 -19.601  16.809  1.00  0.00     0.033 A 
HETATM    2  C7  UNL     1      33.592 -20.615  17.707  1.00  0.00     0.030 A 
HETATM    3  C8  UNL     1      32.650 -20.915  18.674  1.00  0.00     0.010 A 
HETATM    4  C9  UNL     1      31.484 -20.173  18.722  1.00  0.00    -0.051 A 
HETATM    5  C10 UNL     1      31.250 -19.155  17.833  1.00  0.00    -0.049 A 
HETATM    6  C11 UNL     1      32.178 -18.869  16.887  1.00  0.00     0.037 A 
HETATM    7  C12 UNL     1      29.933 -18.518  18.095  1.00  0.00     0.045 C 
HETATM    8  C13 UNL     1      29.603 -18.951  19.526  1.00  0.00     0.019 C 
HETATM    9  C15 UNL     1      30.321 -20.252  19.615  1.00  0.00     0.045 C 
ENDROOT
BRANCH   1  10
HETATM   10  N2  UNL     1      34.273 -19.253  15.783  1.00  0.00    -0.356 N 
ATOM     11  H2  UNL     1      34.061 -19.600  14.848  1.00  0.00     0.166 HD
BRANCH  10  12
HETATM   12  C5  UNL     1      35.430 -18.474  15.919  1.00  0.00     0.032 A 
HETATM   13  C4  UNL     1      35.433 -17.219  16.473  1.00  0.00     0.030 A 
HETATM   14  C3  UNL     1      36.578 -16.460  16.576  1.00  0.00     0.011 A 
HETATM   15  C2  UNL     1      37.798 -16.918  16.128  1.00  0.00    -0.033 A 
HETATM   16  C17 UNL     1      37.807 -18.179  15.571  1.00  0.00     0.011 A 
HETATM   17  C16 UNL     1      36.670 -18.936  15.465  1.00  0.00     0.030 A 
BRANCH  15  18
HETATM   18  C1  UNL     1      39.034 -16.104  16.237  1.00  0.00     0.268 C 
BRANCH  18  19
HETATM   19  N1  UNL     1      39.674 -16.394  17.508  1.00  0.00    -0.075 N 
ATOM     20  H13 UNL     1      39.011 -16.412  18.283  1.00  0.00     0.274 HD
ATOM     21  H12 UNL     1      39.994 -17.361  17.572  1.00  0.00     0.274 HD
ATOM     22  H11 UNL     1      40.430 -15.725  17.657  1.00  0.00     0.274 HD
ENDBRANCH  18  19
ENDBRANCH  15  18
ENDBRANCH  10  12
ENDBRANCH   1  10
BRANCH   8  23
HETATM   23  C14 UNL     1      30.163 -17.880  20.433  1.00  0.00     0.234 C 
BRANCH  23  24
HETATM   24  N3  UNL     1      29.165 -17.102  21.094  1.00  0.00    -0.079 N 
ATOM     25  H33 UNL     1      29.319 -17.103  22.102  1.00  0.00     0.274 HD
ATOM     26  H32 UNL     1      29.298 -16.109  20.901  1.00  0.00     0.274 HD
ATOM     27  H31 UNL     1      28.210 -17.385  20.878  1.00  0.00     0.274 HD
ENDBRANCH  23  24
ENDBRANCH   8  23
TORSDOF 6
ENDMDL
MODEL 5
REMARK VINA RESULT: -7.491047066      1.338      7.522
REMARK  6 active torsions:
REMARK  status: ('A' for Active; 'I' for Inactive)
REMARK    1  A    between atoms: N1_1  and  C1_5 
REMARK    2  A    between atoms: C1_5  and  C2_6 
REMARK    3  A    between atoms: C5_9  and  N2_10 
REMARK    4  A    between atoms: N2_10  and  C6_12 
REMARK    5  A    between atoms: C13_19  and  C14_20 
REMARK    6  A    between atoms: C14_20  and  N3_21 
ROOT
HETATM    1  C6  UNL     1      31.649 -18.003  18.102  1.00  0.00     0.033 A 
HETATM    2  C7  UNL     1      31.513 -19.038  18.992  1.00  0.00     0.030 A 
HETATM    3  C8  UNL     1      30.904 -18.840  20.218  1.00  0.00     0.010 A 
HETATM    4  C9  UNL     1      30.434 -17.579  20.533  1.00  0.00    -0.051 A 
HETATM    5  C10 UNL     1      30.561 -16.532  19.656  1.00  0.00    -0.049 A 
HETATM    6  C11 UNL     1      31.159 -16.735  18.457  1.00  0.00     0.037 A 
HETATM    7  C12 UNL     1      29.978 -15.290  20.229  1.00  0.00     0.045 C 
HETATM    8  C13 UNL     1      29.905 -15.587  21.730  1.00  0.00     0.019 C 
HETATM    9  C15 UNL     1      29.756 -17.068  21.731  1.00  0.00     0.045 C 
ENDROOT
BRANCH   1  10
HETATM   10  N2  UNL     1      32.235 -18.131  16.829  1.00  0.00    -0.356 N 
ATOM     11  H2  UNL     1      31.599 -18.237  16.039  1.00  0.00     0.166 HD
BRANCH  10  12
HETATM   12  C5  UNL     1      33.606 -18.126  16.540  1.00  0.00     0.032 A 
HETATM   13  C4  UNL     1      34.429 -17.062  16.811  1.00  0.00     0.030 A 
HETATM   14  C3  UNL     1      35.770 -17.069  16.497  1.00  0.00     0.011 A 
HETATM   15  C2  UNL     1      36.371 -18.149  15.888  1.00  0.00    -0.033 A 
HETATM   16  C17 UNL     1      35.553 -19.224  15.612  1.00  0.00     0.011 A 
HETATM   17  C16 UNL     1      34.218 -19.221  15.922  1.00  0.00     0.030 A 
BRANCH  15  18
HETATM   18  C1  UNL     1      37.816 -18.160  15.548  1.00  0.00     0.268 C 
BRANCH  18  19
HETATM   19  N1  UNL     1      38.298 -16.791  15.510  1.00  0.00    -0.075 N 
ATOM     20  H13 UNL     1      38.276 -16.396  14.570  1.00  0.00     0.274 HD
ATOM     21  H12 UNL     1      37.652 -16.137  15.954  1.00  0.00     0.274 HD
ATOM     22  H11 UNL     1      39.230 -16.758  15.924  1.00  0.00     0.274 HD
ENDBRANCH  18  19
ENDBRANCH  15  18
ENDBRANCH  10  12
ENDBRANCH   1  10
BRANCH   8  23
HETATM   23  C14 UNL     1      31.207 -15.103  22.323  1.00  0.00     0.234 C 
BRANCH  23  24
HETATM   24  N3  UNL     1      31.541 -15.719  23.567  1.00  0.00    -0.079 N 
ATOM     25  H33 UNL     1      31.660 -16.724  23.448  1.00  0.00     0.274 HD
ATOM     26  H32 UNL     1      32.487 -15.464  23.851  1.00  0.00     0.274 HD
ATOM     27  H31 UNL     1      30.877 -15.523  24.316  1.00  0.00     0.274 HD
ENDBRANCH  23  24
ENDBRANCH   8  23
TORSDOF 6
ENDMDL
