MODEL 1
REMARK VINA RESULT: -8.089409831      0.000      0.000
REMARK  4 active torsions:
REMARK  status: ('A' for Active; 'I' for Inactive)
REMARK    1  A    between atoms: C4_4  and  C5_5 
REMARK    2  A    between atoms: C5_5  and  N1_6 
REMARK    3  A    between atoms: N1_6  and  C6_8 
REMARK    4  A    between atoms: C9_11  and  C10_12 
ROOT
HETATM    1  C6  UNL     1      33.193 -19.035  18.751  1.00  0.00     0.028 A 
HETATM    2  C7  UNL     1      34.021 -18.521  19.719  1.00  0.00     0.029 A 
HETATM    3  C8  UNL     1      33.487 -17.919  20.864  1.00  0.00     0.011 A 
HETATM    4  C9  UNL     1      32.141 -17.819  21.064  1.00  0.00    -0.034 A 
HETATM    5  C14 UNL     1      31.306 -18.332  20.100  1.00  0.00     0.011 A 
HETATM    6  C15 UNL     1      31.834 -18.928  18.966  1.00  0.00     0.029 A 
ENDROOT
BRANCH   1   7
HETATM    7  N1  UNL     1      33.670 -19.657  17.563  1.00  0.00    -0.386 N 
ATOM      8  H1  UNL     1      33.942 -20.639  17.606  1.00  0.00     0.160 HD
BRANCH   7   9
HETATM    9  C5  UNL     1      33.788 -18.977  16.313  1.00  0.00     0.158 C 
BRANCH   9  10
HETATM   10  C4  UNL     1      35.133 -18.360  16.143  1.00  0.00    -0.041 A 
HETATM   11  C3  UNL     1      35.418 -17.060  16.500  1.00  0.00     0.009 A 
HETATM   12  C2  UNL     1      36.684 -16.511  16.340  1.00  0.00     0.001 A 
HETATM   13  C1  UNL     1      37.695 -17.269  15.812  1.00  0.00     0.000 A 
HETATM   14  C17 UNL     1      37.441 -18.552  15.452  1.00  0.00     0.001 A 
HETATM   15  C16 UNL     1      36.171 -19.097  15.615  1.00  0.00     0.009 A 
ENDBRANCH   9  10
ENDBRANCH   7   9
ENDBRANCH   1   7
BRANCH   4  16
HETATM   16  C10 UNL     1      31.525 -17.194  22.257  1.00  0.00     0.135 C 
HETATM   17  C11 UNL     1      32.454 -16.201  22.889  1.00  0.00     0.261 C 
HETATM   18  N2  UNL     1      31.688 -15.535  23.957  1.00  0.00    -0.071 N 
HETATM   19  C12 UNL     1      30.845 -14.579  23.269  1.00  0.00     0.251 C 
ATOM     20  H22 UNL     1      31.177 -16.177  24.562  1.00  0.00     0.277 HD
ATOM     21  H21 UNL     1      32.268 -15.124  24.688  1.00  0.00     0.277 HD
HETATM   22  C13 UNL     1      30.199 -15.171  22.044  1.00  0.00     0.142 C 
HETATM   23  N3  UNL     1      30.263 -16.608  22.009  1.00  0.00    -0.410 N 
ATOM     24  H3  UNL     1      29.438 -17.176  21.815  1.00  0.00     0.154 HD
ENDBRANCH   4  16
TORSDOF 4
ENDMDL
MODEL 2
REMARK VINA RESULT: -8.070642942      0.215      1.063
REMARK  4 active torsions:
REMARK  status: ('A' for Active; 'I' for Inactive)
REMARK    1  A    between atoms: C4_4  and  C5_5 
REMARK    2  A    between atoms: C5_5  and  N1_6 
REMARK    3  A    between atoms: N1_6  and  C6_8 
REMARK    4  A    between atoms: C9_11  and  C10_12 
ROOT
HETATM    1  C6  UNL     1      32.985 -19.179  18.760  1.00  0.00     0.028 A 
HETATM    2  C7  UNL     1      31.644 -19.268  19.044  1.00  0.00     0.029 A 
HETATM    3  C8  UNL     1      31.117 -18.644  20.180  1.00  0.00     0.011 A 
HETATM    4  C9  UNL     1      31.901 -17.931  21.040  1.00  0.00    -0.034 A 
HETATM    5  C14 UNL     1      33.244 -17.837  20.761  1.00  0.00     0.011 A 
HETATM    6  C15 UNL     1      33.767 -18.455  19.637  1.00  0.00     0.029 A 
ENDROOT
BRANCH   1   7
HETATM    7  N1  UNL     1      33.586 -19.793  17.624  1.00  0.00    -0.386 N 
ATOM      8  H1  UNL     1      33.961 -20.736  17.726  1.00  0.00     0.160 HD
BRANCH   7   9
HETATM    9  C5  UNL     1      33.693 -19.157  16.350  1.00  0.00     0.158 C 
BRANCH   9  10
HETATM   10  C4  UNL     1      35.009 -18.482  16.177  1.00  0.00    -0.041 A 
HETATM   11  C3  UNL     1      35.234 -17.167  16.521  1.00  0.00     0.009 A 
HETATM   12  C2  UNL     1      36.475 -16.563  16.358  1.00  0.00     0.001 A 
HETATM   13  C1  UNL     1      37.520 -17.281  15.840  1.00  0.00     0.000 A 
HETATM   14  C17 UNL     1      37.325 -18.578  15.493  1.00  0.00     0.001 A 
HETATM   15  C16 UNL     1      36.080 -19.178  15.659  1.00  0.00     0.009 A 
ENDBRANCH   9  10
ENDBRANCH   7   9
ENDBRANCH   1   7
BRANCH   4  16
HETATM   16  C10 UNL     1      31.393 -17.250  22.253  1.00  0.00     0.135 C 
HETATM   17  C11 UNL     1      32.427 -16.329  22.830  1.00  0.00     0.261 C 
HETATM   18  N2  UNL     1      31.767 -15.596  23.925  1.00  0.00    -0.071 N 
HETATM   19  C12 UNL     1      30.971 -14.581  23.267  1.00  0.00     0.251 C 
ATOM     20  H22 UNL     1      31.236 -16.191  24.560  1.00  0.00     0.277 HD
ATOM     21  H21 UNL     1      32.413 -15.228  24.624  1.00  0.00     0.277 HD
HETATM   22  C13 UNL     1      30.223 -15.128  22.080  1.00  0.00     0.142 C 
HETATM   23  N3  UNL     1      30.171 -16.566  22.058  1.00  0.00    -0.410 N 
ATOM     24  H3  UNL     1      29.296 -17.068  21.909  1.00  0.00     0.154 HD
ENDBRANCH   4  16
TORSDOF 4
ENDMDL
MODEL 3
REMARK VINA RESULT: -8.034575347      0.275      1.505
REMARK  4 active torsions:
REMARK  status: ('A' for Active; 'I' for Inactive)
REMARK    1  A    between atoms: C4_4  and  C5_5 
REMARK    2  A    between atoms: C5_5  and  N1_6 
REMARK    3  A    between atoms: N1_6  and  C6_8 
REMARK    4  A    between atoms: C9_11  and  C10_12 
ROOT
HETATM    1  C6  UNL     1      32.895 -19.162  18.791  1.00  0.00     0.028 A 
HETATM    2  C7  UNL     1      31.548 -19.224  19.053  1.00  0.00     0.029 A 
HETATM    3  C8  UNL     1      31.014 -18.587  20.179  1.00  0.00     0.011 A 
HETATM    4  C9  UNL     1      31.796 -17.887  21.050  1.00  0.00    -0.034 A 
HETATM    5  C14 UNL     1      33.145 -17.821  20.794  1.00  0.00     0.011 A 
HETATM    6  C15 UNL     1      33.676 -18.452  19.680  1.00  0.00     0.029 A 
ENDROOT
BRANCH   1   7
HETATM    7  N1  UNL     1      33.503 -19.790  17.668  1.00  0.00    -0.386 N 
ATOM      8  H1  UNL     1      33.875 -20.733  17.783  1.00  0.00     0.160 HD
BRANCH   7   9
HETATM    9  C5  UNL     1      33.621 -19.169  16.387  1.00  0.00     0.158 C 
BRANCH   9  10
HETATM   10  C4  UNL     1      34.958 -18.542  16.197  1.00  0.00    -0.041 A 
HETATM   11  C3  UNL     1      36.036 -19.210  15.659  1.00  0.00     0.009 A 
HETATM   12  C2  UNL     1      37.271 -18.599  15.484  1.00  0.00     0.001 A 
HETATM   13  C1  UNL     1      37.443 -17.291  15.850  1.00  0.00     0.000 A 
HETATM   14  C17 UNL     1      36.398 -16.610  16.382  1.00  0.00     0.001 A 
HETATM   15  C16 UNL     1      35.163 -17.227  16.556  1.00  0.00     0.009 A 
ENDBRANCH   9  10
ENDBRANCH   7   9
ENDBRANCH   1   7
BRANCH   4  16
HETATM   16  C10 UNL     1      31.281 -17.194  22.253  1.00  0.00     0.135 C 
HETATM   17  C11 UNL     1      32.334 -16.320  22.867  1.00  0.00     0.261 C 
HETATM   18  N2  UNL     1      31.673 -15.568  23.948  1.00  0.00    -0.071 N 
HETATM   19  C12 UNL     1      30.939 -14.516  23.274  1.00  0.00     0.251 C 
ATOM     20  H22 UNL     1      31.099 -16.144  24.562  1.00  0.00     0.277 HD
ATOM     21  H21 UNL     1      32.312 -15.231  24.668  1.00  0.00     0.277 HD
HETATM   22  C13 UNL     1      30.205 -15.025  22.061  1.00  0.00     0.142 C 
HETATM   23  N3  UNL     1      30.095 -16.459  22.027  1.00  0.00    -0.410 N 
ATOM     24  H3  UNL     1      29.204 -16.924  21.848  1.00  0.00     0.154 HD
ENDBRANCH   4  16
TORSDOF 4
ENDMDL
MODEL 4
REMARK VINA RESULT: -8.019148668      2.141      2.888
REMARK  4 active torsions:
REMARK  status: ('A' for Active; 'I' for Inactive)
REMARK    1  A    between atoms: C4_4  and  C5_5 
REMARK    2  A    between atoms: C5_5  and  N1_6 
REMARK    3  A    between atoms: N1_6  and  C6_8 
REMARK    4  A    between atoms: C9_11  and  C10_12 
ROOT
HETATM    1  C6  UNL     1      32.935 -18.568  16.345  1.00  0.00     0.028 A 
HETATM    2  C7  UNL     1      32.453 -17.292  16.510  1.00  0.00     0.029 A 
HETATM    3  C8  UNL     1      31.413 -17.037  17.411  1.00  0.00     0.011 A 
HETATM    4  C9  UNL     1      30.843 -18.030  18.152  1.00  0.00    -0.034 A 
HETATM    5  C14 UNL     1      31.320 -19.310  17.992  1.00  0.00     0.011 A 
HETATM    6  C15 UNL     1      32.349 -19.563  17.100  1.00  0.00     0.029 A 
ENDROOT
BRANCH   1   7
HETATM    7  N1  UNL     1      33.986 -18.896  15.444  1.00  0.00    -0.386 N 
ATOM      8  H1  UNL     1      33.848 -18.711  14.450  1.00  0.00     0.160 HD
BRANCH   7   9
HETATM    9  C5  UNL     1      35.226 -19.472  15.857  1.00  0.00     0.158 C 
BRANCH   9  10
HETATM   10  C4  UNL     1      36.341 -18.486  15.798  1.00  0.00    -0.041 A 
HETATM   11  C3  UNL     1      37.531 -18.730  15.148  1.00  0.00     0.009 A 
HETATM   12  C2  UNL     1      38.552 -17.789  15.099  1.00  0.00     0.001 A 
HETATM   13  C1  UNL     1      38.391 -16.575  15.711  1.00  0.00     0.000 A 
HETATM   14  C17 UNL     1      37.229 -16.309  16.358  1.00  0.00     0.001 A 
HETATM   15  C16 UNL     1      36.209 -17.255  16.403  1.00  0.00     0.009 A 
ENDBRANCH   9  10
ENDBRANCH   7   9
ENDBRANCH   1   7
BRANCH   4  16
HETATM   16  C10 UNL     1      29.743 -17.814  19.120  1.00  0.00     0.135 C 
HETATM   17  C11 UNL     1      30.275 -17.565  20.499  1.00  0.00     0.261 C 
HETATM   18  N2  UNL     1      29.116 -17.210  21.337  1.00  0.00    -0.071 N 
HETATM   19  C12 UNL     1      28.826 -15.830  21.005  1.00  0.00     0.251 C 
ATOM     20  H22 UNL     1      28.320 -17.838  21.228  1.00  0.00     0.277 HD
ATOM     21  H21 UNL     1      29.259 -17.376  22.333  1.00  0.00     0.277 HD
HETATM   22  C13 UNL     1      28.872 -15.582  19.521  1.00  0.00     0.142 C 
HETATM   23  N3  UNL     1      28.840 -16.793  18.743  1.00  0.00    -0.410 N 
ATOM     24  H3  UNL     1      28.199 -16.909  17.959  1.00  0.00     0.154 HD
ENDBRANCH   4  16
TORSDOF 4
ENDMDL
MODEL 5
REMARK VINA RESULT: -8.015521377      2.142      2.702
REMARK  4 active torsions:
REMARK  status: ('A' for Active; 'I' for Inactive)
REMARK    1  A    between atoms: C4_4  and  C5_5 
REMARK    2  A    between atoms: C5_5  and  N1_6 
REMARK    3  A    between atoms: N1_6  and  C6_8 
REMARK    4  A    between atoms: C9_11  and  C10_12 
ROOT
HETATM    1  C6  UNL     1      32.927 -18.568  16.344  1.00  0.00     0.028 A 
HETATM    2  C7  UNL     1      32.452 -17.290  16.510  1.00  0.00     0.029 A 
HETATM    3  C8  UNL     1      31.413 -17.030  17.411  1.00  0.00     0.011 A 
HETATM    4  C9  UNL     1      30.837 -18.020  18.152  1.00  0.00    -0.034 A 
HETATM    5  C14 UNL     1      31.307 -19.302  17.991  1.00  0.00     0.011 A 
HETATM    6  C15 UNL     1      32.335 -19.561  17.099  1.00  0.00     0.029 A 
ENDROOT
BRANCH   1   7
HETATM    7  N1  UNL     1      33.977 -18.901  15.443  1.00  0.00    -0.386 N 
ATOM      8  H1  UNL     1      33.830 -18.736  14.447  1.00  0.00     0.160 HD
BRANCH   7   9
HETATM    9  C5  UNL     1      35.225 -19.456  15.859  1.00  0.00     0.158 C 
BRANCH   9  10
HETATM   10  C4  UNL     1      36.320 -18.448  15.819  1.00  0.00    -0.041 A 
HETATM   11  C3  UNL     1      36.221 -17.202  16.399  1.00  0.00     0.009 A 
HETATM   12  C2  UNL     1      37.263 -16.283  16.355  1.00  0.00     0.001 A 
HETATM   13  C1  UNL     1      38.432 -16.606  15.720  1.00  0.00     0.000 A 
HETATM   14  C17 UNL     1      38.555 -17.827  15.141  1.00  0.00     0.001 A 
HETATM   15  C16 UNL     1      37.509 -18.744  15.188  1.00  0.00     0.009 A 
ENDBRANCH   9  10
ENDBRANCH   7   9
ENDBRANCH   1   7
BRANCH   4  16
HETATM   16  C10 UNL     1      29.738 -17.798  19.119  1.00  0.00     0.135 C 
HETATM   17  C11 UNL     1      30.272 -17.547  20.498  1.00  0.00     0.261 C 
HETATM   18  N2  UNL     1      29.114 -17.188  21.335  1.00  0.00    -0.071 N 
HETATM   19  C12 UNL     1      28.828 -15.808  21.000  1.00  0.00     0.251 C 
ATOM     20  H22 UNL     1      28.316 -17.813  21.228  1.00  0.00     0.277 HD
ATOM     21  H21 UNL     1      29.257 -17.351  22.331  1.00  0.00     0.277 HD
HETATM   22  C13 UNL     1      28.874 -15.563  19.515  1.00  0.00     0.142 C 
HETATM   23  N3  UNL     1      28.839 -16.776  18.741  1.00  0.00    -0.410 N 
ATOM     24  H3  UNL     1      28.196 -16.892  17.957  1.00  0.00     0.154 HD
ENDBRANCH   4  16
TORSDOF 4
ENDMDL
