MODEL 1
REMARK VINA RESULT: -9.597710601      0.000      0.000
REMARK  16 active torsions:
REMARK  status: ('A' for Active; 'I' for Inactive)
REMARK       I    between atoms: C2_2  and  N1_4 
REMARK    1  A    between atoms: N1_4  and  C3_6 
REMARK    2  A    between atoms: C5_9  and  O3_10 
REMARK    3  A    between atoms: C6_12  and  N2_13 
REMARK    4  A    between atoms: C10_22  and  N6_23 
REMARK    5  A    between atoms: C12_29  and  O4_30 
REMARK    6  A    between atoms: C13_32  and  N8_33 
REMARK    7  A    between atoms: C15_35  and  C16_36 
REMARK    8  A    between atoms: C16_36  and  N9_37 
REMARK    9  A    between atoms: N9_37  and  C17_39 
REMARK   10  A    between atoms: C17_39  and  O5_40 
REMARK   11  A    between atoms: C17_39  and  C18_42 
REMARK   12  A    between atoms: C18_42  and  O6_43 
REMARK   13  A    between atoms: C18_42  and  C19_45 
REMARK   14  A    between atoms: C19_45  and  C20_47 
REMARK   15  A    between atoms: C20_47  and  O8_48 
REMARK   16  A    between atoms: C20_47  and  O9_50 
ROOT
HETATM    1  C3  UNL     1      58.984  41.644  57.437  1.00  0.00     0.250 C 
HETATM    2  O2  UNL     1      59.097  42.460  56.367  1.00  0.00    -0.362 OA
HETATM    3  C4  UNL     1      58.617  43.724  56.475  1.00  0.00     0.204 C 
HETATM    4  C5  UNL     1      57.197  43.801  55.955  1.00  0.00     0.168 C 
HETATM    5  C6  UNL     1      56.652  42.368  56.025  1.00  0.00     0.154 C 
HETATM    6  C12 UNL     1      56.484  42.029  57.461  1.00  0.00     0.173 C 
HETATM    7  C13 UNL     1      57.714  41.710  58.220  1.00  0.00     0.188 C 
ENDROOT
BRANCH   7   8
HETATM    8  N8  UNL     1      57.827  42.543  59.400  1.00  0.00    -0.276 N 
HETATM    9  C14 UNL     1      58.684  43.535  59.652  1.00  0.00     0.140 A 
HETATM   10  C15 UNL     1      58.457  44.074  60.897  1.00  0.00     0.061 A 
HETATM   11  N10 UNL     1      57.408  43.342  61.378  1.00  0.00    -0.287 N 
HETATM   12  N11 UNL     1      57.053  42.432  60.458  1.00  0.00    -0.240 N 
ATOM     13  H10 UNL     1      56.967  43.467  62.289  1.00  0.00     0.188 HD
ATOM     14  H11 UNL     1      56.296  41.756  60.564  1.00  0.00     0.208 HD
BRANCH  10  15
HETATM   15  C16 UNL     1      59.163  45.189  61.589  1.00  0.00     0.176 C 
BRANCH  15  16
HETATM   16  N9  UNL     1      60.410  45.401  60.917  1.00  0.00    -0.389 N 
ATOM     17  H9  UNL     1      60.947  44.635  60.512  1.00  0.00     0.156 HD
BRANCH  16  18
HETATM   18  C17 UNL     1      60.846  46.758  60.855  1.00  0.00     0.250 C 
BRANCH  18  19
HETATM   19  O5  UNL     1      59.796  47.640  60.981  1.00  0.00    -0.374 OA
ATOM     20  H5  UNL     1      59.498  47.958  60.137  1.00  0.00     0.212 HD
ENDBRANCH  18  19
BRANCH  18  21
HETATM   21  C18 UNL     1      61.710  47.065  59.648  1.00  0.00     0.240 C 
BRANCH  21  22
HETATM   22  O6  UNL     1      62.159  48.382  59.663  1.00  0.00    -0.383 OA
ATOM     23  H6  UNL     1      62.163  48.758  58.790  1.00  0.00     0.210 HD
ENDBRANCH  21  22
BRANCH  21  24
HETATM   24  C19 UNL     1      60.916  46.849  58.416  1.00  0.00     0.213 C 
HETATM   25  O7  UNL     1      59.718  46.706  58.509  1.00  0.00    -0.290 OA
BRANCH  24  26
HETATM   26  C20 UNL     1      61.565  46.809  57.093  1.00  0.00     0.328 C 
BRANCH  26  27
HETATM   27  O8  UNL     1      62.205  48.021  56.871  1.00  0.00    -0.365 OA
ATOM     28  H8  UNL     1      63.138  47.864  56.793  1.00  0.00     0.213 HD
ENDBRANCH  26  27
BRANCH  26  29
HETATM   29  O9  UNL     1      62.487  45.742  57.014  1.00  0.00    -0.365 OA
ATOM     30  H9  UNL     1      63.056  45.840  56.260  1.00  0.00     0.213 HD
ENDBRANCH  26  29
ENDBRANCH  24  26
ENDBRANCH  21  24
ENDBRANCH  18  21
ENDBRANCH  16  18
ENDBRANCH  15  16
ENDBRANCH  10  15
ENDBRANCH   7   8
BRANCH   1  31
HETATM   31  N1  UNL     1      59.225  40.271  57.002  1.00  0.00    -0.333 N 
HETATM   32  C2  UNL     1      60.469  39.636  57.096  1.00  0.00     0.215 C 
HETATM   33  C1  UNL     1      60.620  38.236  56.628  1.00  0.00     0.117 C 
HETATM   34  O1  UNL     1      61.481  40.234  57.575  1.00  0.00    -0.274 OA
ATOM     35  H1  UNL     1      58.444  39.746  56.609  1.00  0.00     0.165 HD
ENDBRANCH   1  31
BRANCH   6  36
HETATM   36  O4  UNL     1      55.507  41.007  57.533  1.00  0.00    -0.391 OA
ATOM     37  H4  UNL     1      55.833  40.276  57.022  1.00  0.00     0.210 HD
ENDBRANCH   6  36
BRANCH   5  38
HETATM   38  N2  UNL     1      55.394  42.279  55.286  1.00  0.00    -0.317 N 
HETATM   39  C7  UNL     1      54.171  42.652  55.699  1.00  0.00     0.185 A 
HETATM   40  N3  UNL     1      53.278  42.407  54.728  1.00  0.00    -0.346 N 
HETATM   41  C8  UNL     1      53.903  41.874  53.670  1.00  0.00     0.120 A 
ATOM     42  H3  UNL     1      52.278  42.599  54.786  1.00  0.00     0.167 HD
HETATM   43  C9  UNL     1      53.490  41.440  52.429  1.00  0.00     0.162 A 
HETATM   44  C11 UNL     1      55.228  41.801  54.038  1.00  0.00     0.155 A 
HETATM   45  N4  UNL     1      52.143  41.494  52.003  1.00  0.00    -0.080 NA
HETATM   46  N5  UNL     1      54.400  40.942  51.574  1.00  0.00    -0.177 N 
HETATM   47  C10 UNL     1      55.715  40.858  51.911  1.00  0.00     0.678 A 
ATOM     48  H5  UNL     1      54.098  40.621  50.654  1.00  0.00     0.185 HD
HETATM   49  N7  UNL     1      56.079  41.282  53.110  1.00  0.00    -0.174 N 
ATOM     50  H7  UNL     1      57.066  41.217  53.356  1.00  0.00     0.186 HD
BRANCH  47  51
HETATM   51  N6  UNL     1      56.590  40.381  51.097  1.00  0.00    -0.234 N 
ATOM     52  H62 UNL     1      57.003  39.464  51.265  1.00  0.00     0.174 HD
ATOM     53  H61 UNL     1      56.892  40.899  50.272  1.00  0.00     0.174 HD
ENDBRANCH  47  51
ENDBRANCH   5  38
BRANCH   4  54
HETATM   54  O3  UNL     1      57.216  44.120  54.577  1.00  0.00    -0.391 OA
ATOM     55  H3  UNL     1      57.475  45.028  54.466  1.00  0.00     0.210 HD
ENDBRANCH   4  54
TORSDOF 16
ENDMDL
MODEL 2
REMARK VINA RESULT: -9.435456634      2.884      7.685
REMARK  16 active torsions:
REMARK  status: ('A' for Active; 'I' for Inactive)
REMARK       I    between atoms: C2_2  and  N1_4 
REMARK    1  A    between atoms: N1_4  and  C3_6 
REMARK    2  A    between atoms: C5_9  and  O3_10 
REMARK    3  A    between atoms: C6_12  and  N2_13 
REMARK    4  A    between atoms: C10_22  and  N6_23 
REMARK    5  A    between atoms: C12_29  and  O4_30 
REMARK    6  A    between atoms: C13_32  and  N8_33 
REMARK    7  A    between atoms: C15_35  and  C16_36 
REMARK    8  A    between atoms: C16_36  and  N9_37 
REMARK    9  A    between atoms: N9_37  and  C17_39 
REMARK   10  A    between atoms: C17_39  and  O5_40 
REMARK   11  A    between atoms: C17_39  and  C18_42 
REMARK   12  A    between atoms: C18_42  and  O6_43 
REMARK   13  A    between atoms: C18_42  and  C19_45 
REMARK   14  A    between atoms: C19_45  and  C20_47 
REMARK   15  A    between atoms: C20_47  and  O8_48 
REMARK   16  A    between atoms: C20_47  and  O9_50 
ROOT
HETATM    1  C3  UNL     1      58.177  42.757  54.368  1.00  0.00     0.250 C 
HETATM    2  O2  UNL     1      59.475  43.111  54.496  1.00  0.00    -0.362 OA
HETATM    3  C4  UNL     1      60.233  42.442  55.400  1.00  0.00     0.204 C 
HETATM    4  C5  UNL     1      60.257  43.177  56.723  1.00  0.00     0.168 C 
HETATM    5  C6  UNL     1      59.007  44.069  56.724  1.00  0.00     0.154 C 
HETATM    6  C12 UNL     1      57.827  43.175  56.839  1.00  0.00     0.173 C 
HETATM    7  C13 UNL     1      57.428  42.437  55.620  1.00  0.00     0.188 C 
ENDROOT
BRANCH   7   8
HETATM    8  N8  UNL     1      57.351  41.013  55.877  1.00  0.00    -0.276 N 
HETATM    9  C14 UNL     1      58.074  40.022  55.351  1.00  0.00     0.140 A 
HETATM   10  C15 UNL     1      57.684  38.806  55.863  1.00  0.00     0.061 A 
HETATM   11  N10 UNL     1      56.679  39.130  56.730  1.00  0.00    -0.287 N 
HETATM   12  N11 UNL     1      56.502  40.460  56.717  1.00  0.00    -0.240 N 
ATOM     13  H10 UNL     1      56.149  38.467  57.297  1.00  0.00     0.188 HD
ATOM     14  H11 UNL     1      55.813  40.966  57.274  1.00  0.00     0.208 HD
BRANCH  10  15
HETATM   15  C16 UNL     1      58.208  37.443  55.568  1.00  0.00     0.176 C 
BRANCH  15  16
HETATM   16  N9  UNL     1      59.357  37.228  56.395  1.00  0.00    -0.389 N 
ATOM     17  H9  UNL     1      59.283  36.894  57.355  1.00  0.00     0.156 HD
BRANCH  16  18
HETATM   18  C17 UNL     1      60.613  37.513  55.779  1.00  0.00     0.250 C 
BRANCH  18  19
HETATM   19  O5  UNL     1      61.299  36.363  55.459  1.00  0.00    -0.374 OA
ATOM     20  H5  UNL     1      62.135  36.314  55.909  1.00  0.00     0.212 HD
ENDBRANCH  18  19
BRANCH  18  21
HETATM   21  C18 UNL     1      61.466  38.492  56.561  1.00  0.00     0.240 C 
BRANCH  21  22
HETATM   22  O6  UNL     1      60.693  39.280  57.407  1.00  0.00    -0.383 OA
ATOM     23  H6  UNL     1      61.093  40.130  57.554  1.00  0.00     0.210 HD
ENDBRANCH  21  22
BRANCH  21  24
HETATM   24  C19 UNL     1      62.181  39.377  55.611  1.00  0.00     0.213 C 
HETATM   25  O7  UNL     1      61.936  39.288  54.430  1.00  0.00    -0.290 OA
BRANCH  24  26
HETATM   26  C20 UNL     1      63.176  40.355  56.089  1.00  0.00     0.328 C 
BRANCH  26  27
HETATM   27  O8  UNL     1      64.253  39.669  56.633  1.00  0.00    -0.365 OA
ATOM     28  H8  UNL     1      64.622  40.188  57.337  1.00  0.00     0.213 HD
ENDBRANCH  26  27
BRANCH  26  29
HETATM   29  O9  UNL     1      63.605  41.194  55.037  1.00  0.00    -0.365 OA
ATOM     30  H9  UNL     1      64.543  41.338  55.079  1.00  0.00     0.213 HD
ENDBRANCH  26  29
ENDBRANCH  24  26
ENDBRANCH  21  24
ENDBRANCH  18  21
ENDBRANCH  16  18
ENDBRANCH  15  16
ENDBRANCH  10  15
ENDBRANCH   7   8
BRANCH   1  31
HETATM   31  N1  UNL     1      57.480  43.807  53.630  1.00  0.00    -0.333 N 
HETATM   32  C2  UNL     1      56.437  43.558  52.730  1.00  0.00     0.215 C 
HETATM   33  C1  UNL     1      55.786  44.688  52.024  1.00  0.00     0.117 C 
HETATM   34  O1  UNL     1      56.030  42.377  52.501  1.00  0.00    -0.274 OA
ATOM     35  H1  UNL     1      57.769  44.773  53.778  1.00  0.00     0.165 HD
ENDBRANCH   1  31
BRANCH   6  36
HETATM   36  O4  UNL     1      56.776  43.947  57.389  1.00  0.00    -0.391 OA
ATOM     37  H4  UNL     1      56.620  43.617  58.266  1.00  0.00     0.210 HD
ENDBRANCH   6  36
BRANCH   5  38
HETATM   38  N2  UNL     1      59.083  45.028  57.825  1.00  0.00    -0.317 N 
HETATM   39  C7  UNL     1      59.508  46.302  57.775  1.00  0.00     0.185 A 
HETATM   40  N3  UNL     1      59.425  46.848  58.998  1.00  0.00    -0.346 N 
HETATM   41  C8  UNL     1      58.947  45.941  59.860  1.00  0.00     0.120 A 
ATOM     42  H3  UNL     1      59.685  47.805  59.234  1.00  0.00     0.167 HD
HETATM   43  C9  UNL     1      58.664  45.955  61.209  1.00  0.00     0.162 A 
HETATM   44  C11 UNL     1      58.739  44.807  59.108  1.00  0.00     0.155 A 
HETATM   45  N4  UNL     1      58.859  47.093  62.026  1.00  0.00    -0.080 NA
HETATM   46  N5  UNL     1      58.179  44.842  61.786  1.00  0.00    -0.177 N 
HETATM   47  C10 UNL     1      57.964  43.708  61.068  1.00  0.00     0.678 A 
ATOM     48  H5  UNL     1      57.967  44.849  62.784  1.00  0.00     0.185 HD
HETATM   49  N7  UNL     1      58.246  43.728  59.775  1.00  0.00    -0.174 N 
ATOM     50  H7  UNL     1      58.082  42.874  59.242  1.00  0.00     0.186 HD
BRANCH  47  51
HETATM   51  N6  UNL     1      57.500  42.640  61.615  1.00  0.00    -0.234 N 
ATOM     52  H62 UNL     1      56.744  42.120  61.170  1.00  0.00     0.174 HD
ATOM     53  H61 UNL     1      57.871  42.287  62.498  1.00  0.00     0.174 HD
ENDBRANCH  47  51
ENDBRANCH   5  38
BRANCH   4  54
HETATM   54  O3  UNL     1      61.349  44.076  56.743  1.00  0.00    -0.391 OA
ATOM     55  H3  UNL     1      61.027  44.964  56.844  1.00  0.00     0.210 HD
ENDBRANCH   4  54
TORSDOF 16
ENDMDL
MODEL 3
REMARK VINA RESULT: -9.323917665      1.283      1.315
REMARK  16 active torsions:
REMARK  status: ('A' for Active; 'I' for Inactive)
REMARK       I    between atoms: C2_2  and  N1_4 
REMARK    1  A    between atoms: N1_4  and  C3_6 
REMARK    2  A    between atoms: C5_9  and  O3_10 
REMARK    3  A    between atoms: C6_12  and  N2_13 
REMARK    4  A    between atoms: C10_22  and  N6_23 
REMARK    5  A    between atoms: C12_29  and  O4_30 
REMARK    6  A    between atoms: C13_32  and  N8_33 
REMARK    7  A    between atoms: C15_35  and  C16_36 
REMARK    8  A    between atoms: C16_36  and  N9_37 
REMARK    9  A    between atoms: N9_37  and  C17_39 
REMARK   10  A    between atoms: C17_39  and  O5_40 
REMARK   11  A    between atoms: C17_39  and  C18_42 
REMARK   12  A    between atoms: C18_42  and  O6_43 
REMARK   13  A    between atoms: C18_42  and  C19_45 
REMARK   14  A    between atoms: C19_45  and  C20_47 
REMARK   15  A    between atoms: C20_47  and  O8_48 
REMARK   16  A    between atoms: C20_47  and  O9_50 
ROOT
HETATM    1  C3  UNL     1      58.752  41.174  57.175  1.00  0.00     0.250 C 
HETATM    2  O2  UNL     1      59.468  41.850  56.250  1.00  0.00    -0.362 OA
HETATM    3  C4  UNL     1      59.579  43.195  56.386  1.00  0.00     0.204 C 
HETATM    4  C5  UNL     1      58.511  43.902  55.578  1.00  0.00     0.168 C 
HETATM    5  C6  UNL     1      57.396  42.867  55.372  1.00  0.00     0.154 C 
HETATM    6  C12 UNL     1      56.751  42.644  56.690  1.00  0.00     0.173 C 
HETATM    7  C13 UNL     1      57.490  41.808  57.662  1.00  0.00     0.188 C 
ENDROOT
BRANCH   7   8
HETATM    8  N8  UNL     1      57.663  42.504  58.921  1.00  0.00    -0.276 N 
HETATM    9  C14 UNL     1      58.510  43.489  59.229  1.00  0.00     0.140 A 
HETATM   10  C15 UNL     1      58.356  43.874  60.541  1.00  0.00     0.061 A 
HETATM   11  N10 UNL     1      57.363  43.056  61.002  1.00  0.00    -0.287 N 
HETATM   12  N11 UNL     1      56.968  42.246  60.008  1.00  0.00    -0.240 N 
ATOM     13  H10 UNL     1      56.983  43.061  61.949  1.00  0.00     0.188 HD
ATOM     14  H11 UNL     1      56.238  41.537  60.084  1.00  0.00     0.208 HD
BRANCH  10  15
HETATM   15  C16 UNL     1      59.079  44.926  61.310  1.00  0.00     0.176 C 
BRANCH  15  16
HETATM   16  N9  UNL     1      60.315  45.187  60.636  1.00  0.00    -0.389 N 
ATOM     17  H9  UNL     1      60.802  44.474  60.093  1.00  0.00     0.156 HD
BRANCH  16  18
HETATM   18  C17 UNL     1      60.817  46.516  60.778  1.00  0.00     0.250 C 
BRANCH  18  19
HETATM   19  O5  UNL     1      59.815  47.414  61.066  1.00  0.00    -0.374 OA
ATOM     20  H5  UNL     1      60.124  48.123  61.619  1.00  0.00     0.212 HD
ENDBRANCH  18  19
BRANCH  18  21
HETATM   21  C18 UNL     1      61.677  46.969  59.615  1.00  0.00     0.240 C 
BRANCH  21  22
HETATM   22  O6  UNL     1      62.088  48.289  59.768  1.00  0.00    -0.383 OA
ATOM     23  H6  UNL     1      61.346  48.878  59.848  1.00  0.00     0.210 HD
ENDBRANCH  21  22
BRANCH  21  24
HETATM   24  C19 UNL     1      60.894  46.858  58.362  1.00  0.00     0.213 C 
HETATM   25  O7  UNL     1      59.687  46.813  58.427  1.00  0.00    -0.290 OA
BRANCH  24  26
HETATM   26  C20 UNL     1      61.566  46.804  57.051  1.00  0.00     0.328 C 
BRANCH  26  27
HETATM   27  O8  UNL     1      62.239  48.000  56.842  1.00  0.00    -0.365 OA
ATOM     28  H8  UNL     1      62.826  47.897  56.103  1.00  0.00     0.213 HD
ENDBRANCH  26  27
BRANCH  26  29
HETATM   29  O9  UNL     1      62.464  45.715  56.987  1.00  0.00    -0.365 OA
ATOM     30  H9  UNL     1      63.289  45.930  57.405  1.00  0.00     0.213 HD
ENDBRANCH  26  29
ENDBRANCH  24  26
ENDBRANCH  21  24
ENDBRANCH  18  21
ENDBRANCH  16  18
ENDBRANCH  15  16
ENDBRANCH  10  15
ENDBRANCH   7   8
BRANCH   1  31
HETATM   31  N1  UNL     1      58.467  39.839  56.658  1.00  0.00    -0.333 N 
HETATM   32  C2  UNL     1      59.395  38.791  56.664  1.00  0.00     0.215 C 
HETATM   33  C1  UNL     1      59.016  37.466  56.117  1.00  0.00     0.117 C 
HETATM   34  O1  UNL     1      60.566  38.950  57.131  1.00  0.00    -0.274 OA
ATOM     35  H1  UNL     1      57.540  39.660  56.271  1.00  0.00     0.165 HD
ENDBRANCH   1  31
BRANCH   6  36
HETATM   36  O4  UNL     1      55.441  42.172  56.435  1.00  0.00    -0.391 OA
ATOM     37  H4  UNL     1      54.892  42.478  57.148  1.00  0.00     0.210 HD
ENDBRANCH   6  36
BRANCH   5  38
HETATM   38  N2  UNL     1      56.449  43.353  54.369  1.00  0.00    -0.317 N 
HETATM   39  C7  UNL     1      55.755  44.503  54.385  1.00  0.00     0.185 A 
HETATM   40  N3  UNL     1      54.994  44.580  53.282  1.00  0.00    -0.346 N 
HETATM   41  C8  UNL     1      55.180  43.485  52.534  1.00  0.00     0.120 A 
ATOM     42  H3  UNL     1      54.370  45.353  53.050  1.00  0.00     0.167 HD
HETATM   43  C9  UNL     1      54.670  43.047  51.331  1.00  0.00     0.162 A 
HETATM   44  C11 UNL     1      56.095  42.728  53.230  1.00  0.00     0.155 A 
HETATM   45  N4  UNL     1      53.730  43.786  50.577  1.00  0.00    -0.080 NA
HETATM   46  N5  UNL     1      55.078  41.864  50.840  1.00  0.00    -0.177 N 
HETATM   47  C10 UNL     1      55.981  41.095  51.506  1.00  0.00     0.678 A 
ATOM     48  H5  UNL     1      54.704  41.536  49.950  1.00  0.00     0.185 HD
HETATM   49  N7  UNL     1      56.451  41.544  52.659  1.00  0.00    -0.174 N 
ATOM     50  H7  UNL     1      57.127  40.963  53.153  1.00  0.00     0.186 HD
BRANCH  47  51
HETATM   51  N6  UNL     1      56.374  39.961  51.042  1.00  0.00    -0.234 N 
ATOM     52  H62 UNL     1      55.929  39.096  51.349  1.00  0.00     0.174 HD
ATOM     53  H61 UNL     1      57.132  39.895  50.362  1.00  0.00     0.174 HD
ENDBRANCH  47  51
ENDBRANCH   5  38
BRANCH   4  54
HETATM   54  O3  UNL     1      59.005  44.174  54.281  1.00  0.00    -0.391 OA
ATOM     55  H3  UNL     1      59.061  45.115  54.155  1.00  0.00     0.210 HD
ENDBRANCH   4  54
TORSDOF 16
ENDMDL
MODEL 4
REMARK VINA RESULT: -9.310789819      2.706      5.808
REMARK  16 active torsions:
REMARK  status: ('A' for Active; 'I' for Inactive)
REMARK       I    between atoms: C2_2  and  N1_4 
REMARK    1  A    between atoms: N1_4  and  C3_6 
REMARK    2  A    between atoms: C5_9  and  O3_10 
REMARK    3  A    between atoms: C6_12  and  N2_13 
REMARK    4  A    between atoms: C10_22  and  N6_23 
REMARK    5  A    between atoms: C12_29  and  O4_30 
REMARK    6  A    between atoms: C13_32  and  N8_33 
REMARK    7  A    between atoms: C15_35  and  C16_36 
REMARK    8  A    between atoms: C16_36  and  N9_37 
REMARK    9  A    between atoms: N9_37  and  C17_39 
REMARK   10  A    between atoms: C17_39  and  O5_40 
REMARK   11  A    between atoms: C17_39  and  C18_42 
REMARK   12  A    between atoms: C18_42  and  O6_43 
REMARK   13  A    between atoms: C18_42  and  C19_45 
REMARK   14  A    between atoms: C19_45  and  C20_47 
REMARK   15  A    between atoms: C20_47  and  O8_48 
REMARK   16  A    between atoms: C20_47  and  O9_50 
ROOT
HETATM    1  C3  UNL     1      56.102  43.829  55.863  1.00  0.00     0.250 C 
HETATM    2  O2  UNL     1      55.939  42.949  56.875  1.00  0.00    -0.362 OA
HETATM    3  C4  UNL     1      56.884  42.916  57.849  1.00  0.00     0.204 C 
HETATM    4  C5  UNL     1      57.922  41.855  57.548  1.00  0.00     0.168 C 
HETATM    5  C6  UNL     1      57.839  41.613  56.034  1.00  0.00     0.154 C 
HETATM    6  C12 UNL     1      58.370  42.827  55.363  1.00  0.00     0.173 C 
HETATM    7  C13 UNL     1      57.484  44.011  55.328  1.00  0.00     0.188 C 
ENDROOT
BRANCH   7   8
HETATM    8  N8  UNL     1      58.149  45.174  55.881  1.00  0.00    -0.276 N 
HETATM    9  C14 UNL     1      59.226  45.235  56.666  1.00  0.00     0.140 A 
HETATM   10  C15 UNL     1      59.537  46.540  56.973  1.00  0.00     0.061 A 
HETATM   11  N10 UNL     1      58.575  47.260  56.322  1.00  0.00    -0.287 N 
HETATM   12  N11 UNL     1      57.758  46.414  55.676  1.00  0.00    -0.240 N 
ATOM     13  H10 UNL     1      58.493  48.277  56.325  1.00  0.00     0.188 HD
ATOM     14  H11 UNL     1      56.954  46.691  55.112  1.00  0.00     0.208 HD
BRANCH  10  15
HETATM   15  C16 UNL     1      60.646  47.077  57.809  1.00  0.00     0.176 C 
BRANCH  15  16
HETATM   16  N9  UNL     1      60.281  46.905  59.183  1.00  0.00    -0.389 N 
ATOM     17  H9  UNL     1      59.308  46.858  59.487  1.00  0.00     0.156 HD
BRANCH  16  18
HETATM   18  C17 UNL     1      61.373  46.805  60.096  1.00  0.00     0.250 C 
BRANCH  18  19
HETATM   19  O5  UNL     1      62.442  46.135  59.545  1.00  0.00    -0.374 OA
ATOM     20  H5  UNL     1      63.138  45.999  60.177  1.00  0.00     0.212 HD
ENDBRANCH  18  19
BRANCH  18  21
HETATM   21  C18 UNL     1      60.984  46.247  61.451  1.00  0.00     0.240 C 
BRANCH  21  22
HETATM   22  O6  UNL     1      62.057  45.612  62.068  1.00  0.00    -0.383 OA
ATOM     23  H6  UNL     1      61.923  44.672  62.121  1.00  0.00     0.210 HD
ENDBRANCH  21  22
BRANCH  21  24
HETATM   24  C19 UNL     1      59.890  45.264  61.274  1.00  0.00     0.213 C 
HETATM   25  O7  UNL     1      60.044  44.349  60.498  1.00  0.00    -0.290 OA
BRANCH  24  26
HETATM   26  C20 UNL     1      58.629  45.390  62.028  1.00  0.00     0.328 C 
BRANCH  26  27
HETATM   27  O8  UNL     1      57.896  46.445  61.503  1.00  0.00    -0.365 OA
ATOM     28  H8  UNL     1      56.971  46.242  61.577  1.00  0.00     0.213 HD
ENDBRANCH  26  27
BRANCH  26  29
HETATM   29  O9  UNL     1      57.883  44.192  61.968  1.00  0.00    -0.365 OA
ATOM     30  H9  UNL     1      57.225  44.235  61.284  1.00  0.00     0.213 HD
ENDBRANCH  26  29
ENDBRANCH  24  26
ENDBRANCH  21  24
ENDBRANCH  18  21
ENDBRANCH  16  18
ENDBRANCH  15  16
ENDBRANCH  10  15
ENDBRANCH   7   8
BRANCH   1  31
HETATM   31  N1  UNL     1      55.197  43.460  54.777  1.00  0.00    -0.333 N 
HETATM   32  C2  UNL     1      54.368  44.374  54.116  1.00  0.00     0.215 C 
HETATM   33  C1  UNL     1      53.480  43.909  53.023  1.00  0.00     0.117 C 
HETATM   34  O1  UNL     1      54.357  45.604  54.433  1.00  0.00    -0.274 OA
ATOM     35  H1  UNL     1      55.167  42.484  54.485  1.00  0.00     0.165 HD
ENDBRANCH   1  31
BRANCH   6  36
HETATM   36  O4  UNL     1      58.816  42.428  54.080  1.00  0.00    -0.391 OA
ATOM     37  H4  UNL     1      59.480  41.762  54.212  1.00  0.00     0.210 HD
ENDBRANCH   6  36
BRANCH   5  38
HETATM   38  N2  UNL     1      58.595  40.412  55.683  1.00  0.00    -0.317 N 
HETATM   39  C7  UNL     1      58.109  39.202  55.360  1.00  0.00     0.185 A 
HETATM   40  N3  UNL     1      59.127  38.366  55.104  1.00  0.00    -0.346 N 
HETATM   41  C8  UNL     1      60.288  39.016  55.256  1.00  0.00     0.120 A 
ATOM     42  H3  UNL     1      59.031  37.386  54.835  1.00  0.00     0.167 HD
HETATM   43  C9  UNL     1      61.612  38.659  55.124  1.00  0.00     0.162 A 
HETATM   44  C11 UNL     1      59.935  40.296  55.618  1.00  0.00     0.155 A 
HETATM   45  N4  UNL     1      62.027  37.359  54.754  1.00  0.00    -0.080 NA
HETATM   46  N5  UNL     1      62.564  39.580  55.355  1.00  0.00    -0.177 N 
HETATM   47  C10 UNL     1      62.245  40.852  55.715  1.00  0.00     0.678 A 
ATOM     48  H5  UNL     1      63.545  39.320  55.258  1.00  0.00     0.185 HD
HETATM   49  N7  UNL     1      60.964  41.163  55.833  1.00  0.00    -0.174 N 
ATOM     50  H7  UNL     1      60.731  42.118  56.102  1.00  0.00     0.186 HD
BRANCH  47  51
HETATM   51  N6  UNL     1      63.151  41.737  55.939  1.00  0.00    -0.234 N 
ATOM     52  H62 UNL     1      63.108  42.318  56.776  1.00  0.00     0.174 HD
ATOM     53  H61 UNL     1      63.929  41.882  55.294  1.00  0.00     0.174 HD
ENDBRANCH  47  51
ENDBRANCH   5  38
BRANCH   4  54
HETATM   54  O3  UNL     1      57.529  40.631  58.137  1.00  0.00    -0.391 OA
ATOM     55  H3  UNL     1      57.427  39.971  57.460  1.00  0.00     0.210 HD
ENDBRANCH   4  54
TORSDOF 16
ENDMDL
MODEL 5
REMARK VINA RESULT: -9.293549759      3.143      5.644
REMARK  16 active torsions:
REMARK  status: ('A' for Active; 'I' for Inactive)
REMARK       I    between atoms: C2_2  and  N1_4 
REMARK    1  A    between atoms: N1_4  and  C3_6 
REMARK    2  A    between atoms: C5_9  and  O3_10 
REMARK    3  A    between atoms: C6_12  and  N2_13 
REMARK    4  A    between atoms: C10_22  and  N6_23 
REMARK    5  A    between atoms: C12_29  and  O4_30 
REMARK    6  A    between atoms: C13_32  and  N8_33 
REMARK    7  A    between atoms: C15_35  and  C16_36 
REMARK    8  A    between atoms: C16_36  and  N9_37 
REMARK    9  A    between atoms: N9_37  and  C17_39 
REMARK   10  A    between atoms: C17_39  and  O5_40 
REMARK   11  A    between atoms: C17_39  and  C18_42 
REMARK   12  A    between atoms: C18_42  and  O6_43 
REMARK   13  A    between atoms: C18_42  and  C19_45 
REMARK   14  A    between atoms: C19_45  and  C20_47 
REMARK   15  A    between atoms: C20_47  and  O8_48 
REMARK   16  A    between atoms: C20_47  and  O9_50 
ROOT
HETATM    1  C3  UNL     1      57.422  43.950  56.221  1.00  0.00     0.250 C 
HETATM    2  O2  UNL     1      56.718  43.293  57.168  1.00  0.00    -0.362 OA
HETATM    3  C4  UNL     1      57.380  42.866  58.273  1.00  0.00     0.204 C 
HETATM    4  C5  UNL     1      57.834  41.432  58.102  1.00  0.00     0.168 C 
HETATM    5  C6  UNL     1      57.877  41.190  56.586  1.00  0.00     0.154 C 
HETATM    6  C12 UNL     1      59.007  41.986  56.043  1.00  0.00     0.173 C 
HETATM    7  C13 UNL     1      58.792  43.444  55.910  1.00  0.00     0.188 C 
ENDROOT
BRANCH   7   8
HETATM    8  N8  UNL     1      59.831  44.186  56.595  1.00  0.00    -0.276 N 
HETATM    9  C14 UNL     1      59.736  45.322  57.290  1.00  0.00     0.140 A 
HETATM   10  C15 UNL     1      60.964  45.699  57.783  1.00  0.00     0.061 A 
HETATM   11  N10 UNL     1      61.804  44.717  57.338  1.00  0.00    -0.287 N 
HETATM   12  N11 UNL     1      61.096  43.825  56.629  1.00  0.00    -0.240 N 
ATOM     13  H10 UNL     1      62.808  44.670  57.517  1.00  0.00     0.188 HD
ATOM     14  H11 UNL     1      61.481  42.991  56.183  1.00  0.00     0.208 HD
BRANCH  10  15
HETATM   15  C16 UNL     1      61.330  46.885  58.608  1.00  0.00     0.176 C 
BRANCH  15  16
HETATM   16  N9  UNL     1      62.057  46.416  59.749  1.00  0.00    -0.389 N 
ATOM     17  H9  UNL     1      62.985  46.001  59.671  1.00  0.00     0.156 HD
BRANCH  16  18
HETATM   18  C17 UNL     1      61.391  46.571  61.002  1.00  0.00     0.250 C 
BRANCH  18  19
HETATM   19  O5  UNL     1      61.863  45.686  61.945  1.00  0.00    -0.374 OA
ATOM     20  H5  UNL     1      61.739  46.013  62.829  1.00  0.00     0.212 HD
ENDBRANCH  18  19
BRANCH  18  21
HETATM   21  C18 UNL     1      59.880  46.543  60.896  1.00  0.00     0.240 C 
BRANCH  21  22
HETATM   22  O6  UNL     1      59.290  47.459  61.761  1.00  0.00    -0.383 OA
ATOM     23  H6  UNL     1      58.342  47.421  61.716  1.00  0.00     0.210 HD
ENDBRANCH  21  22
BRANCH  21  24
HETATM   24  C19 UNL     1      59.395  45.187  61.241  1.00  0.00     0.213 C 
HETATM   25  O7  UNL     1      59.771  44.244  60.582  1.00  0.00    -0.290 OA
BRANCH  24  26
HETATM   26  C20 UNL     1      58.468  44.977  62.369  1.00  0.00     0.328 C 
BRANCH  26  27
HETATM   27  O8  UNL     1      57.773  43.793  62.163  1.00  0.00    -0.365 OA
ATOM     28  H8  UNL     1      57.140  43.927  61.468  1.00  0.00     0.213 HD
ENDBRANCH  26  27
BRANCH  26  29
HETATM   29  O9  UNL     1      59.167  44.932  63.595  1.00  0.00    -0.365 OA
ATOM     30  H9  UNL     1      60.020  45.343  63.516  1.00  0.00     0.213 HD
ENDBRANCH  26  29
ENDBRANCH  24  26
ENDBRANCH  21  24
ENDBRANCH  18  21
ENDBRANCH  16  18
ENDBRANCH  15  16
ENDBRANCH  10  15
ENDBRANCH   7   8
BRANCH   1  31
HETATM   31  N1  UNL     1      56.624  43.998  54.999  1.00  0.00    -0.333 N 
HETATM   32  C2  UNL     1      56.179  45.187  54.410  1.00  0.00     0.215 C 
HETATM   33  C1  UNL     1      55.373  45.139  53.167  1.00  0.00     0.117 C 
HETATM   34  O1  UNL     1      56.451  46.318  54.921  1.00  0.00    -0.274 OA
ATOM     35  H1  UNL     1      56.378  43.116  54.549  1.00  0.00     0.165 HD
ENDBRANCH   1  31
BRANCH   6  36
HETATM   36  O4  UNL     1      59.401  41.370  54.832  1.00  0.00    -0.391 OA
ATOM     37  H4  UNL     1      59.529  40.447  55.019  1.00  0.00     0.210 HD
ENDBRANCH   6  36
BRANCH   5  38
HETATM   38  N2  UNL     1      58.028  39.761  56.317  1.00  0.00    -0.317 N 
HETATM   39  C7  UNL     1      57.059  38.871  56.040  1.00  0.00     0.185 A 
HETATM   40  N3  UNL     1      57.606  37.660  55.856  1.00  0.00    -0.346 N 
HETATM   41  C8  UNL     1      58.934  37.741  56.009  1.00  0.00     0.120 A 
ATOM     42  H3  UNL     1      57.090  36.808  55.633  1.00  0.00     0.167 HD
HETATM   43  C9  UNL     1      59.966  36.831  55.935  1.00  0.00     0.162 A 
HETATM   44  C11 UNL     1      59.180  39.064  56.298  1.00  0.00     0.155 A 
HETATM   45  N4  UNL     1      59.767  35.462  55.642  1.00  0.00    -0.080 NA
HETATM   46  N5  UNL     1      61.225  37.251  56.148  1.00  0.00    -0.177 N 
HETATM   47  C10 UNL     1      61.498  38.552  56.435  1.00  0.00     0.678 A 
ATOM     48  H5  UNL     1      61.992  36.581  56.092  1.00  0.00     0.185 HD
HETATM   49  N7  UNL     1      60.484  39.401  56.499  1.00  0.00    -0.174 N 
ATOM     50  H7  UNL     1      60.695  40.375  56.714  1.00  0.00     0.186 HD
BRANCH  47  51
HETATM   51  N6  UNL     1      62.700  38.960  56.640  1.00  0.00    -0.234 N 
ATOM     52  H62 UNL     1      63.038  39.110  57.591  1.00  0.00     0.174 HD
ATOM     53  H61 UNL     1      63.343  39.143  55.869  1.00  0.00     0.174 HD
ENDBRANCH  47  51
ENDBRANCH   5  38
BRANCH   4  54
HETATM   54  O3  UNL     1      56.832  40.559  58.585  1.00  0.00    -0.391 OA
ATOM     55  H3  UNL     1      56.557  40.840  59.450  1.00  0.00     0.210 HD
ENDBRANCH   4  54
TORSDOF 16
ENDMDL
