MODEL 1
REMARK VINA RESULT: -7.281451118      0.000      0.000
REMARK  5 active torsions:
REMARK  status: ('A' for Active; 'I' for Inactive)
REMARK       I    between atoms: C2_2  and  N1_4 
REMARK    1  A    between atoms: N1_4  and  C3_6 
REMARK    2  A    between atoms: C3_6  and  C4_7 
REMARK    3  A    between atoms: C4_7  and  C5_8 
REMARK    4  A    between atoms: N4_16  and  C8_18 
REMARK    5  A    between atoms: C8_18  and  C9_20 
ROOT
HETATM    1  C5  UNL     1      44.035   1.236  91.298  1.00  0.00     0.155 C 
HETATM    2  N2  UNL     1      44.834   0.705  90.210  1.00  0.00    -0.331 N 
ATOM      3  H2  UNL     1      45.833   0.864  90.086  1.00  0.00     0.165 HD
HETATM    4  C6  UNL     1      44.016  -0.070  89.342  1.00  0.00     0.322 C 
HETATM    5  O2  UNL     1      44.249  -0.423  88.156  1.00  0.00    -0.247 OA
HETATM    6  N3  UNL     1      42.851  -0.368  90.112  1.00  0.00    -0.296 N 
ATOM      7  H3  UNL     1      42.057  -0.915  89.781  1.00  0.00     0.172 HD
HETATM    8  C7  UNL     1      42.962   0.209  91.408  1.00  0.00     0.109 C 
HETATM    9  N4  UNL     1      42.267  -0.098  92.475  1.00  0.00    -0.337 N 
ATOM     10  H4  UNL     1      42.427   0.381  93.361  1.00  0.00     0.168 HD
ENDROOT
BRANCH   1  11
HETATM   11  C4  UNL     1      43.422   2.531  90.790  1.00  0.00     0.053 C 
BRANCH  11  12
HETATM   12  C3  UNL     1      43.486   3.540  91.883  1.00  0.00     0.125 C 
BRANCH  12  13
HETATM   13  N1  UNL     1      42.315   3.674  92.680  1.00  0.00    -0.361 N 
HETATM   14  C2  UNL     1      42.191   3.087  93.936  1.00  0.00     0.213 C 
HETATM   15  C1  UNL     1      40.958   3.227  94.786  1.00  0.00     0.117 C 
HETATM   16  O1  UNL     1      43.116   2.397  94.437  1.00  0.00    -0.274 OA
ATOM     17  H1  UNL     1      41.535   4.222  92.316  1.00  0.00     0.162 HD
ENDBRANCH  12  13
ENDBRANCH  11  12
ENDBRANCH   1  11
BRANCH   9  18
HETATM   18  C8  UNL     1      41.289  -1.111  92.364  1.00  0.00     0.102 C 
HETATM   19  S1  UNL     1      41.771  -2.657  92.567  1.00  0.00    -0.063 SA
BRANCH  18  20
HETATM   20  C9  UNL     1      39.873  -0.823  92.074  1.00  0.00     0.083 C 
HETATM   21  C10 UNL     1      38.977  -1.799  92.773  1.00  0.00     0.040 C 
HETATM   22  C11 UNL     1      39.476   0.572  92.549  1.00  0.00     0.040 C 
HETATM   23 CL1  UNL     1      39.515  -0.909  90.331  1.00  0.00    -0.112 Cl
ENDBRANCH  18  20
ENDBRANCH   9  18
TORSDOF 5
ENDMDL
MODEL 2
REMARK VINA RESULT: -7.228722943      0.746      1.025
REMARK  5 active torsions:
REMARK  status: ('A' for Active; 'I' for Inactive)
REMARK       I    between atoms: C2_2  and  N1_4 
REMARK    1  A    between atoms: N1_4  and  C3_6 
REMARK    2  A    between atoms: C3_6  and  C4_7 
REMARK    3  A    between atoms: C4_7  and  C5_8 
REMARK    4  A    between atoms: N4_16  and  C8_18 
REMARK    5  A    between atoms: C8_18  and  C9_20 
ROOT
HETATM    1  C5  UNL     1      44.068   1.219  91.282  1.00  0.00     0.155 C 
HETATM    2  N2  UNL     1      44.875   0.680  90.205  1.00  0.00    -0.331 N 
ATOM      3  H2  UNL     1      45.879   0.826  90.097  1.00  0.00     0.165 HD
HETATM    4  C6  UNL     1      44.061  -0.083  89.324  1.00  0.00     0.322 C 
HETATM    5  O2  UNL     1      44.307  -0.438  88.141  1.00  0.00    -0.247 OA
HETATM    6  N3  UNL     1      42.881  -0.368  90.076  1.00  0.00    -0.296 N 
ATOM      7  H3  UNL     1      42.084  -0.904  89.733  1.00  0.00     0.172 HD
HETATM    8  C7  UNL     1      42.980   0.206  91.374  1.00  0.00     0.109 C 
HETATM    9  N4  UNL     1      42.265  -0.094  92.431  1.00  0.00    -0.337 N 
ATOM     10  H4  UNL     1      42.418   0.381  93.320  1.00  0.00     0.168 HD
ENDROOT
BRANCH   1  11
HETATM   11  C4  UNL     1      43.479   2.523  90.768  1.00  0.00     0.053 C 
BRANCH  11  12
HETATM   12  C3  UNL     1      43.560   3.535  91.856  1.00  0.00     0.125 C 
BRANCH  12  13
HETATM   13  N1  UNL     1      42.392   3.691  92.654  1.00  0.00    -0.361 N 
HETATM   14  C2  UNL     1      42.258   3.110  93.912  1.00  0.00     0.213 C 
HETATM   15  C1  UNL     1      41.029   3.273  94.761  1.00  0.00     0.117 C 
HETATM   16  O1  UNL     1      43.172   2.406  94.413  1.00  0.00    -0.274 OA
ATOM     17  H1  UNL     1      41.621   4.252  92.289  1.00  0.00     0.162 HD
ENDBRANCH  12  13
ENDBRANCH  11  12
ENDBRANCH   1  11
BRANCH   9  18
HETATM   18  C8  UNL     1      41.276  -1.094  92.303  1.00  0.00     0.102 C 
HETATM   19  S1  UNL     1      41.746  -2.650  92.452  1.00  0.00    -0.063 SA
BRANCH  18  20
HETATM   20  C9  UNL     1      39.859  -0.784  92.043  1.00  0.00     0.083 C 
HETATM   21  C10 UNL     1      39.550  -0.888  90.581  1.00  0.00     0.040 C 
HETATM   22  C11 UNL     1      38.930  -1.754  92.768  1.00  0.00     0.040 C 
HETATM   23 CL1  UNL     1      39.424   0.860  92.575  1.00  0.00    -0.112 Cl
ENDBRANCH  18  20
ENDBRANCH   9  18
TORSDOF 5
ENDMDL
MODEL 3
REMARK VINA RESULT: -7.167748077      2.776      4.407
REMARK  5 active torsions:
REMARK  status: ('A' for Active; 'I' for Inactive)
REMARK       I    between atoms: C2_2  and  N1_4 
REMARK    1  A    between atoms: N1_4  and  C3_6 
REMARK    2  A    between atoms: C3_6  and  C4_7 
REMARK    3  A    between atoms: C4_7  and  C5_8 
REMARK    4  A    between atoms: N4_16  and  C8_18 
REMARK    5  A    between atoms: C8_18  and  C9_20 
ROOT
HETATM    1  C5  UNL     1      43.587  -0.726  90.082  1.00  0.00     0.155 C 
HETATM    2  N2  UNL     1      44.674  -0.247  89.250  1.00  0.00    -0.331 N 
ATOM      3  H2  UNL     1      44.897  -0.599  88.320  1.00  0.00     0.165 HD
HETATM    4  C6  UNL     1      45.380   0.787  89.924  1.00  0.00     0.322 C 
HETATM    5  O2  UNL     1      46.537   1.227  89.687  1.00  0.00    -0.247 OA
HETATM    6  N3  UNL     1      44.487   1.229  90.947  1.00  0.00    -0.296 N 
ATOM      7  H3  UNL     1      44.689   1.970  91.618  1.00  0.00     0.172 HD
HETATM    8  C7  UNL     1      43.276   0.485  90.892  1.00  0.00     0.109 C 
HETATM    9  N4  UNL     1      42.127   0.799  91.439  1.00  0.00    -0.337 N 
ATOM     10  H4  UNL     1      41.315   0.190  91.338  1.00  0.00     0.168 HD
ENDROOT
BRANCH   1  11
HETATM   11  C4  UNL     1      44.179  -1.786  90.996  1.00  0.00     0.053 C 
BRANCH  11  12
HETATM   12  C3  UNL     1      43.223  -2.925  91.073  1.00  0.00     0.125 C 
BRANCH  12  13
HETATM   13  N1  UNL     1      41.855  -2.582  91.258  1.00  0.00    -0.361 N 
HETATM   14  C2  UNL     1      41.267  -2.494  92.517  1.00  0.00     0.213 C 
HETATM   15  C1  UNL     1      39.823  -2.129  92.722  1.00  0.00     0.117 C 
HETATM   16  O1  UNL     1      41.921  -2.720  93.568  1.00  0.00    -0.274 OA
ATOM     17  H1  UNL     1      41.281  -2.393  90.436  1.00  0.00     0.162 HD
ENDBRANCH  12  13
ENDBRANCH  11  12
ENDBRANCH   1  11
BRANCH   9  18
HETATM   18  C8  UNL     1      42.045   2.003  92.171  1.00  0.00     0.102 C 
HETATM   19  S1  UNL     1      41.977   3.400  91.330  1.00  0.00    -0.063 SA
BRANCH  18  20
HETATM   20  C9  UNL     1      42.021   2.039  93.644  1.00  0.00     0.083 C 
HETATM   21  C10 UNL     1      42.854   3.171  94.164  1.00  0.00     0.040 C 
HETATM   22  C11 UNL     1      40.606   2.241  94.178  1.00  0.00     0.040 C 
HETATM   23 CL1  UNL     1      42.645   0.532  94.362  1.00  0.00    -0.112 Cl
ENDBRANCH  18  20
ENDBRANCH   9  18
TORSDOF 5
ENDMDL
MODEL 4
REMARK VINA RESULT: -7.056191249      3.425      5.504
REMARK  5 active torsions:
REMARK  status: ('A' for Active; 'I' for Inactive)
REMARK       I    between atoms: C2_2  and  N1_4 
REMARK    1  A    between atoms: N1_4  and  C3_6 
REMARK    2  A    between atoms: C3_6  and  C4_7 
REMARK    3  A    between atoms: C4_7  and  C5_8 
REMARK    4  A    between atoms: N4_16  and  C8_18 
REMARK    5  A    between atoms: C8_18  and  C9_20 
ROOT
HETATM    1  C5  UNL     1      41.658  -1.872  92.623  1.00  0.00     0.155 C 
HETATM    2  N2  UNL     1      40.227  -1.918  92.395  1.00  0.00    -0.331 N 
ATOM      3  H2  UNL     1      39.571  -2.503  92.911  1.00  0.00     0.165 HD
HETATM    4  C6  UNL     1      39.874  -1.026  91.344  1.00  0.00     0.322 C 
HETATM    5  O2  UNL     1      38.821  -1.008  90.654  1.00  0.00    -0.247 OA
HETATM    6  N3  UNL     1      40.988  -0.139  91.233  1.00  0.00    -0.296 N 
ATOM      7  H3  UNL     1      41.058   0.629  90.566  1.00  0.00     0.172 HD
HETATM    8  C7  UNL     1      41.984  -0.484  92.189  1.00  0.00     0.109 C 
HETATM    9  N4  UNL     1      42.979   0.261  92.601  1.00  0.00    -0.337 N 
ATOM     10  H4  UNL     1      43.642  -0.085  93.295  1.00  0.00     0.168 HD
ENDROOT
BRANCH   1  11
HETATM   11  C4  UNL     1      42.283  -2.850  91.641  1.00  0.00     0.053 C 
BRANCH  11  12
HETATM   12  C3  UNL     1      43.252  -3.703  92.382  1.00  0.00     0.125 C 
BRANCH  12  13
HETATM   13  N1  UNL     1      44.335  -3.022  93.006  1.00  0.00    -0.361 N 
HETATM   14  C2  UNL     1      45.628  -3.536  93.034  1.00  0.00     0.213 C 
HETATM   15  C1  UNL     1      46.778  -2.822  93.688  1.00  0.00     0.117 C 
HETATM   16  O1  UNL     1      45.909  -4.644  92.508  1.00  0.00    -0.274 OA
ATOM     17  H1  UNL     1      44.156  -2.121  93.451  1.00  0.00     0.162 HD
ENDBRANCH  12  13
ENDBRANCH  11  12
ENDBRANCH   1  11
BRANCH   9  18
HETATM   18  C8  UNL     1      43.109   1.559  92.059  1.00  0.00     0.102 C 
HETATM   19  S1  UNL     1      43.973   1.725  90.684  1.00  0.00    -0.063 SA
BRANCH  18  20
HETATM   20  C9  UNL     1      42.501   2.747  92.684  1.00  0.00     0.083 C 
HETATM   21  C10 UNL     1      42.338   2.548  94.160  1.00  0.00     0.040 C 
HETATM   22  C11 UNL     1      43.369   3.988  92.492  1.00  0.00     0.040 C 
HETATM   23 CL1  UNL     1      40.896   3.116  92.004  1.00  0.00    -0.112 Cl
ENDBRANCH  18  20
ENDBRANCH   9  18
TORSDOF 5
ENDMDL
MODEL 5
REMARK VINA RESULT: -7.038367962      3.095      4.750
REMARK  5 active torsions:
REMARK  status: ('A' for Active; 'I' for Inactive)
REMARK       I    between atoms: C2_2  and  N1_4 
REMARK    1  A    between atoms: N1_4  and  C3_6 
REMARK    2  A    between atoms: C3_6  and  C4_7 
REMARK    3  A    between atoms: C4_7  and  C5_8 
REMARK    4  A    between atoms: N4_16  and  C8_18 
REMARK    5  A    between atoms: C8_18  and  C9_20 
ROOT
HETATM    1  C5  UNL     1      42.393  -2.480  91.499  1.00  0.00     0.155 C 
HETATM    2  N2  UNL     1      43.594  -3.288  91.582  1.00  0.00    -0.331 N 
ATOM      3  H2  UNL     1      43.682  -4.243  91.238  1.00  0.00     0.165 HD
HETATM    4  C6  UNL     1      44.632  -2.550  92.216  1.00  0.00     0.322 C 
HETATM    5  O2  UNL     1      45.689  -2.983  92.746  1.00  0.00    -0.247 OA
HETATM    6  N3  UNL     1      44.216  -1.187  92.124  1.00  0.00    -0.296 N 
ATOM      7  H3  UNL     1      44.739  -0.390  92.486  1.00  0.00     0.172 HD
HETATM    8  C7  UNL     1      42.963  -1.104  91.455  1.00  0.00     0.109 C 
HETATM    9  N4  UNL     1      42.423  -0.041  90.912  1.00  0.00    -0.337 N 
ATOM     10  H4  UNL     1      41.513  -0.090  90.453  1.00  0.00     0.168 HD
ENDROOT
BRANCH   1  11
HETATM   11  C4  UNL     1      41.659  -2.661  92.817  1.00  0.00     0.053 C 
BRANCH  11  12
HETATM   12  C3  UNL     1      40.203  -2.474  92.572  1.00  0.00     0.125 C 
BRANCH  12  13
HETATM   13  N1  UNL     1      39.673  -1.194  92.900  1.00  0.00    -0.361 N 
HETATM   14  C2  UNL     1      39.190  -0.313  91.937  1.00  0.00     0.213 C 
HETATM   15  C1  UNL     1      38.626   1.039  92.275  1.00  0.00     0.117 C 
HETATM   16  O1  UNL     1      39.200  -0.602  90.713  1.00  0.00    -0.274 OA
ATOM     17  H1  UNL     1      39.646  -0.911  93.880  1.00  0.00     0.162 HD
ENDBRANCH  12  13
ENDBRANCH  11  12
ENDBRANCH   1  11
BRANCH   9  18
HETATM   18  C8  UNL     1      43.136   1.177  90.979  1.00  0.00     0.102 C 
HETATM   19  S1  UNL     1      44.311   1.431  89.876  1.00  0.00    -0.063 SA
BRANCH  18  20
HETATM   20  C9  UNL     1      42.859   2.206  91.997  1.00  0.00     0.083 C 
HETATM   21  C10 UNL     1      44.066   3.061  92.232  1.00  0.00     0.040 C 
HETATM   22  C11 UNL     1      41.728   3.134  91.564  1.00  0.00     0.040 C 
HETATM   23 CL1  UNL     1      42.386   1.492  93.560  1.00  0.00    -0.112 Cl
ENDBRANCH  18  20
ENDBRANCH   9  18
TORSDOF 5
ENDMDL
