MODEL 1
REMARK VINA RESULT: -7.423148774      0.000      0.000
REMARK  6 active torsions:
REMARK  status: ('A' for Active; 'I' for Inactive)
REMARK    1  A    between atoms: C2_2  and  S1_3 
REMARK    2  A    between atoms: S1_3  and  N1_6 
REMARK    3  A    between atoms: N1_6  and  C3_8 
REMARK    4  A    between atoms: C4_11  and  C5_12 
REMARK    5  A    between atoms: C6_13  and  C7_14 
REMARK    6  A    between atoms: C8_16  and  C9_17 
ROOT
HETATM    1  C3  UNL     1      42.288  -1.112  92.967  1.00  0.00     0.693 A 
HETATM    2  N2  UNL     1      42.948  -0.045  93.448  1.00  0.00    -0.181 N 
ATOM      3  H2  UNL     1      43.879  -0.056  93.866  1.00  0.00     0.185 HD
HETATM    4  C4  UNL     1      42.167   1.042  93.281  1.00  0.00     0.131 A 
HETATM    5  C8  UNL     1      40.989   0.668  92.684  1.00  0.00     0.097 A 
HETATM    6  N4  UNL     1      41.113  -0.687  92.509  1.00  0.00    -0.187 N 
ATOM      7  H4  UNL     1      40.404  -1.286  92.087  1.00  0.00     0.184 HD
ENDROOT
BRANCH   1   8
HETATM    8  N1  UNL     1      42.686  -2.347  92.935  1.00  0.00    -0.116 N 
ATOM      9  H1  UNL     1      42.246  -3.042  93.538  1.00  0.00     0.197 HD
BRANCH   8  10
HETATM   10  S1  UNL     1      43.954  -2.809  91.875  1.00  0.00     0.243 S 
HETATM   11  O1  UNL     1      43.968  -4.325  91.834  1.00  0.00    -0.205 OA
HETATM   12  O2  UNL     1      45.238  -2.256  92.379  1.00  0.00    -0.205 OA
BRANCH  10  13
HETATM   13  C2  UNL     1      43.542  -2.206  90.249  1.00  0.00     0.159 C 
HETATM   14  C1  UNL     1      44.164  -0.874  89.959  1.00  0.00     0.023 C 
ENDBRANCH  10  13
ENDBRANCH   8  10
ENDBRANCH   1   8
BRANCH   4  15
HETATM   15  C5  UNL     1      42.575   2.364  93.692  1.00  0.00    -0.043 C 
HETATM   16  C6  UNL     1      42.888   3.477  94.030  1.00  0.00    -0.068 C 
BRANCH  16  17
HETATM   17  C7  UNL     1      43.263   4.836  94.437  1.00  0.00     0.316 C 
HETATM   18  F1  UNL     1      42.832   5.156  95.690  1.00  0.00    -0.242 F 
ENDBRANCH  16  17
ENDBRANCH   4  15
BRANCH   5  19
HETATM   19  C9  UNL     1      39.846   1.464  92.305  1.00  0.00     0.011 A 
HETATM   20  C10 UNL     1      39.514   2.724  92.665  1.00  0.00     0.032 A 
HETATM   21  C11 UNL     1      38.313   3.097  92.053  1.00  0.00     0.088 A 
HETATM   22  N3  UNL     1      37.929   2.038  91.319  1.00  0.00    -0.374 N 
HETATM   23  C12 UNL     1      38.829   1.050  91.453  1.00  0.00     0.101 A 
ATOM     24  H3  UNL     1      37.085   1.992  90.748  1.00  0.00     0.164 HD
ENDBRANCH   5  19
TORSDOF 6
ENDMDL
MODEL 2
REMARK VINA RESULT: -7.403768981      3.662      4.703
REMARK  6 active torsions:
REMARK  status: ('A' for Active; 'I' for Inactive)
REMARK    1  A    between atoms: C2_2  and  S1_3 
REMARK    2  A    between atoms: S1_3  and  N1_6 
REMARK    3  A    between atoms: N1_6  and  C3_8 
REMARK    4  A    between atoms: C4_11  and  C5_12 
REMARK    5  A    between atoms: C6_13  and  C7_14 
REMARK    6  A    between atoms: C8_16  and  C9_17 
ROOT
HETATM    1  C3  UNL     1      44.338   2.321  91.531  1.00  0.00     0.693 A 
HETATM    2  N2  UNL     1      43.824   1.079  91.531  1.00  0.00    -0.181 N 
ATOM      3  H2  UNL     1      44.280   0.242  91.166  1.00  0.00     0.185 HD
HETATM    4  C4  UNL     1      42.602   1.131  92.098  1.00  0.00     0.131 A 
HETATM    5  C8  UNL     1      42.326   2.425  92.467  1.00  0.00     0.097 A 
HETATM    6  N4  UNL     1      43.442   3.129  92.091  1.00  0.00    -0.187 N 
ATOM      7  H4  UNL     1      43.568   4.133  92.223  1.00  0.00     0.184 HD
ENDROOT
BRANCH   1   8
HETATM    8  N1  UNL     1      45.493   2.705  91.078  1.00  0.00    -0.116 N 
ATOM      9  H1  UNL     1      45.707   3.699  91.003  1.00  0.00     0.197 HD
BRANCH   8  10
HETATM   10  S1  UNL     1      46.658   1.536  90.607  1.00  0.00     0.243 S 
HETATM   11  O1  UNL     1      46.154   0.897  89.327  1.00  0.00    -0.205 OA
HETATM   12  O2  UNL     1      46.819   0.539  91.698  1.00  0.00    -0.205 OA
BRANCH  10  13
HETATM   13  C2  UNL     1      48.172   2.402  90.246  1.00  0.00     0.159 C 
HETATM   14  C1  UNL     1      49.060   1.638  89.312  1.00  0.00     0.023 C 
ENDBRANCH  10  13
ENDBRANCH   8  10
ENDBRANCH   1   8
BRANCH   4  15
HETATM   15  C5  UNL     1      41.767  -0.035  92.257  1.00  0.00    -0.043 C 
HETATM   16  C6  UNL     1      41.047  -0.991  92.395  1.00  0.00    -0.068 C 
BRANCH  16  17
HETATM   17  C7  UNL     1      40.165  -2.151  92.569  1.00  0.00     0.316 C 
HETATM   18  F1  UNL     1      38.842  -1.827  92.519  1.00  0.00    -0.242 F 
ENDBRANCH  16  17
ENDBRANCH   4  15
BRANCH   5  19
HETATM   19  C9  UNL     1      41.156   2.980  93.104  1.00  0.00     0.011 A 
HETATM   20  C10 UNL     1      41.007   3.476  94.353  1.00  0.00     0.032 A 
HETATM   21  C11 UNL     1      39.690   3.909  94.543  1.00  0.00     0.088 A 
HETATM   22  N3  UNL     1      39.051   3.664  93.385  1.00  0.00    -0.374 N 
HETATM   23  C12 UNL     1      39.906   3.109  92.510  1.00  0.00     0.101 A 
ATOM     24  H3  UNL     1      38.069   3.868  93.201  1.00  0.00     0.164 HD
ENDBRANCH   5  19
TORSDOF 6
ENDMDL
MODEL 3
REMARK VINA RESULT: -7.352863905      3.592      4.930
REMARK  6 active torsions:
REMARK  status: ('A' for Active; 'I' for Inactive)
REMARK    1  A    between atoms: C2_2  and  S1_3 
REMARK    2  A    between atoms: S1_3  and  N1_6 
REMARK    3  A    between atoms: N1_6  and  C3_8 
REMARK    4  A    between atoms: C4_11  and  C5_12 
REMARK    5  A    between atoms: C6_13  and  C7_14 
REMARK    6  A    between atoms: C8_16  and  C9_17 
ROOT
HETATM    1  C3  UNL     1      41.322   1.452  91.590  1.00  0.00     0.693 A 
HETATM    2  N2  UNL     1      42.539   1.239  91.063  1.00  0.00    -0.181 N 
ATOM      3  H2  UNL     1      42.783   0.506  90.395  1.00  0.00     0.185 HD
HETATM    4  C4  UNL     1      43.382   2.162  91.569  1.00  0.00     0.131 A 
HETATM    5  C8  UNL     1      42.697   2.979  92.433  1.00  0.00     0.097 A 
HETATM    6  N4  UNL     1      41.413   2.494  92.411  1.00  0.00    -0.187 N 
ATOM      7  H4  UNL     1      40.637   2.879  92.950  1.00  0.00     0.184 HD
ENDROOT
BRANCH   1   8
HETATM    8  N1  UNL     1      40.229   0.787  91.365  1.00  0.00    -0.116 N 
ATOM      9  H1  UNL     1      39.418   1.257  90.965  1.00  0.00     0.197 HD
BRANCH   8  10
HETATM   10  S1  UNL     1      40.153  -0.885  91.743  1.00  0.00     0.243 S 
HETATM   11  O1  UNL     1      40.455  -1.644  90.464  1.00  0.00    -0.205 OA
HETATM   12  O2  UNL     1      38.801  -1.206  92.272  1.00  0.00    -0.205 OA
BRANCH  10  13
HETATM   13  C2  UNL     1      41.446  -1.230  92.920  1.00  0.00     0.159 C 
HETATM   14  C1  UNL     1      41.827  -2.679  92.943  1.00  0.00     0.023 C 
ENDBRANCH  10  13
ENDBRANCH   8  10
ENDBRANCH   1   8
BRANCH   4  15
HETATM   15  C5  UNL     1      44.779   2.219  91.211  1.00  0.00    -0.043 C 
HETATM   16  C6  UNL     1      45.942   2.243  90.895  1.00  0.00    -0.068 C 
BRANCH  16  17
HETATM   17  C7  UNL     1      47.357   2.263  90.509  1.00  0.00     0.316 C 
HETATM   18  F1  UNL     1      48.160   1.604  91.392  1.00  0.00    -0.242 F 
ENDBRANCH  16  17
ENDBRANCH   4  15
BRANCH   5  19
HETATM   19  C9  UNL     1      43.159   4.103  93.213  1.00  0.00     0.011 A 
HETATM   20  C10 UNL     1      42.726   4.558  94.410  1.00  0.00     0.032 A 
HETATM   21  C11 UNL     1      43.468   5.681  94.792  1.00  0.00     0.088 A 
HETATM   22  N3  UNL     1      44.353   5.892  93.802  1.00  0.00    -0.374 N 
HETATM   23  C12 UNL     1      44.188   4.962  92.847  1.00  0.00     0.101 A 
ATOM     24  H3  UNL     1      45.044   6.642  93.780  1.00  0.00     0.164 HD
ENDBRANCH   5  19
TORSDOF 6
ENDMDL
MODEL 4
REMARK VINA RESULT: -7.241771442      3.130      4.191
REMARK  6 active torsions:
REMARK  status: ('A' for Active; 'I' for Inactive)
REMARK    1  A    between atoms: C2_2  and  S1_3 
REMARK    2  A    between atoms: S1_3  and  N1_6 
REMARK    3  A    between atoms: N1_6  and  C3_8 
REMARK    4  A    between atoms: C4_11  and  C5_12 
REMARK    5  A    between atoms: C6_13  and  C7_14 
REMARK    6  A    between atoms: C8_16  and  C9_17 
ROOT
HETATM    1  C3  UNL     1      44.060   2.233  91.405  1.00  0.00     0.693 A 
HETATM    2  N2  UNL     1      43.263   2.982  92.184  1.00  0.00    -0.181 N 
ATOM      3  H2  UNL     1      43.404   3.967  92.415  1.00  0.00     0.185 HD
HETATM    4  C4  UNL     1      42.243   2.208  92.608  1.00  0.00     0.131 A 
HETATM    5  C8  UNL     1      42.387   0.944  92.093  1.00  0.00     0.097 A 
HETATM    6  N4  UNL     1      43.539   1.011  91.349  1.00  0.00    -0.187 N 
ATOM      7  H4  UNL     1      43.939   0.232  90.826  1.00  0.00     0.184 HD
ENDROOT
BRANCH   1   8
HETATM    8  N1  UNL     1      45.150   2.595  90.799  1.00  0.00    -0.116 N 
ATOM      9  H1  UNL     1      45.270   3.562  90.499  1.00  0.00     0.197 HD
BRANCH   8  10
HETATM   10  S1  UNL     1      46.387   1.444  90.503  1.00  0.00     0.243 S 
HETATM   11  O1  UNL     1      46.044   0.747  89.199  1.00  0.00    -0.205 OA
HETATM   12  O2  UNL     1      46.449   0.489  91.641  1.00  0.00    -0.205 OA
BRANCH  10  13
HETATM   13  C2  UNL     1      47.912   2.338  90.279  1.00  0.00     0.159 C 
HETATM   14  C1  UNL     1      48.924   1.557  89.497  1.00  0.00     0.023 C 
ENDBRANCH  10  13
ENDBRANCH   8  10
ENDBRANCH   1   8
BRANCH   4  15
HETATM   15  C5  UNL     1      41.196   2.703  93.469  1.00  0.00    -0.043 C 
HETATM   16  C6  UNL     1      40.327   3.094  94.207  1.00  0.00    -0.068 C 
BRANCH  16  17
HETATM   17  C7  UNL     1      39.269   3.561  95.109  1.00  0.00     0.316 C 
HETATM   18  F1  UNL     1      39.395   3.076  96.376  1.00  0.00    -0.242 F 
ENDBRANCH  16  17
ENDBRANCH   4  15
BRANCH   5  19
HETATM   19  C9  UNL     1      41.559  -0.227  92.258  1.00  0.00     0.011 A 
HETATM   20  C10 UNL     1      40.226  -0.372  92.087  1.00  0.00     0.032 A 
HETATM   21  C11 UNL     1      39.849  -1.692  92.359  1.00  0.00     0.088 A 
HETATM   22  N3  UNL     1      40.979  -2.336  92.698  1.00  0.00    -0.374 N 
HETATM   23  C12 UNL     1      42.015  -1.482  92.645  1.00  0.00     0.101 A 
ATOM     24  H3  UNL     1      41.041  -3.321  92.955  1.00  0.00     0.164 HD
ENDBRANCH   5  19
TORSDOF 6
ENDMDL
MODEL 5
REMARK VINA RESULT: -7.223593872      4.033      5.203
REMARK  6 active torsions:
REMARK  status: ('A' for Active; 'I' for Inactive)
REMARK    1  A    between atoms: C2_2  and  S1_3 
REMARK    2  A    between atoms: S1_3  and  N1_6 
REMARK    3  A    between atoms: N1_6  and  C3_8 
REMARK    4  A    between atoms: C4_11  and  C5_12 
REMARK    5  A    between atoms: C6_13  and  C7_14 
REMARK    6  A    between atoms: C8_16  and  C9_17 
ROOT
HETATM    1  C3  UNL     1      45.189   0.991  90.252  1.00  0.00     0.693 A 
HETATM    2  N2  UNL     1      44.361  -0.048  90.455  1.00  0.00    -0.181 N 
ATOM      3  H2  UNL     1      44.469  -0.985  90.066  1.00  0.00     0.185 HD
HETATM    4  C4  UNL     1      43.362   0.364  91.262  1.00  0.00     0.131 A 
HETATM    5  C8  UNL     1      43.551   1.686  91.582  1.00  0.00     0.097 A 
HETATM    6  N4  UNL     1      44.706   2.031  90.926  1.00  0.00    -0.187 N 
ATOM      7  H4  UNL     1      45.135   2.956  90.952  1.00  0.00     0.184 HD
ENDROOT
BRANCH   1   8
HETATM    8  N1  UNL     1      46.272   1.017  89.537  1.00  0.00    -0.116 N 
ATOM      9  H1  UNL     1      46.258   0.679  88.575  1.00  0.00     0.197 HD
BRANCH   8  10
HETATM   10  S1  UNL     1      47.728   1.623  90.214  1.00  0.00     0.243 S 
HETATM   11  O1  UNL     1      47.858   1.022  91.600  1.00  0.00    -0.205 OA
HETATM   12  O2  UNL     1      47.667   3.108  90.256  1.00  0.00    -0.205 OA
BRANCH  10  13
HETATM   13  C2  UNL     1      49.076   1.024  89.213  1.00  0.00     0.159 C 
HETATM   14  C1  UNL     1      50.069   0.230  90.006  1.00  0.00     0.023 C 
ENDBRANCH  10  13
ENDBRANCH   8  10
ENDBRANCH   1   8
BRANCH   4  15
HETATM   15  C5  UNL     1      42.291  -0.507  91.683  1.00  0.00    -0.043 C 
HETATM   16  C6  UNL     1      41.411  -1.238  92.060  1.00  0.00    -0.068 C 
BRANCH  16  17
HETATM   17  C7  UNL     1      40.344  -2.131  92.526  1.00  0.00     0.316 C 
HETATM   18  F1  UNL     1      39.115  -1.542  92.521  1.00  0.00    -0.242 F 
ENDBRANCH  16  17
ENDBRANCH   4  15
BRANCH   5  19
HETATM   19  C9  UNL     1      42.759   2.565  92.409  1.00  0.00     0.011 A 
HETATM   20  C10 UNL     1      43.010   3.041  93.649  1.00  0.00     0.032 A 
HETATM   21  C11 UNL     1      41.959   3.866  94.067  1.00  0.00     0.088 A 
HETATM   22  N3  UNL     1      41.073   3.874  93.056  1.00  0.00    -0.374 N 
HETATM   23  C12 UNL     1      41.528   3.104  92.054  1.00  0.00     0.101 A 
ATOM     24  H3  UNL     1      40.191   4.387  93.051  1.00  0.00     0.164 HD
ENDBRANCH   5  19
TORSDOF 6
ENDMDL
