MODEL 1
REMARK VINA RESULT: -8.058473411      0.000      0.000
REMARK  5 active torsions:
REMARK  status: ('A' for Active; 'I' for Inactive)
REMARK    1  A    between atoms: C3_3  and  C4_4 
REMARK    2  A    between atoms: N1_8  and  C9_10 
REMARK    3  A    between atoms: C12_13  and  O1_14 
REMARK    4  A    between atoms: C12_13  and  C13_16 
REMARK    5  A    between atoms: C13_16  and  O2_17 
ROOT
HETATM    1  C1  UNL     1      42.032   5.655  94.048  1.00  0.00     0.013 C 
HETATM    2  C2  UNL     1      41.632   4.558  93.750  1.00  0.00    -0.107 C 
HETATM    3  C3  UNL     1      41.168   3.217  93.384  1.00  0.00     0.025 C 
HETATM    4  C6  UNL     1      42.008   2.233  94.165  1.00  0.00     0.050 C 
HETATM    5  C7  UNL     1      43.343   2.137  93.433  1.00  0.00     0.239 C 
HETATM    6  N1  UNL     1      43.199   1.354  92.197  1.00  0.00    -0.064 N 
HETATM    7  C8  UNL     1      44.118   1.889  91.251  1.00  0.00     0.273 C 
HETATM    8  C16 UNL     1      41.855   1.528  91.655  1.00  0.00     0.239 C 
HETATM    9  C17 UNL     1      41.311   2.910  91.936  1.00  0.00     0.050 C 
ENDROOT
BRANCH   3  10
HETATM   10  C4  UNL     1      39.738   3.056  93.869  1.00  0.00     0.018 C 
HETATM   11  C5  UNL     1      39.639   3.174  95.356  1.00  0.00     0.007 C 
ENDBRANCH   3  10
BRANCH   6  12
HETATM   12  C9  UNL     1      43.383  -0.016  92.558  1.00  0.00     0.224 C 
HETATM   13  C10 UNL     1      42.125  -0.843  92.494  1.00  0.00     0.039 C 
HETATM   14  C11 UNL     1      42.168  -1.874  91.369  1.00  0.00     0.042 C 
HETATM   15  C12 UNL     1      43.234  -2.862  91.721  1.00  0.00     0.082 C 
HETATM   16  C14 UNL     1      44.458  -2.190  92.228  1.00  0.00     0.079 C 
HETATM   17  C15 UNL     1      44.519  -0.704  91.883  1.00  0.00     0.204 C 
HETATM   18  F1  UNL     1      44.568  -0.605  90.537  1.00  0.00    -0.247 F 
BRANCH  15  19
HETATM   19  O1  UNL     1      42.723  -3.646  92.784  1.00  0.00    -0.388 OA
ATOM     20  H1  UNL     1      42.634  -4.531  92.450  1.00  0.00     0.210 HD
ENDBRANCH  15  19
BRANCH  15  21
HETATM   21  C13 UNL     1      43.484  -3.825  90.587  1.00  0.00     0.201 C 
BRANCH  21  22
HETATM   22  O2  UNL     1      44.239  -4.912  90.926  1.00  0.00    -0.398 OA
ATOM     23  H2  UNL     1      43.853  -5.465  91.596  1.00  0.00     0.209 HD
ENDBRANCH  21  22
ENDBRANCH  15  21
ENDBRANCH   6  12
TORSDOF 5
ENDMDL
MODEL 2
REMARK VINA RESULT: -7.799935615      1.552      2.103
REMARK  5 active torsions:
REMARK  status: ('A' for Active; 'I' for Inactive)
REMARK    1  A    between atoms: C3_3  and  C4_4 
REMARK    2  A    between atoms: N1_8  and  C9_10 
REMARK    3  A    between atoms: C12_13  and  O1_14 
REMARK    4  A    between atoms: C12_13  and  C13_16 
REMARK    5  A    between atoms: C13_16  and  O2_17 
ROOT
HETATM    1  C1  UNL     1      39.575   3.530  95.164  1.00  0.00     0.013 C 
HETATM    2  C2  UNL     1      39.873   2.921  94.168  1.00  0.00    -0.107 C 
HETATM    3  C3  UNL     1      40.258   2.183  92.961  1.00  0.00     0.025 C 
HETATM    4  C6  UNL     1      41.266   1.141  93.387  1.00  0.00     0.050 C 
HETATM    5  C7  UNL     1      42.594   1.873  93.547  1.00  0.00     0.239 C 
HETATM    6  N1  UNL     1      43.168   2.195  92.232  1.00  0.00    -0.064 N 
HETATM    7  C8  UNL     1      43.884   3.418  92.373  1.00  0.00     0.273 C 
HETATM    8  C16 UNL     1      42.097   2.417  91.266  1.00  0.00     0.239 C 
HETATM    9  C17 UNL     1      40.878   3.034  91.913  1.00  0.00     0.050 C 
ENDROOT
BRANCH   3  10
HETATM   10  C4  UNL     1      39.040   1.433  92.450  1.00  0.00     0.018 C 
HETATM   11  C5  UNL     1      39.294  -0.037  92.347  1.00  0.00     0.007 C 
ENDBRANCH   3  10
BRANCH   6  12
HETATM   12  C9  UNL     1      43.931   1.055  91.830  1.00  0.00     0.224 C 
HETATM   13  C10 UNL     1      44.219   0.085  92.947  1.00  0.00     0.039 C 
HETATM   14  C11 UNL     1      43.478  -1.238  92.769  1.00  0.00     0.042 C 
HETATM   15  C12 UNL     1      44.049  -1.900  91.557  1.00  0.00     0.082 C 
HETATM   16  C14 UNL     1      44.231  -0.937  90.440  1.00  0.00     0.079 C 
HETATM   17  C15 UNL     1      43.431   0.351  90.617  1.00  0.00     0.204 C 
HETATM   18  F1  UNL     1      42.122   0.016  90.612  1.00  0.00    -0.247 F 
BRANCH  15  19
HETATM   19  O1  UNL     1      45.338  -2.362  91.918  1.00  0.00    -0.388 OA
ATOM     20  H1  UNL     1      45.537  -3.090  91.341  1.00  0.00     0.210 HD
ENDBRANCH  15  19
BRANCH  15  21
HETATM   21  C13 UNL     1      43.263  -3.134  91.185  1.00  0.00     0.201 C 
BRANCH  21  22
HETATM   22  O2  UNL     1      43.662  -4.272  91.828  1.00  0.00    -0.398 OA
ATOM     23  H2  UNL     1      43.112  -5.029  91.663  1.00  0.00     0.209 HD
ENDBRANCH  21  22
ENDBRANCH  15  21
ENDBRANCH   6  12
TORSDOF 5
ENDMDL
MODEL 3
REMARK VINA RESULT: -7.693871493      1.320      1.720
REMARK  5 active torsions:
REMARK  status: ('A' for Active; 'I' for Inactive)
REMARK    1  A    between atoms: C3_3  and  C4_4 
REMARK    2  A    between atoms: N1_8  and  C9_10 
REMARK    3  A    between atoms: C12_13  and  O1_14 
REMARK    4  A    between atoms: C12_13  and  C13_16 
REMARK    5  A    between atoms: C13_16  and  O2_17 
ROOT
HETATM    1  C1  UNL     1      42.204   5.923  94.201  1.00  0.00     0.013 C 
HETATM    2  C2  UNL     1      41.999   4.765  93.936  1.00  0.00    -0.107 C 
HETATM    3  C3  UNL     1      41.766   3.358  93.596  1.00  0.00     0.025 C 
HETATM    4  C6  UNL     1      43.109   2.668  93.639  1.00  0.00     0.050 C 
HETATM    5  C7  UNL     1      43.813   3.024  92.334  1.00  0.00     0.239 C 
HETATM    6  N1  UNL     1      43.228   2.275  91.211  1.00  0.00    -0.064 N 
HETATM    7  C8  UNL     1      43.324   3.105  90.058  1.00  0.00     0.273 C 
HETATM    8  C16 UNL     1      41.812   2.030  91.464  1.00  0.00     0.239 C 
HETATM    9  C17 UNL     1      41.179   3.159  92.245  1.00  0.00     0.050 C 
ENDROOT
BRANCH   3  10
HETATM   10  C4  UNL     1      40.917   2.736  94.692  1.00  0.00     0.018 C 
HETATM   11  C5  UNL     1      39.550   3.339  94.746  1.00  0.00     0.007 C 
ENDBRANCH   3  10
BRANCH   6  12
HETATM   12  C9  UNL     1      43.916   1.025  91.153  1.00  0.00     0.224 C 
HETATM   13  C10 UNL     1      44.163   0.398  92.501  1.00  0.00     0.039 C 
HETATM   14  C11 UNL     1      43.344  -0.874  92.706  1.00  0.00     0.042 C 
HETATM   15  C12 UNL     1      43.856  -1.888  91.735  1.00  0.00     0.082 C 
HETATM   16  C14 UNL     1      44.078  -1.295  90.390  1.00  0.00     0.079 C 
HETATM   17  C15 UNL     1      43.358   0.035  90.190  1.00  0.00     0.204 C 
HETATM   18  F1  UNL     1      42.032  -0.207  90.278  1.00  0.00    -0.247 F 
BRANCH  15  19
HETATM   19  O1  UNL     1      45.122  -2.304  92.217  1.00  0.00    -0.388 OA
ATOM     20  H1  UNL     1      45.306  -1.777  92.985  1.00  0.00     0.210 HD
ENDBRANCH  15  19
BRANCH  15  21
HETATM   21  C13 UNL     1      42.994  -3.126  91.729  1.00  0.00     0.201 C 
BRANCH  21  22
HETATM   22  O2  UNL     1      42.568  -3.523  92.965  1.00  0.00    -0.398 OA
ATOM     23  H2  UNL     1      42.496  -4.465  93.071  1.00  0.00     0.209 HD
ENDBRANCH  21  22
ENDBRANCH  15  21
ENDBRANCH   6  12
TORSDOF 5
ENDMDL
MODEL 4
REMARK VINA RESULT: -7.491771752      1.366      1.537
REMARK  5 active torsions:
REMARK  status: ('A' for Active; 'I' for Inactive)
REMARK    1  A    between atoms: C3_3  and  C4_4 
REMARK    2  A    between atoms: N1_8  and  C9_10 
REMARK    3  A    between atoms: C12_13  and  O1_14 
REMARK    4  A    between atoms: C12_13  and  C13_16 
REMARK    5  A    between atoms: C13_16  and  O2_17 
ROOT
HETATM    1  C1  UNL     1      43.046   5.338  95.124  1.00  0.00     0.013 C 
HETATM    2  C2  UNL     1      42.304   4.633  94.489  1.00  0.00    -0.107 C 
HETATM    3  C3  UNL     1      41.419   3.762  93.709  1.00  0.00     0.025 C 
HETATM    4  C6  UNL     1      41.742   2.340  94.107  1.00  0.00     0.050 C 
HETATM    5  C7  UNL     1      43.018   1.968  93.359  1.00  0.00     0.239 C 
HETATM    6  N1  UNL     1      42.731   1.728  91.936  1.00  0.00    -0.064 N 
HETATM    7  C8  UNL     1      43.883   2.131  91.202  1.00  0.00     0.273 C 
HETATM    8  C16 UNL     1      41.617   2.567  91.508  1.00  0.00     0.239 C 
HETATM    9  C17 UNL     1      41.598   3.890  92.239  1.00  0.00     0.050 C 
ENDROOT
BRANCH   3  10
HETATM   10  C4  UNL     1      39.987   4.025  94.141  1.00  0.00     0.018 C 
HETATM   11  C5  UNL     1      39.583   3.155  95.289  1.00  0.00     0.007 C 
ENDBRANCH   3  10
BRANCH   6  12
HETATM   12  C9  UNL     1      42.354   0.355  91.822  1.00  0.00     0.224 C 
HETATM   13  C10 UNL     1      42.730  -0.278  90.507  1.00  0.00     0.039 C 
HETATM   14  C11 UNL     1      43.824  -1.330  90.665  1.00  0.00     0.042 C 
HETATM   15  C12 UNL     1      43.239  -2.456  91.455  1.00  0.00     0.082 C 
HETATM   16  C14 UNL     1      42.442  -1.961  92.608  1.00  0.00     0.079 C 
HETATM   17  C15 UNL     1      42.744  -0.509  92.970  1.00  0.00     0.204 C 
HETATM   18  F1  UNL     1      44.037  -0.450  93.356  1.00  0.00    -0.247 F 
BRANCH  15  19
HETATM   19  O1  UNL     1      42.340  -3.130  90.592  1.00  0.00    -0.388 OA
ATOM     20  H1  UNL     1      42.549  -4.055  90.652  1.00  0.00     0.210 HD
ENDBRANCH  15  19
BRANCH  15  21
HETATM   21  C13 UNL     1      44.291  -3.473  91.823  1.00  0.00     0.201 C 
BRANCH  21  22
HETATM   22  O2  UNL     1      45.476  -2.934  92.238  1.00  0.00    -0.398 OA
ATOM     23  H2  UNL     1      46.071  -3.556  92.641  1.00  0.00     0.209 HD
ENDBRANCH  21  22
ENDBRANCH  15  21
ENDBRANCH   6  12
TORSDOF 5
ENDMDL
MODEL 5
REMARK VINA RESULT: -7.408448143      2.464      3.108
REMARK  5 active torsions:
REMARK  status: ('A' for Active; 'I' for Inactive)
REMARK    1  A    between atoms: C3_3  and  C4_4 
REMARK    2  A    between atoms: N1_8  and  C9_10 
REMARK    3  A    between atoms: C12_13  and  O1_14 
REMARK    4  A    between atoms: C12_13  and  C13_16 
REMARK    5  A    between atoms: C13_16  and  O2_17 
ROOT
HETATM    1  C1  UNL     1      39.494   3.418  95.600  1.00  0.00     0.013 C 
HETATM    2  C2  UNL     1      39.782   2.931  94.536  1.00  0.00    -0.107 C 
HETATM    3  C3  UNL     1      40.154   2.343  93.246  1.00  0.00     0.025 C 
HETATM    4  C6  UNL     1      41.277   1.368  93.515  1.00  0.00     0.050 C 
HETATM    5  C7  UNL     1      42.541   2.207  93.670  1.00  0.00     0.239 C 
HETATM    6  N1  UNL     1      42.999   2.697  92.361  1.00  0.00    -0.064 N 
HETATM    7  C8  UNL     1      43.609   3.965  92.577  1.00  0.00     0.273 C 
HETATM    8  C16 UNL     1      41.853   2.901  91.481  1.00  0.00     0.239 C 
HETATM    9  C17 UNL     1      40.627   3.340  92.249  1.00  0.00     0.050 C 
ENDROOT
BRANCH   3  10
HETATM   10  C4  UNL     1      38.978   1.529  92.734  1.00  0.00     0.018 C 
HETATM   11  C5  UNL     1      39.383   0.137  92.368  1.00  0.00     0.007 C 
ENDBRANCH   3  10
BRANCH   6  12
HETATM   12  C9  UNL     1      43.833   1.676  91.812  1.00  0.00     0.224 C 
HETATM   13  C10 UNL     1      43.116   0.380  91.535  1.00  0.00     0.039 C 
HETATM   14  C11 UNL     1      42.997   0.093  90.041  1.00  0.00     0.042 C 
HETATM   15  C12 UNL     1      44.381  -0.142  89.528  1.00  0.00     0.082 C 
HETATM   16  C14 UNL     1      45.343   0.852  90.071  1.00  0.00     0.079 C 
HETATM   17  C15 UNL     1      44.667   2.092  90.651  1.00  0.00     0.204 C 
HETATM   18  F1  UNL     1      44.023   2.710  89.638  1.00  0.00    -0.247 F 
BRANCH  15  19
HETATM   19  O1  UNL     1      44.781  -1.411  90.014  1.00  0.00    -0.388 OA
ATOM     20  H1  UNL     1      44.604  -1.412  90.947  1.00  0.00     0.210 HD
ENDBRANCH  15  19
BRANCH  15  21
HETATM   21  C13 UNL     1      44.397  -0.258  88.024  1.00  0.00     0.201 C 
BRANCH  21  22
HETATM   22  O2  UNL     1      43.727   0.741  87.374  1.00  0.00    -0.398 OA
ATOM     23  H2  UNL     1      42.788   0.608  87.312  1.00  0.00     0.209 HD
ENDBRANCH  21  22
ENDBRANCH  15  21
ENDBRANCH   6  12
TORSDOF 5
ENDMDL
