MODEL 1
REMARK VINA RESULT: -6.787763219      0.000      0.000
REMARK  4 active torsions:
REMARK  status: ('A' for Active; 'I' for Inactive)
REMARK    1  A    between atoms: C2_2  and  S1_3 
REMARK    2  A    between atoms: S1_3  and  C3_4 
REMARK    3  A    between atoms: C11_14  and  C12_15 
REMARK    4  A    between atoms: C13_21  and  O1_23 
ROOT
HETATM    1  C3  UNL     1      28.712  -7.007  24.111  1.00  0.00     0.086 A 
HETATM    2  N1  UNL     1      29.379  -6.979  22.972  1.00  0.00    -0.349 N 
ATOM      3  H1  UNL     1      30.049  -7.685  22.667  1.00  0.00     0.166 HD
HETATM    4  C4  UNL     1      29.042  -5.878  22.273  1.00  0.00     0.053 A 
HETATM    5  C5  UNL     1      29.442  -5.410  21.043  1.00  0.00    -0.004 A 
HETATM    6  C6  UNL     1      28.918  -4.261  20.556  1.00  0.00     0.039 A 
HETATM    7  C7  UNL     1      27.991  -3.571  21.293  1.00  0.00     0.037 A 
HETATM    8  C8  UNL     1      27.552  -4.012  22.556  1.00  0.00    -0.046 A 
HETATM    9  C9  UNL     1      26.505  -3.281  23.265  1.00  0.00     0.049 C 
HETATM   10  C10 UNL     1      28.091  -5.180  23.048  1.00  0.00     0.015 A 
HETATM   11  C11 UNL     1      27.864  -5.870  24.224  1.00  0.00     0.094 A 
HETATM   12  N2  UNL     1      29.346  -3.794  19.290  1.00  0.00    -0.358 N 
ATOM     13  H2  UNL     1      29.178  -2.822  19.030  1.00  0.00     0.162 HD
HETATM   14  C13 UNL     1      30.023  -4.685  18.349  1.00  0.00     0.130 C 
HETATM   15  C14 UNL     1      28.905  -5.468  17.662  1.00  0.00     0.071 C 
HETATM   16  C16 UNL     1      30.973  -5.577  19.076  1.00  0.00     0.065 C 
HETATM   17  C17 UNL     1      30.445  -6.211  20.304  1.00  0.00     0.048 C 
ENDROOT
BRANCH  11  18
HETATM   18  C12 UNL     1      26.974  -5.577  25.331  1.00  0.00     0.421 C 
HETATM   19  F1  UNL     1      27.189  -6.260  26.507  1.00  0.00    -0.166 F 
HETATM   20  F2  UNL     1      27.605  -4.310  25.827  1.00  0.00    -0.166 F 
HETATM   21  F3  UNL     1      25.766  -5.015  25.138  1.00  0.00    -0.166 F 
ENDBRANCH  11  18
BRANCH   1  22
HETATM   22  S1  UNL     1      28.770  -8.246  25.412  1.00  0.00    -0.112 SA
BRANCH  22  23
HETATM   23  C2  UNL     1      30.360  -8.097  26.256  1.00  0.00     0.076 C 
HETATM   24  C1  UNL     1      30.506  -6.633  26.678  1.00  0.00     0.016 C 
ENDBRANCH  22  23
ENDBRANCH   1  22
BRANCH  14  25
HETATM   25  O1  UNL     1      30.685  -3.861  17.456  1.00  0.00    -0.366 OA
HETATM   26  C15 UNL     1      32.007  -3.656  17.755  1.00  0.00     0.204 C 
ENDBRANCH  14  25
TORSDOF 4
ENDMDL
MODEL 2
REMARK VINA RESULT: -6.432614915      0.946      1.147
REMARK  4 active torsions:
REMARK  status: ('A' for Active; 'I' for Inactive)
REMARK    1  A    between atoms: C2_2  and  S1_3 
REMARK    2  A    between atoms: S1_3  and  C3_4 
REMARK    3  A    between atoms: C11_14  and  C12_15 
REMARK    4  A    between atoms: C13_21  and  O1_23 
ROOT
HETATM    1  C3  UNL     1      28.917  -6.922  24.203  1.00  0.00     0.086 A 
HETATM    2  N1  UNL     1      29.554  -6.911  23.047  1.00  0.00    -0.349 N 
ATOM      3  H1  UNL     1      30.243  -7.603  22.750  1.00  0.00     0.166 HD
HETATM    4  C4  UNL     1      29.159  -5.851  22.318  1.00  0.00     0.053 A 
HETATM    5  C5  UNL     1      29.511  -5.413  21.062  1.00  0.00    -0.004 A 
HETATM    6  C6  UNL     1      28.932  -4.304  20.548  1.00  0.00     0.039 A 
HETATM    7  C7  UNL     1      27.998  -3.622  21.283  1.00  0.00     0.037 A 
HETATM    8  C8  UNL     1      27.607  -4.032  22.572  1.00  0.00    -0.046 A 
HETATM    9  C9  UNL     1      26.551  -3.314  23.281  1.00  0.00     0.049 C 
HETATM   10  C10 UNL     1      28.202  -5.159  23.092  1.00  0.00     0.015 A 
HETATM   11  C11 UNL     1      28.030  -5.814  24.297  1.00  0.00     0.094 A 
HETATM   12  N2  UNL     1      29.310  -3.868  19.255  1.00  0.00    -0.358 N 
ATOM     13  H2  UNL     1      29.100  -2.913  18.965  1.00  0.00     0.162 HD
HETATM   14  C13 UNL     1      29.998  -4.768  18.330  1.00  0.00     0.130 C 
HETATM   15  C14 UNL     1      28.893  -5.616  17.700  1.00  0.00     0.071 C 
HETATM   16  C16 UNL     1      30.998  -5.596  19.063  1.00  0.00     0.065 C 
HETATM   17  C17 UNL     1      30.525  -6.204  20.326  1.00  0.00     0.048 C 
ENDROOT
BRANCH  11  18
HETATM   18  C12 UNL     1      27.157  -5.514  25.415  1.00  0.00     0.421 C 
HETATM   19  F1  UNL     1      27.500  -6.041  26.640  1.00  0.00    -0.166 F 
HETATM   20  F2  UNL     1      27.649  -4.137  25.752  1.00  0.00    -0.166 F 
HETATM   21  F3  UNL     1      25.883  -5.119  25.233  1.00  0.00    -0.166 F 
ENDBRANCH  11  18
BRANCH   1  22
HETATM   22  S1  UNL     1      29.054  -8.109  25.546  1.00  0.00    -0.112 SA
BRANCH  22  23
HETATM   23  C2  UNL     1      27.916  -9.471  25.207  1.00  0.00     0.076 C 
HETATM   24  C1  UNL     1      26.662  -9.225  26.048  1.00  0.00     0.016 C 
ENDBRANCH  22  23
ENDBRANCH   1  22
BRANCH  14  25
HETATM   25  O1  UNL     1      30.606  -3.953  17.391  1.00  0.00    -0.366 OA
HETATM   26  C15 UNL     1      31.854  -3.515  17.752  1.00  0.00     0.204 C 
ENDBRANCH  14  25
TORSDOF 4
ENDMDL
MODEL 3
REMARK VINA RESULT: -6.399715544      1.418      2.031
REMARK  4 active torsions:
REMARK  status: ('A' for Active; 'I' for Inactive)
REMARK    1  A    between atoms: C2_2  and  S1_3 
REMARK    2  A    between atoms: S1_3  and  C3_4 
REMARK    3  A    between atoms: C11_14  and  C12_15 
REMARK    4  A    between atoms: C13_21  and  O1_23 
ROOT
HETATM    1  C3  UNL     1      27.813  -7.407  23.882  1.00  0.00     0.086 A 
HETATM    2  N1  UNL     1      28.647  -7.571  22.872  1.00  0.00    -0.349 N 
ATOM      3  H1  UNL     1      29.129  -8.442  22.645  1.00  0.00     0.166 HD
HETATM    4  C4  UNL     1      28.766  -6.419  22.186  1.00  0.00     0.053 A 
HETATM    5  C5  UNL     1      29.491  -6.084  21.065  1.00  0.00    -0.004 A 
HETATM    6  C6  UNL     1      29.411  -4.831  20.560  1.00  0.00     0.039 A 
HETATM    7  C7  UNL     1      28.607  -3.903  21.169  1.00  0.00     0.037 A 
HETATM    8  C8  UNL     1      27.848  -4.200  22.317  1.00  0.00    -0.046 A 
HETATM    9  C9  UNL     1      26.949  -3.197  22.881  1.00  0.00     0.049 C 
HETATM   10  C10 UNL     1      27.936  -5.475  22.830  1.00  0.00     0.015 A 
HETATM   11  C11 UNL     1      27.320  -6.072  23.913  1.00  0.00     0.094 A 
HETATM   12  N2  UNL     1      30.166  -4.506  19.408  1.00  0.00    -0.358 N 
ATOM     13  H2  UNL     1      30.333  -3.527  19.176  1.00  0.00     0.162 HD
HETATM   14  C13 UNL     1      30.712  -5.554  18.547  1.00  0.00     0.130 C 
HETATM   15  C14 UNL     1      29.554  -5.975  17.643  1.00  0.00     0.071 C 
HETATM   16  C16 UNL     1      31.226  -6.685  19.372  1.00  0.00     0.065 C 
HETATM   17  C17 UNL     1      30.334  -7.141  20.461  1.00  0.00     0.048 C 
ENDROOT
BRANCH  11  18
HETATM   18  C12 UNL     1      26.374  -5.536  24.872  1.00  0.00     0.421 C 
HETATM   19  F1  UNL     1      25.087  -6.020  24.824  1.00  0.00    -0.166 F 
HETATM   20  F2  UNL     1      26.749  -6.351  26.074  1.00  0.00    -0.166 F 
HETATM   21  F3  UNL     1      26.582  -4.355  25.487  1.00  0.00    -0.166 F 
ENDBRANCH  11  18
BRANCH   1  22
HETATM   22  S1  UNL     1      27.287  -8.612  25.107  1.00  0.00    -0.112 SA
BRANCH  22  23
HETATM   23  C2  UNL     1      25.654  -9.219  24.630  1.00  0.00     0.076 C 
HETATM   24  C1  UNL     1      25.592  -9.182  23.102  1.00  0.00     0.016 C 
ENDBRANCH  22  23
ENDBRANCH   1  22
BRANCH  14  25
HETATM   25  O1  UNL     1      31.727  -4.956  17.820  1.00  0.00    -0.366 OA
HETATM   26  C15 UNL     1      31.529  -3.622  17.572  1.00  0.00     0.204 C 
ENDBRANCH  14  25
TORSDOF 4
ENDMDL
MODEL 4
REMARK VINA RESULT: -6.295396396      1.741      1.991
REMARK  4 active torsions:
REMARK  status: ('A' for Active; 'I' for Inactive)
REMARK    1  A    between atoms: C2_2  and  S1_3 
REMARK    2  A    between atoms: S1_3  and  C3_4 
REMARK    3  A    between atoms: C11_14  and  C12_15 
REMARK    4  A    between atoms: C13_21  and  O1_23 
ROOT
HETATM    1  C3  UNL     1      28.587  -5.789  25.133  1.00  0.00     0.086 A 
HETATM    2  N1  UNL     1      29.287  -6.402  24.196  1.00  0.00    -0.349 N 
ATOM      3  H1  UNL     1      29.876  -7.221  24.346  1.00  0.00     0.166 HD
HETATM    4  C4  UNL     1      29.106  -5.784  23.014  1.00  0.00     0.053 A 
HETATM    5  C5  UNL     1      29.597  -6.042  21.754  1.00  0.00    -0.004 A 
HETATM    6  C6  UNL     1      29.230  -5.259  20.714  1.00  0.00     0.039 A 
HETATM    7  C7  UNL     1      28.370  -4.212  20.922  1.00  0.00     0.037 A 
HETATM    8  C8  UNL     1      27.843  -3.910  22.192  1.00  0.00    -0.046 A 
HETATM    9  C9  UNL     1      26.871  -2.831  22.345  1.00  0.00     0.049 C 
HETATM   10  C10 UNL     1      28.223  -4.708  23.248  1.00  0.00     0.015 A 
HETATM   11  C11 UNL     1      27.879  -4.683  24.586  1.00  0.00     0.094 A 
HETATM   12  N2  UNL     1      29.749  -5.540  19.427  1.00  0.00    -0.358 N 
ATOM     13  H2  UNL     1      29.707  -4.824  18.701  1.00  0.00     0.162 HD
HETATM   14  C13 UNL     1      30.343  -6.840  19.123  1.00  0.00     0.130 C 
HETATM   15  C14 UNL     1      29.160  -7.762  18.826  1.00  0.00     0.071 C 
HETATM   16  C16 UNL     1      31.156  -7.319  20.278  1.00  0.00     0.065 C 
HETATM   17  C17 UNL     1      30.518  -7.193  21.607  1.00  0.00     0.048 C 
ENDROOT
BRANCH  11  18
HETATM   18  C12 UNL     1      26.998  -3.791  25.315  1.00  0.00     0.421 C 
HETATM   19  F1  UNL     1      27.334  -3.501  26.618  1.00  0.00    -0.166 F 
HETATM   20  F2  UNL     1      27.482  -2.474  24.785  1.00  0.00    -0.166 F 
HETATM   21  F3  UNL     1      25.723  -3.586  24.932  1.00  0.00    -0.166 F 
ENDBRANCH  11  18
BRANCH   1  22
HETATM   22  S1  UNL     1      28.457  -6.195  26.879  1.00  0.00    -0.112 SA
BRANCH  22  23
HETATM   23  C2  UNL     1      27.596  -7.777  27.023  1.00  0.00     0.076 C 
HETATM   24  C1  UNL     1      26.493  -7.784  25.962  1.00  0.00     0.016 C 
ENDBRANCH  22  23
ENDBRANCH   1  22
BRANCH  14  25
HETATM   25  O1  UNL     1      31.125  -6.646  17.999  1.00  0.00    -0.366 OA
HETATM   26  C15 UNL     1      31.839  -5.475  18.007  1.00  0.00     0.204 C 
ENDBRANCH  14  25
TORSDOF 4
ENDMDL
MODEL 5
REMARK VINA RESULT: -6.220020819      1.604      1.751
REMARK  4 active torsions:
REMARK  status: ('A' for Active; 'I' for Inactive)
REMARK    1  A    between atoms: C2_2  and  S1_3 
REMARK    2  A    between atoms: S1_3  and  C3_4 
REMARK    3  A    between atoms: C11_14  and  C12_15 
REMARK    4  A    between atoms: C13_21  and  O1_23 
ROOT
HETATM    1  C3  UNL     1      28.526  -5.805  25.148  1.00  0.00     0.086 A 
HETATM    2  N1  UNL     1      29.229  -6.426  24.219  1.00  0.00    -0.349 N 
ATOM      3  H1  UNL     1      29.808  -7.252  24.377  1.00  0.00     0.166 HD
HETATM    4  C4  UNL     1      29.067  -5.808  23.035  1.00  0.00     0.053 A 
HETATM    5  C5  UNL     1      29.569  -6.074  21.781  1.00  0.00    -0.004 A 
HETATM    6  C6  UNL     1      29.221  -5.288  20.736  1.00  0.00     0.039 A 
HETATM    7  C7  UNL     1      28.371  -4.231  20.933  1.00  0.00     0.037 A 
HETATM    8  C8  UNL     1      27.833  -3.922  22.197  1.00  0.00    -0.046 A 
HETATM    9  C9  UNL     1      26.871  -2.832  22.338  1.00  0.00     0.049 C 
HETATM   10  C10 UNL     1      28.194  -4.722  23.258  1.00  0.00     0.015 A 
HETATM   11  C11 UNL     1      27.835  -4.692  24.593  1.00  0.00     0.094 A 
HETATM   12  N2  UNL     1      29.751  -5.576  19.455  1.00  0.00    -0.358 N 
ATOM     13  H2  UNL     1      29.725  -4.860  18.728  1.00  0.00     0.162 HD
HETATM   14  C13 UNL     1      30.334  -6.883  19.159  1.00  0.00     0.130 C 
HETATM   15  C14 UNL     1      29.144  -7.792  18.850  1.00  0.00     0.071 C 
HETATM   16  C16 UNL     1      31.129  -7.369  20.323  1.00  0.00     0.065 C 
HETATM   17  C17 UNL     1      30.479  -7.234  21.645  1.00  0.00     0.048 C 
ENDROOT
BRANCH  11  18
HETATM   18  C12 UNL     1      26.956  -3.790  25.311  1.00  0.00     0.421 C 
HETATM   19  F1  UNL     1      27.271  -3.517  26.623  1.00  0.00    -0.166 F 
HETATM   20  F2  UNL     1      27.476  -2.478  24.802  1.00  0.00    -0.166 F 
HETATM   21  F3  UNL     1      25.693  -3.558  24.903  1.00  0.00    -0.166 F 
ENDBRANCH  11  18
BRANCH   1  22
HETATM   22  S1  UNL     1      28.372  -6.207  26.893  1.00  0.00    -0.112 SA
BRANCH  22  23
HETATM   23  C2  UNL     1      29.683  -7.377  27.315  1.00  0.00     0.076 C 
HETATM   24  C1  UNL     1      30.990  -6.583  27.367  1.00  0.00     0.016 C 
ENDBRANCH  22  23
ENDBRANCH   1  22
BRANCH  14  25
HETATM   25  O1  UNL     1      31.130  -6.698  18.042  1.00  0.00    -0.366 OA
HETATM   26  C15 UNL     1      31.898  -5.563  18.082  1.00  0.00     0.204 C 
ENDBRANCH  14  25
TORSDOF 4
ENDMDL
