MODEL 1
REMARK VINA RESULT: -6.399899574      0.000      0.000
REMARK  4 active torsions:
REMARK  status: ('A' for Active; 'I' for Inactive)
REMARK    1  A    between atoms: C4_4  and  N1_5 
REMARK    2  A    between atoms: N2_7  and  C5_9 
REMARK    3  A    between atoms: N4_14  and  C8_15 
REMARK    4  A    between atoms: C11_18  and  N5_19 
ROOT
HETATM    1  C5  UNL     1      30.156  -6.435  27.072  1.00  0.00     0.117 A 
HETATM    2  C6  UNL     1      29.580  -7.279  28.000  1.00  0.00     0.054 A 
HETATM    3  C7  UNL     1      28.145  -7.376  28.321  1.00  0.00     0.072 C 
HETATM    4  N3  UNL     1      30.623  -7.978  28.532  1.00  0.00    -0.299 N 
ATOM      5  H3  UNL     1      30.544  -8.694  29.254  1.00  0.00     0.187 HD
HETATM    6  N4  UNL     1      31.757  -7.585  27.964  1.00  0.00    -0.271 N 
HETATM    7  C11 UNL     1      31.521  -6.629  27.049  1.00  0.00     0.146 A 
ENDROOT
BRANCH   1   8
HETATM    8  N2  UNL     1      29.459  -5.496  26.247  1.00  0.00    -0.295 N 
HETATM    9  N1  UNL     1      29.012  -5.943  25.148  1.00  0.00    -0.299 N 
ATOM     10  H1  UNL     1      29.154  -6.920  24.892  1.00  0.00     0.187 HD
ATOM     11  H2  UNL     1      29.331  -4.523  26.527  1.00  0.00     0.187 HD
BRANCH   9  12
HETATM   12  C4  UNL     1      28.310  -5.068  24.278  1.00  0.00     0.066 A 
HETATM   13  C3  UNL     1      27.226  -4.336  24.727  1.00  0.00     0.042 A 
HETATM   14  C2  UNL     1      26.536  -3.482  23.889  1.00  0.00    -0.021 A 
HETATM   15  C1  UNL     1      25.387  -2.730  24.437  1.00  0.00     0.051 C 
HETATM   16  C14 UNL     1      26.927  -3.347  22.570  1.00  0.00     0.123 A 
HETATM   17  C13 UNL     1      28.003  -4.081  22.145  1.00  0.00     0.064 A 
HETATM   18  F1  UNL     1      26.249  -2.505  21.742  1.00  0.00    -0.206 F 
HETATM   19  C12 UNL     1      28.718  -4.943  22.947  1.00  0.00     0.042 A 
HETATM   20 BR1  UNL     1      30.208  -5.942  22.306  1.00  0.00    -0.049 Br
ENDBRANCH   9  12
ENDBRANCH   1   8
BRANCH   7  21
HETATM   21  N5  UNL     1      32.384  -6.020  26.309  1.00  0.00    -0.382 N 
ATOM     22  H52 UNL     1      33.045  -5.297  26.592  1.00  0.00     0.157 HD
ATOM     23  H51 UNL     1      32.550  -6.160  25.312  1.00  0.00     0.157 HD
ENDBRANCH   7  21
BRANCH   6  24
HETATM   24  C8  UNL     1      33.069  -8.147  28.317  1.00  0.00     0.102 C 
HETATM   25  C9  UNL     1      33.693  -7.328  29.447  1.00  0.00     0.034 C 
HETATM   26  C10 UNL     1      32.877  -9.549  28.858  1.00  0.00     0.034 C 
ENDBRANCH   6  24
TORSDOF 4
ENDMDL
MODEL 2
REMARK VINA RESULT: -6.194380779      3.641      7.492
REMARK  4 active torsions:
REMARK  status: ('A' for Active; 'I' for Inactive)
REMARK    1  A    between atoms: C4_4  and  N1_5 
REMARK    2  A    between atoms: N2_7  and  C5_9 
REMARK    3  A    between atoms: N4_14  and  C8_15 
REMARK    4  A    between atoms: C11_18  and  N5_19 
ROOT
HETATM    1  C5  UNL     1      29.138  -5.431  25.413  1.00  0.00     0.117 A 
HETATM    2  C6  UNL     1      27.898  -5.846  25.856  1.00  0.00     0.054 A 
HETATM    3  C7  UNL     1      27.624  -7.001  26.730  1.00  0.00     0.072 C 
HETATM    4  N3  UNL     1      27.017  -4.961  25.310  1.00  0.00    -0.299 N 
ATOM      5  H3  UNL     1      26.006  -4.981  25.440  1.00  0.00     0.187 HD
HETATM    6  N4  UNL     1      27.677  -4.067  24.583  1.00  0.00    -0.271 N 
HETATM    7  C11 UNL     1      28.998  -4.315  24.615  1.00  0.00     0.146 A 
ENDROOT
BRANCH   1   8
HETATM    8  N2  UNL     1      30.390  -6.051  25.724  1.00  0.00    -0.295 N 
HETATM    9  N1  UNL     1      30.745  -6.011  26.941  1.00  0.00    -0.299 N 
ATOM     10  H1  UNL     1      30.153  -5.558  27.636  1.00  0.00     0.187 HD
ATOM     11  H2  UNL     1      30.963  -6.498  25.008  1.00  0.00     0.187 HD
BRANCH   9  12
HETATM   12  C4  UNL     1      31.976  -6.605  27.323  1.00  0.00     0.066 A 
HETATM   13  C3  UNL     1      33.106  -6.468  26.539  1.00  0.00     0.042 A 
HETATM   14  C2  UNL     1      34.309  -7.042  26.902  1.00  0.00    -0.021 A 
HETATM   15  C1  UNL     1      35.478  -6.853  26.015  1.00  0.00     0.051 C 
HETATM   16  C14 UNL     1      34.398  -7.773  28.072  1.00  0.00     0.123 A 
HETATM   17  C13 UNL     1      33.266  -7.898  28.834  1.00  0.00     0.064 A 
HETATM   18  F1  UNL     1      35.582  -8.340  28.432  1.00  0.00    -0.206 F 
HETATM   19  C12 UNL     1      32.049  -7.342  28.508  1.00  0.00     0.042 A 
HETATM   20 BR1  UNL     1      30.503  -7.545  29.604  1.00  0.00    -0.049 Br
ENDBRANCH   9  12
ENDBRANCH   1   8
BRANCH   7  21
HETATM   21  N5  UNL     1      29.937  -3.653  24.027  1.00  0.00    -0.382 N 
ATOM     22  H52 UNL     1      30.357  -2.774  24.326  1.00  0.00     0.157 HD
ATOM     23  H51 UNL     1      30.417  -3.900  23.161  1.00  0.00     0.157 HD
ENDBRANCH   7  21
BRANCH   6  24
HETATM   24  C8  UNL     1      27.015  -2.973  23.858  1.00  0.00     0.102 C 
HETATM   25  C9  UNL     1      27.004  -3.277  22.361  1.00  0.00     0.034 C 
HETATM   26  C10 UNL     1      25.565  -2.899  24.292  1.00  0.00     0.034 C 
ENDBRANCH   6  24
TORSDOF 4
ENDMDL
MODEL 3
REMARK VINA RESULT: -6.066522743      5.022      7.669
REMARK  4 active torsions:
REMARK  status: ('A' for Active; 'I' for Inactive)
REMARK    1  A    between atoms: C4_4  and  N1_5 
REMARK    2  A    between atoms: N2_7  and  C5_9 
REMARK    3  A    between atoms: N4_14  and  C8_15 
REMARK    4  A    between atoms: C11_18  and  N5_19 
ROOT
HETATM    1  C5  UNL     1      30.590  -5.278  19.201  1.00  0.00     0.117 A 
HETATM    2  C6  UNL     1      31.346  -6.427  19.083  1.00  0.00     0.054 A 
HETATM    3  C7  UNL     1      31.228  -7.640  19.913  1.00  0.00     0.072 C 
HETATM    4  N3  UNL     1      32.199  -6.180  18.049  1.00  0.00    -0.299 N 
ATOM      5  H3  UNL     1      32.901  -6.830  17.697  1.00  0.00     0.187 HD
HETATM    6  N4  UNL     1      31.977  -4.961  17.571  1.00  0.00    -0.271 N 
HETATM    7  C11 UNL     1      30.986  -4.360  18.253  1.00  0.00     0.146 A 
ENDROOT
BRANCH   1   8
HETATM    8  N2  UNL     1      29.548  -5.055  20.157  1.00  0.00    -0.295 N 
HETATM    9  N1  UNL     1      29.922  -4.720  21.322  1.00  0.00    -0.299 N 
ATOM     10  H1  UNL     1      30.914  -4.623  21.537  1.00  0.00     0.187 HD
ATOM     11  H2  UNL     1      28.562  -5.159  19.915  1.00  0.00     0.187 HD
BRANCH   9  12
HETATM   12  C4  UNL     1      28.944  -4.482  22.322  1.00  0.00     0.066 A 
HETATM   13  C3  UNL     1      27.849  -3.676  22.070  1.00  0.00     0.042 A 
HETATM   14  C2  UNL     1      26.891  -3.438  23.036  1.00  0.00    -0.021 A 
HETATM   15  C1  UNL     1      25.747  -2.565  22.697  1.00  0.00     0.051 C 
HETATM   16  C14 UNL     1      27.018  -4.012  24.287  1.00  0.00     0.123 A 
HETATM   17  C13 UNL     1      28.110  -4.807  24.517  1.00  0.00     0.064 A 
HETATM   18  F1  UNL     1      26.075  -3.779  25.242  1.00  0.00    -0.206 F 
HETATM   19  C12 UNL     1      29.087  -5.070  23.582  1.00  0.00     0.042 A 
HETATM   20 BR1  UNL     1      30.587  -6.184  23.952  1.00  0.00    -0.049 Br
ENDBRANCH   9  12
ENDBRANCH   1   8
BRANCH   7  21
HETATM   21  N5  UNL     1      30.506  -3.178  18.062  1.00  0.00    -0.382 N 
ATOM     22  H52 UNL     1      31.023  -2.327  17.838  1.00  0.00     0.157 HD
ATOM     23  H51 UNL     1      29.527  -2.894  18.103  1.00  0.00     0.157 HD
ENDBRANCH   7  21
BRANCH   6  24
HETATM   24  C8  UNL     1      32.734  -4.388  16.449  1.00  0.00     0.102 C 
HETATM   25  C9  UNL     1      33.978  -3.675  16.977  1.00  0.00     0.034 C 
HETATM   26  C10 UNL     1      33.227  -5.511  15.560  1.00  0.00     0.034 C 
ENDBRANCH   6  24
TORSDOF 4
ENDMDL
MODEL 4
REMARK VINA RESULT: -6.055315680      1.212      2.157
REMARK  4 active torsions:
REMARK  status: ('A' for Active; 'I' for Inactive)
REMARK    1  A    between atoms: C4_4  and  N1_5 
REMARK    2  A    between atoms: N2_7  and  C5_9 
REMARK    3  A    between atoms: N4_14  and  C8_15 
REMARK    4  A    between atoms: C11_18  and  N5_19 
ROOT
HETATM    1  C5  UNL     1      30.278  -6.528  27.157  1.00  0.00     0.117 A 
HETATM    2  C6  UNL     1      31.604  -6.911  27.135  1.00  0.00     0.054 A 
HETATM    3  C7  UNL     1      32.636  -6.435  26.196  1.00  0.00     0.072 C 
HETATM    4  N3  UNL     1      31.727  -7.805  28.157  1.00  0.00    -0.299 N 
ATOM      5  H3  UNL     1      32.588  -8.284  28.419  1.00  0.00     0.187 HD
HETATM    6  N4  UNL     1      30.553  -7.955  28.759  1.00  0.00    -0.271 N 
HETATM    7  C11 UNL     1      29.620  -7.182  28.176  1.00  0.00     0.146 A 
ENDROOT
BRANCH   1   8
HETATM    8  N2  UNL     1      29.661  -5.593  26.265  1.00  0.00    -0.295 N 
HETATM    9  N1  UNL     1      28.939  -6.090  25.349  1.00  0.00    -0.299 N 
ATOM     10  H1  UNL     1      28.822  -7.100  25.275  1.00  0.00     0.187 HD
ATOM     11  H2  UNL     1      29.795  -4.586  26.362  1.00  0.00     0.187 HD
BRANCH   9  12
HETATM   12  C4  UNL     1      28.295  -5.224  24.427  1.00  0.00     0.066 A 
HETATM   13  C3  UNL     1      27.228  -4.436  24.817  1.00  0.00     0.042 A 
HETATM   14  C2  UNL     1      26.594  -3.589  23.928  1.00  0.00    -0.021 A 
HETATM   15  C1  UNL     1      25.459  -2.775  24.415  1.00  0.00     0.051 C 
HETATM   16  C14 UNL     1      27.027  -3.519  22.617  1.00  0.00     0.123 A 
HETATM   17  C13 UNL     1      28.086  -4.308  22.251  1.00  0.00     0.064 A 
HETATM   18  F1  UNL     1      26.404  -2.685  21.739  1.00  0.00    -0.206 F 
HETATM   19  C12 UNL     1      28.744  -5.165  23.105  1.00  0.00     0.042 A 
HETATM   20 BR1  UNL     1      30.213  -6.241  22.546  1.00  0.00    -0.049 Br
ENDBRANCH   9  12
ENDBRANCH   1   8
BRANCH   7  21
HETATM   21  N5  UNL     1      28.376  -7.075  28.498  1.00  0.00    -0.382 N 
ATOM     22  H52 UNL     1      27.939  -7.334  29.382  1.00  0.00     0.157 HD
ATOM     23  H51 UNL     1      27.617  -6.711  27.920  1.00  0.00     0.157 HD
ENDBRANCH   7  21
BRANCH   6  24
HETATM   24  C8  UNL     1      30.347  -8.854  29.905  1.00  0.00     0.102 C 
HETATM   25  C9  UNL     1      31.366  -9.992  29.857  1.00  0.00     0.034 C 
HETATM   26  C10 UNL     1      30.615  -8.091  31.186  1.00  0.00     0.034 C 
ENDBRANCH   6  24
TORSDOF 4
ENDMDL
MODEL 5
REMARK VINA RESULT: -6.013855561      2.118      2.815
REMARK  4 active torsions:
REMARK  status: ('A' for Active; 'I' for Inactive)
REMARK    1  A    between atoms: C4_4  and  N1_5 
REMARK    2  A    between atoms: N2_7  and  C5_9 
REMARK    3  A    between atoms: N4_14  and  C8_15 
REMARK    4  A    between atoms: C11_18  and  N5_19 
ROOT
HETATM    1  C5  UNL     1      31.457  -7.162  24.661  1.00  0.00     0.117 A 
HETATM    2  C6  UNL     1      32.077  -8.143  23.913  1.00  0.00     0.054 A 
HETATM    3  C7  UNL     1      31.623  -8.667  22.612  1.00  0.00     0.072 C 
HETATM    4  N3  UNL     1      33.173  -8.498  24.642  1.00  0.00    -0.299 N 
ATOM      5  H3  UNL     1      33.855  -9.206  24.371  1.00  0.00     0.187 HD
HETATM    6  N4  UNL     1      33.216  -7.781  25.758  1.00  0.00    -0.271 N 
HETATM    7  C11 UNL     1      32.172  -6.935  25.817  1.00  0.00     0.146 A 
ENDROOT
BRANCH   1   8
HETATM    8  N2  UNL     1      30.254  -6.472  24.306  1.00  0.00    -0.295 N 
HETATM    9  N1  UNL     1      30.399  -5.412  23.625  1.00  0.00    -0.299 N 
ATOM     10  H1  UNL     1      31.330  -5.094  23.359  1.00  0.00     0.187 HD
ATOM     11  H2  UNL     1      29.334  -6.813  24.586  1.00  0.00     0.187 HD
BRANCH   9  12
HETATM   12  C4  UNL     1      29.250  -4.675  23.237  1.00  0.00     0.066 A 
HETATM   13  C3  UNL     1      28.416  -4.108  24.183  1.00  0.00     0.042 A 
HETATM   14  C2  UNL     1      27.295  -3.388  23.817  1.00  0.00    -0.021 A 
HETATM   15  C1  UNL     1      26.448  -2.809  24.883  1.00  0.00     0.051 C 
HETATM   16  C14 UNL     1      26.988  -3.225  22.479  1.00  0.00     0.123 A 
HETATM   17  C13 UNL     1      27.827  -3.795  21.558  1.00  0.00     0.064 A 
HETATM   18  F1  UNL     1      25.884  -2.516  22.116  1.00  0.00    -0.206 F 
HETATM   19  C12 UNL     1      28.953  -4.519  21.881  1.00  0.00     0.042 A 
HETATM   20 BR1  UNL     1      30.088  -5.293  20.560  1.00  0.00    -0.049 Br
ENDBRANCH   9  12
ENDBRANCH   1   8
BRANCH   7  21
HETATM   21  N5  UNL     1      31.897  -6.092  26.753  1.00  0.00    -0.382 N 
ATOM     22  H52 UNL     1      31.873  -5.074  26.686  1.00  0.00     0.157 HD
ATOM     23  H51 UNL     1      31.656  -6.302  27.722  1.00  0.00     0.157 HD
ENDBRANCH   7  21
BRANCH   6  24
HETATM   24  C8  UNL     1      34.278  -7.924  26.765  1.00  0.00     0.102 C 
HETATM   25  C9  UNL     1      34.830  -9.349  26.733  1.00  0.00     0.034 C 
HETATM   26  C10 UNL     1      35.430  -7.009  26.401  1.00  0.00     0.034 C 
ENDBRANCH   6  24
TORSDOF 4
ENDMDL
