MODEL 1
REMARK VINA RESULT: -8.000491346      0.000      0.000
REMARK  11 active torsions:
REMARK  status: ('A' for Active; 'I' for Inactive)
REMARK    1  A    between atoms: C3_10  and  N3_11 
REMARK    2  A    between atoms: N3_11  and  C4_12 
REMARK    3  A    between atoms: N3_11  and  C7_19 
REMARK    4  A    between atoms: C4_12  and  C5_13 
REMARK    5  A    between atoms: C5_13  and  C6_14 
REMARK    6  A    between atoms: C6_14  and  N4_15 
REMARK    7  A    between atoms: C8_22  and  O1_23 
REMARK    8  A    between atoms: C8_22  and  N6_25 
REMARK    9  A    between atoms: N6_25  and  O2_26 
REMARK   10  A    between atoms: C9_28  and  N7_29 
REMARK   11  A    between atoms: C10_37  and  C11_38 
ROOT
HETATM    1  N3  UNL     1     -31.233 -64.763 -11.316  1.00  0.00    -0.303 N 
ENDROOT
BRANCH   1   2
HETATM    2  C3  UNL     1     -32.508 -64.188 -11.230  1.00  0.00     0.139 A 
HETATM    3  C2  UNL     1     -33.198 -63.506 -12.245  1.00  0.00     0.099 A 
HETATM    4  N2  UNL     1     -32.730 -63.319 -13.502  1.00  0.00    -0.317 N 
HETATM    5  C12 UNL     1     -34.451 -63.060 -11.720  1.00  0.00     0.058 A 
HETATM    6  S2  UNL     1     -33.522 -62.515 -14.742  1.00  0.00     0.027 SA
ATOM      7  H2  UNL     1     -31.810 -63.704 -13.714  1.00  0.00     0.175 HD
HETATM    8  S1  UNL     1     -35.306 -61.888 -13.981  1.00  0.00    -0.017 SA
HETATM    9  C1  UNL     1     -35.450 -62.357 -12.350  1.00  0.00     0.090 A 
HETATM   10  N1  UNL     1     -36.539 -62.057 -11.647  1.00  0.00    -0.392 N 
ATOM     11  H12 UNL     1     -37.281 -61.535 -12.115  1.00  0.00     0.156 HD
ATOM     12  H11 UNL     1     -36.626 -62.339 -10.671  1.00  0.00     0.156 HD
HETATM   13  C10 UNL     1     -34.457 -63.506 -10.382  1.00  0.00     0.085 A 
HETATM   14  N9  UNL     1     -33.306 -64.152 -10.158  1.00  0.00    -0.337 N 
ATOM     15  H9  UNL     1     -33.062 -64.574  -9.262  1.00  0.00     0.167 HD
BRANCH  13  16
HETATM   16  C11 UNL     1     -35.479 -63.337  -9.365  1.00  0.00     0.140 C 
HETATM   17  N10 UNL     1     -36.684 -64.063  -9.415  1.00  0.00    -0.087 NA
HETATM   18  S3  UNL     1     -35.223 -62.295  -8.151  1.00  0.00    -0.061 SA
ENDBRANCH  13  16
ENDBRANCH   1   2
BRANCH   1  19
HETATM   19  C4  UNL     1     -30.848 -66.045 -11.781  1.00  0.00     0.135 C 
BRANCH  19  20
HETATM   20  C5  UNL     1     -30.917 -66.327 -13.228  1.00  0.00     0.047 C 
BRANCH  20  21
HETATM   21  C6  UNL     1     -29.924 -65.632 -14.091  1.00  0.00     0.231 C 
BRANCH  21  22
HETATM   22  N4  UNL     1     -29.297 -66.511 -15.061  1.00  0.00    -0.079 N 
ATOM     23  H43 UNL     1     -28.968 -67.367 -14.617  1.00  0.00     0.274 HD
ATOM     24  H42 UNL     1     -29.992 -66.908 -15.694  1.00  0.00     0.274 HD
ATOM     25  H41 UNL     1     -28.546 -66.061 -15.583  1.00  0.00     0.274 HD
ENDBRANCH  21  22
ENDBRANCH  20  21
ENDBRANCH  19  20
ENDBRANCH   1  19
BRANCH   1  26
HETATM   26  C7  UNL     1     -30.141 -63.951 -10.807  1.00  0.00     0.184 C 
HETATM   27  N5  UNL     1     -30.287 -62.708 -10.580  1.00  0.00    -0.311 N 
HETATM   28  C8  UNL     1     -29.033 -62.189 -10.084  1.00  0.00     0.283 C 
ATOM     29  H5  UNL     1     -31.142 -62.170 -10.724  1.00  0.00     0.167 HD
HETATM   30  C9  UNL     1     -27.994 -63.254 -10.371  1.00  0.00     0.360 C 
HETATM   31  N8  UNL     1     -28.841 -64.423 -10.508  1.00  0.00    -0.329 N 
ATOM     32  H8  UNL     1     -28.556 -65.397 -10.408  1.00  0.00     0.164 HD
BRANCH  28  33
HETATM   33  O1  UNL     1     -28.740 -61.027 -10.750  1.00  0.00    -0.353 OA
ATOM     34  H1  UNL     1     -28.054 -61.201 -11.383  1.00  0.00     0.214 HD
ENDBRANCH  28  33
BRANCH  28  35
HETATM   35  N6  UNL     1     -29.178 -62.011  -8.649  1.00  0.00    -0.037 NA
BRANCH  35  36
HETATM   36  O2  UNL     1     -30.156 -61.121  -8.398  1.00  0.00    -0.292 OA
ATOM     37  H2  UNL     1     -30.184 -60.928  -7.468  1.00  0.00     0.239 HD
ENDBRANCH  35  36
ENDBRANCH  28  35
BRANCH  30  38
HETATM   38  N7  UNL     1     -27.159 -63.437  -9.198  1.00  0.00    -0.052 N 
ATOM     39  H73 UNL     1     -26.214 -63.738  -9.438  1.00  0.00     0.277 HD
ATOM     40  H72 UNL     1     -26.920 -62.551  -8.752  1.00  0.00     0.277 HD
ATOM     41  H71 UNL     1     -27.618 -64.082  -8.556  1.00  0.00     0.277 HD
ENDBRANCH  30  38
ENDBRANCH   1  26
TORSDOF 11
ENDMDL
MODEL 2
REMARK VINA RESULT: -7.640467495      3.384      7.225
REMARK  11 active torsions:
REMARK  status: ('A' for Active; 'I' for Inactive)
REMARK    1  A    between atoms: C3_10  and  N3_11 
REMARK    2  A    between atoms: N3_11  and  C4_12 
REMARK    3  A    between atoms: N3_11  and  C7_19 
REMARK    4  A    between atoms: C4_12  and  C5_13 
REMARK    5  A    between atoms: C5_13  and  C6_14 
REMARK    6  A    between atoms: C6_14  and  N4_15 
REMARK    7  A    between atoms: C8_22  and  O1_23 
REMARK    8  A    between atoms: C8_22  and  N6_25 
REMARK    9  A    between atoms: N6_25  and  O2_26 
REMARK   10  A    between atoms: C9_28  and  N7_29 
REMARK   11  A    between atoms: C10_37  and  C11_38 
ROOT
HETATM    1  N3  UNL     1     -34.227 -63.210  -9.945  1.00  0.00    -0.303 N 
ENDROOT
BRANCH   1   2
HETATM    2  C3  UNL     1     -33.156 -63.543 -10.786  1.00  0.00     0.139 A 
HETATM    3  C2  UNL     1     -31.831 -63.088 -10.687  1.00  0.00     0.099 A 
HETATM    4  N2  UNL     1     -31.373 -62.256  -9.722  1.00  0.00    -0.317 N 
HETATM    5  C12 UNL     1     -31.078 -63.652 -11.763  1.00  0.00     0.058 A 
HETATM    6  S2  UNL     1     -29.801 -61.694  -9.567  1.00  0.00     0.027 SA
ATOM      7  H2  UNL     1     -32.047 -61.942  -9.024  1.00  0.00     0.175 HD
HETATM    8  S1  UNL     1     -28.739 -62.507 -11.105  1.00  0.00    -0.017 SA
HETATM    9  C1  UNL     1     -29.746 -63.490 -12.063  1.00  0.00     0.090 A 
HETATM   10  N1  UNL     1     -29.265 -64.129 -13.127  1.00  0.00    -0.392 N 
ATOM     11  H12 UNL     1     -28.277 -64.008 -13.350  1.00  0.00     0.156 HD
ATOM     12  H11 UNL     1     -29.869 -64.718 -13.701  1.00  0.00     0.156 HD
HETATM   13  C10 UNL     1     -32.007 -64.440 -12.475  1.00  0.00     0.085 A 
HETATM   14  N9  UNL     1     -33.191 -64.336 -11.860  1.00  0.00    -0.337 N 
ATOM     15  H9  UNL     1     -34.035 -64.812 -12.179  1.00  0.00     0.167 HD
BRANCH  13  16
HETATM   16  C11 UNL     1     -31.802 -65.244 -13.667  1.00  0.00     0.140 C 
HETATM   17  N10 UNL     1     -31.048 -66.432 -13.623  1.00  0.00    -0.087 NA
HETATM   18  S3  UNL     1     -32.457 -64.763 -15.068  1.00  0.00    -0.061 SA
ENDBRANCH  13  16
ENDBRANCH   1   2
BRANCH   1  19
HETATM   19  C4  UNL     1     -34.218 -62.592  -8.670  1.00  0.00     0.135 C 
BRANCH  19  20
HETATM   20  C5  UNL     1     -35.484 -62.498  -7.916  1.00  0.00     0.047 C 
BRANCH  20  21
HETATM   21  C6  UNL     1     -36.182 -61.184  -7.947  1.00  0.00     0.231 C 
BRANCH  21  22
HETATM   22  N4  UNL     1     -37.584 -61.292  -8.308  1.00  0.00    -0.079 N 
ATOM     23  H43 UNL     1     -37.785 -60.754  -9.150  1.00  0.00     0.274 HD
ATOM     24  H42 UNL     1     -37.800 -62.228  -8.652  1.00  0.00     0.274 HD
ATOM     25  H41 UNL     1     -38.214 -61.029  -7.550  1.00  0.00     0.274 HD
ENDBRANCH  21  22
ENDBRANCH  20  21
ENDBRANCH  19  20
ENDBRANCH   1  19
BRANCH   1  26
HETATM   26  C7  UNL     1     -35.544 -63.599 -10.421  1.00  0.00     0.184 C 
HETATM   27  N5  UNL     1     -36.268 -62.802 -11.098  1.00  0.00    -0.311 N 
HETATM   28  C8  UNL     1     -37.504 -63.477 -11.418  1.00  0.00     0.283 C 
ATOM     29  H5  UNL     1     -36.018 -61.850 -11.368  1.00  0.00     0.167 HD
HETATM   30  C9  UNL     1     -37.558 -64.702 -10.529  1.00  0.00     0.360 C 
HETATM   31  N8  UNL     1     -36.153 -64.858 -10.204  1.00  0.00    -0.329 N 
ATOM     32  H8  UNL     1     -35.692 -65.709  -9.881  1.00  0.00     0.164 HD
BRANCH  28  33
HETATM   33  O1  UNL     1     -38.552 -62.633 -11.153  1.00  0.00    -0.353 OA
ATOM     34  H1  UNL     1     -39.345 -63.147 -11.064  1.00  0.00     0.214 HD
ENDBRANCH  28  33
BRANCH  28  35
HETATM   35  N6  UNL     1     -37.427 -63.879 -12.812  1.00  0.00    -0.037 NA
BRANCH  35  36
HETATM   36  O2  UNL     1     -36.586 -63.063 -13.475  1.00  0.00    -0.292 OA
ATOM     37  H2  UNL     1     -37.080 -62.389 -13.926  1.00  0.00     0.239 HD
ENDBRANCH  35  36
ENDBRANCH  28  35
BRANCH  30  38
HETATM   38  N7  UNL     1     -37.967 -65.850 -11.318  1.00  0.00    -0.052 N 
ATOM     39  H73 UNL     1     -37.517 -65.870 -12.233  1.00  0.00     0.277 HD
ATOM     40  H72 UNL     1     -37.589 -66.724 -10.952  1.00  0.00     0.277 HD
ATOM     41  H71 UNL     1     -38.984 -65.866 -11.387  1.00  0.00     0.277 HD
ENDBRANCH  30  38
ENDBRANCH   1  26
TORSDOF 11
ENDMDL
MODEL 3
REMARK VINA RESULT: -7.495732411      2.060      4.688
REMARK  11 active torsions:
REMARK  status: ('A' for Active; 'I' for Inactive)
REMARK    1  A    between atoms: C3_10  and  N3_11 
REMARK    2  A    between atoms: N3_11  and  C4_12 
REMARK    3  A    between atoms: N3_11  and  C7_19 
REMARK    4  A    between atoms: C4_12  and  C5_13 
REMARK    5  A    between atoms: C5_13  and  C6_14 
REMARK    6  A    between atoms: C6_14  and  N4_15 
REMARK    7  A    between atoms: C8_22  and  O1_23 
REMARK    8  A    between atoms: C8_22  and  N6_25 
REMARK    9  A    between atoms: N6_25  and  O2_26 
REMARK   10  A    between atoms: C9_28  and  N7_29 
REMARK   11  A    between atoms: C10_37  and  C11_38 
ROOT
HETATM    1  N3  UNL     1     -32.049 -63.592 -11.275  1.00  0.00    -0.303 N 
ENDROOT
BRANCH   1   2
HETATM    2  C3  UNL     1     -32.279 -63.546 -12.657  1.00  0.00     0.139 A 
HETATM    3  C2  UNL     1     -33.476 -63.198 -13.304  1.00  0.00     0.099 A 
HETATM    4  N2  UNL     1     -34.611 -62.819 -12.670  1.00  0.00    -0.317 N 
HETATM    5  C12 UNL     1     -33.277 -63.313 -14.715  1.00  0.00     0.058 A 
HETATM    6  S2  UNL     1     -36.057 -62.393 -13.405  1.00  0.00     0.027 SA
ATOM      7  H2  UNL     1     -34.583 -62.790 -11.651  1.00  0.00     0.175 HD
HETATM    8  S1  UNL     1     -35.759 -62.559 -15.414  1.00  0.00    -0.017 SA
HETATM    9  C1  UNL     1     -34.167 -63.071 -15.734  1.00  0.00     0.090 A 
HETATM   10  N1  UNL     1     -33.744 -63.246 -16.984  1.00  0.00    -0.392 N 
ATOM     11  H12 UNL     1     -34.405 -63.066 -17.741  1.00  0.00     0.156 HD
ATOM     12  H11 UNL     1     -32.791 -63.552 -17.176  1.00  0.00     0.156 HD
HETATM   13  C10 UNL     1     -31.938 -63.734 -14.854  1.00  0.00     0.085 A 
HETATM   14  N9  UNL     1     -31.414 -63.851 -13.628  1.00  0.00    -0.337 N 
ATOM     15  H9  UNL     1     -30.452 -64.143 -13.453  1.00  0.00     0.167 HD
BRANCH  13  16
HETATM   16  C11 UNL     1     -31.189 -64.015 -16.066  1.00  0.00     0.140 C 
HETATM   17  N10 UNL     1     -30.664 -62.975 -16.856  1.00  0.00    -0.087 NA
HETATM   18  S3  UNL     1     -30.952 -65.555 -16.510  1.00  0.00    -0.061 SA
ENDBRANCH  13  16
ENDBRANCH   1   2
BRANCH   1  19
HETATM   19  C4  UNL     1     -32.941 -63.906 -10.219  1.00  0.00     0.135 C 
BRANCH  19  20
HETATM   20  C5  UNL     1     -33.440 -62.814  -9.361  1.00  0.00     0.047 C 
BRANCH  20  21
HETATM   21  C6  UNL     1     -34.870 -62.886  -8.954  1.00  0.00     0.231 C 
BRANCH  21  22
HETATM   22  N4  UNL     1     -35.116 -62.329  -7.636  1.00  0.00    -0.079 N 
ATOM     23  H43 UNL     1     -34.241 -62.192  -7.130  1.00  0.00     0.274 HD
ATOM     24  H42 UNL     1     -35.424 -61.359  -7.703  1.00  0.00     0.274 HD
ATOM     25  H41 UNL     1     -35.771 -62.882  -7.084  1.00  0.00     0.274 HD
ENDBRANCH  21  22
ENDBRANCH  20  21
ENDBRANCH  19  20
ENDBRANCH   1  19
BRANCH   1  26
HETATM   26  C7  UNL     1     -30.713 -63.212 -10.847  1.00  0.00     0.184 C 
HETATM   27  N5  UNL     1     -30.430 -62.010 -10.542  1.00  0.00    -0.311 N 
HETATM   28  C8  UNL     1     -29.037 -61.958 -10.160  1.00  0.00     0.283 C 
ATOM     29  H5  UNL     1     -31.074 -61.220 -10.564  1.00  0.00     0.167 HD
HETATM   30  C9  UNL     1     -28.427 -63.269 -10.613  1.00  0.00     0.360 C 
HETATM   31  N8  UNL     1     -29.615 -64.095 -10.716  1.00  0.00    -0.329 N 
ATOM     32  H8  UNL     1     -29.652 -65.113 -10.698  1.00  0.00     0.164 HD
BRANCH  28  33
HETATM   33  O1  UNL     1     -28.444 -60.896 -10.793  1.00  0.00    -0.353 OA
ATOM     34  H1  UNL     1     -27.579 -61.158 -11.086  1.00  0.00     0.214 HD
ENDBRANCH  28  33
BRANCH  28  35
HETATM   35  N6  UNL     1     -28.992 -61.864  -8.711  1.00  0.00    -0.037 NA
BRANCH  35  36
HETATM   36  O2  UNL     1     -30.015 -61.107  -8.271  1.00  0.00    -0.292 OA
ATOM     37  H2  UNL     1     -30.177 -61.287  -7.353  1.00  0.00     0.239 HD
ENDBRANCH  35  36
ENDBRANCH  28  35
BRANCH  30  38
HETATM   38  N7  UNL     1     -27.598 -63.804  -9.549  1.00  0.00    -0.052 N 
ATOM     39  H73 UNL     1     -26.626 -63.923  -9.837  1.00  0.00     0.277 HD
ATOM     40  H72 UNL     1     -27.445 -63.128  -8.801  1.00  0.00     0.277 HD
ATOM     41  H71 UNL     1     -28.008 -64.673  -9.207  1.00  0.00     0.277 HD
ENDBRANCH  30  38
ENDBRANCH   1  26
TORSDOF 11
ENDMDL
MODEL 4
REMARK VINA RESULT: -7.477621424      3.664      6.982
REMARK  11 active torsions:
REMARK  status: ('A' for Active; 'I' for Inactive)
REMARK    1  A    between atoms: C3_10  and  N3_11 
REMARK    2  A    between atoms: N3_11  and  C4_12 
REMARK    3  A    between atoms: N3_11  and  C7_19 
REMARK    4  A    between atoms: C4_12  and  C5_13 
REMARK    5  A    between atoms: C5_13  and  C6_14 
REMARK    6  A    between atoms: C6_14  and  N4_15 
REMARK    7  A    between atoms: C8_22  and  O1_23 
REMARK    8  A    between atoms: C8_22  and  N6_25 
REMARK    9  A    between atoms: N6_25  and  O2_26 
REMARK   10  A    between atoms: C9_28  and  N7_29 
REMARK   11  A    between atoms: C10_37  and  C11_38 
ROOT
HETATM    1  N3  UNL     1     -33.896 -62.580 -12.006  1.00  0.00    -0.303 N 
ENDROOT
BRANCH   1   2
HETATM    2  C3  UNL     1     -33.291 -63.139 -13.140  1.00  0.00     0.139 A 
HETATM    3  C2  UNL     1     -32.414 -64.235 -13.176  1.00  0.00     0.099 A 
HETATM    4  N2  UNL     1     -32.032 -64.952 -12.093  1.00  0.00    -0.317 N 
HETATM    5  C12 UNL     1     -32.014 -64.449 -14.532  1.00  0.00     0.058 A 
HETATM    6  S2  UNL     1     -30.993 -66.267 -12.095  1.00  0.00     0.027 SA
ATOM      7  H2  UNL     1     -32.413 -64.664 -11.192  1.00  0.00     0.175 HD
HETATM    8  S1  UNL     1     -30.431 -66.561 -14.032  1.00  0.00    -0.017 SA
HETATM    9  C1  UNL     1     -31.170 -65.407 -15.042  1.00  0.00     0.090 A 
HETATM   10  N1  UNL     1     -30.950 -65.408 -16.355  1.00  0.00    -0.392 N 
ATOM     11  H12 UNL     1     -30.325 -66.119 -16.734  1.00  0.00     0.156 HD
ATOM     12  H11 UNL     1     -31.393 -64.716 -16.960  1.00  0.00     0.156 HD
HETATM   13  C10 UNL     1     -32.684 -63.447 -15.265  1.00  0.00     0.085 A 
HETATM   14  N9  UNL     1     -33.408 -62.721 -14.404  1.00  0.00    -0.337 N 
ATOM     15  H9  UNL     1     -33.989 -61.931 -14.683  1.00  0.00     0.167 HD
BRANCH  13  16
HETATM   16  C11 UNL     1     -32.650 -63.179 -16.692  1.00  0.00     0.140 C 
HETATM   17  N10 UNL     1     -31.529 -62.577 -17.293  1.00  0.00    -0.087 NA
HETATM   18  S3  UNL     1     -33.926 -63.587 -17.604  1.00  0.00    -0.061 SA
ENDBRANCH  13  16
ENDBRANCH   1   2
BRANCH   1  19
HETATM   19  C4  UNL     1     -33.428 -61.561 -11.140  1.00  0.00     0.135 C 
BRANCH  19  20
HETATM   20  C5  UNL     1     -31.977 -61.440 -10.903  1.00  0.00     0.047 C 
BRANCH  20  21
HETATM   21  C6  UNL     1     -31.419 -62.217  -9.762  1.00  0.00     0.231 C 
BRANCH  21  22
HETATM   22  N4  UNL     1     -30.131 -61.723  -9.311  1.00  0.00    -0.079 N 
ATOM     23  H43 UNL     1     -29.483 -61.632 -10.092  1.00  0.00     0.274 HD
ATOM     24  H42 UNL     1     -30.195 -60.744  -9.032  1.00  0.00     0.274 HD
ATOM     25  H41 UNL     1     -29.724 -62.288  -8.566  1.00  0.00     0.274 HD
ENDBRANCH  21  22
ENDBRANCH  20  21
ENDBRANCH  19  20
ENDBRANCH   1  19
BRANCH   1  26
HETATM   26  C7  UNL     1     -35.172 -63.161 -11.623  1.00  0.00     0.184 C 
HETATM   27  N5  UNL     1     -36.271 -62.706 -12.072  1.00  0.00    -0.311 N 
HETATM   28  C8  UNL     1     -37.348 -63.490 -11.512  1.00  0.00     0.283 C 
ATOM     29  H5  UNL     1     -36.375 -61.922 -12.717  1.00  0.00     0.167 HD
HETATM   30  C9  UNL     1     -36.741 -64.285 -10.373  1.00  0.00     0.360 C 
HETATM   31  N8  UNL     1     -35.340 -64.261 -10.748  1.00  0.00    -0.329 N 
ATOM     32  H8  UNL     1     -34.616 -64.910 -10.440  1.00  0.00     0.164 HD
BRANCH  28  33
HETATM   33  O1  UNL     1     -38.321 -62.641 -11.052  1.00  0.00    -0.353 OA
ATOM     34  H1  UNL     1     -39.089 -62.727 -11.605  1.00  0.00     0.214 HD
ENDBRANCH  28  33
BRANCH  28  35
HETATM   35  N6  UNL     1     -37.812 -64.391 -12.553  1.00  0.00    -0.037 NA
BRANCH  35  36
HETATM   36  O2  UNL     1     -39.141 -64.573 -12.438  1.00  0.00    -0.292 OA
ATOM     37  H2  UNL     1     -39.513 -63.891 -11.891  1.00  0.00     0.239 HD
ENDBRANCH  35  36
ENDBRANCH  28  35
BRANCH  30  38
HETATM   38  N7  UNL     1     -37.203 -65.658 -10.447  1.00  0.00    -0.052 N 
ATOM     39  H73 UNL     1     -37.695 -65.854 -11.320  1.00  0.00     0.277 HD
ATOM     40  H72 UNL     1     -36.434 -66.319 -10.563  1.00  0.00     0.277 HD
ATOM     41  H71 UNL     1     -37.772 -65.867  -9.628  1.00  0.00     0.277 HD
ENDBRANCH  30  38
ENDBRANCH   1  26
TORSDOF 11
ENDMDL
MODEL 5
REMARK VINA RESULT: -7.269283640      3.348      6.493
REMARK  11 active torsions:
REMARK  status: ('A' for Active; 'I' for Inactive)
REMARK    1  A    between atoms: C3_10  and  N3_11 
REMARK    2  A    between atoms: N3_11  and  C4_12 
REMARK    3  A    between atoms: N3_11  and  C7_19 
REMARK    4  A    between atoms: C4_12  and  C5_13 
REMARK    5  A    between atoms: C5_13  and  C6_14 
REMARK    6  A    between atoms: C6_14  and  N4_15 
REMARK    7  A    between atoms: C8_22  and  O1_23 
REMARK    8  A    between atoms: C8_22  and  N6_25 
REMARK    9  A    between atoms: N6_25  and  O2_26 
REMARK   10  A    between atoms: C9_28  and  N7_29 
REMARK   11  A    between atoms: C10_37  and  C11_38 
ROOT
HETATM    1  N3  UNL     1     -32.792 -62.886 -11.970  1.00  0.00    -0.303 N 
ENDROOT
BRANCH   1   2
HETATM    2  C3  UNL     1     -32.453 -63.538 -13.164  1.00  0.00     0.139 A 
HETATM    3  C2  UNL     1     -31.165 -63.883 -13.603  1.00  0.00     0.099 A 
HETATM    4  N2  UNL     1     -30.027 -63.653 -12.906  1.00  0.00    -0.317 N 
HETATM    5  C12 UNL     1     -31.275 -64.507 -14.884  1.00  0.00     0.058 A 
HETATM    6  S2  UNL     1     -28.473 -64.052 -13.392  1.00  0.00     0.027 SA
ATOM      7  H2  UNL     1     -30.125 -63.194 -12.000  1.00  0.00     0.175 HD
HETATM    8  S1  UNL     1     -28.645 -64.941 -15.218  1.00  0.00    -0.017 SA
HETATM    9  C1  UNL     1     -30.280 -65.008 -15.689  1.00  0.00     0.090 A 
HETATM   10  N1  UNL     1     -30.634 -65.552 -16.851  1.00  0.00    -0.392 N 
ATOM     11  H12 UNL     1     -29.895 -65.924 -17.448  1.00  0.00     0.156 HD
ATOM     12  H11 UNL     1     -31.613 -65.593 -17.133  1.00  0.00     0.156 HD
HETATM   13  C10 UNL     1     -32.658 -64.509 -15.163  1.00  0.00     0.085 A 
HETATM   14  N9  UNL     1     -33.287 -63.935 -14.130  1.00  0.00    -0.337 N 
ATOM     15  H9  UNL     1     -34.299 -63.813 -14.084  1.00  0.00     0.167 HD
BRANCH  13  16
HETATM   16  C11 UNL     1     -33.356 -65.015 -16.331  1.00  0.00     0.140 C 
HETATM   17  N10 UNL     1     -33.523 -66.397 -16.538  1.00  0.00    -0.087 NA
HETATM   18  S3  UNL     1     -33.954 -63.967 -17.412  1.00  0.00    -0.061 SA
ENDBRANCH  13  16
ENDBRANCH   1   2
BRANCH   1  19
HETATM   19  C4  UNL     1     -32.032 -61.983 -11.185  1.00  0.00     0.135 C 
BRANCH  19  20
HETATM   20  C5  UNL     1     -31.435 -62.466  -9.925  1.00  0.00     0.047 C 
BRANCH  20  21
HETATM   21  C6  UNL     1     -30.319 -61.657  -9.363  1.00  0.00     0.231 C 
BRANCH  21  22
HETATM   22  N4  UNL     1     -29.155 -61.611 -10.229  1.00  0.00    -0.079 N 
ATOM     23  H43 UNL     1     -29.231 -60.848 -10.900  1.00  0.00     0.274 HD
ATOM     24  H42 UNL     1     -28.331 -61.300  -9.715  1.00  0.00     0.274 HD
ATOM     25  H41 UNL     1     -28.975 -62.496 -10.704  1.00  0.00     0.274 HD
ENDBRANCH  21  22
ENDBRANCH  20  21
ENDBRANCH  19  20
ENDBRANCH   1  19
BRANCH   1  26
HETATM   26  C7  UNL     1     -34.095 -63.217 -11.420  1.00  0.00     0.184 C 
HETATM   27  N5  UNL     1     -35.073 -62.406 -11.492  1.00  0.00    -0.311 N 
HETATM   28  C8  UNL     1     -36.218 -63.023 -10.862  1.00  0.00     0.283 C 
ATOM     29  H5  UNL     1     -35.052 -61.481 -11.921  1.00  0.00     0.167 HD
HETATM   30  C9  UNL     1     -35.684 -64.210 -10.087  1.00  0.00     0.360 C 
HETATM   31  N8  UNL     1     -34.425 -64.431 -10.772  1.00  0.00    -0.329 N 
ATOM     32  H8  UNL     1     -33.882 -65.294 -10.784  1.00  0.00     0.164 HD
BRANCH  28  33
HETATM   33  O1  UNL     1     -36.804 -62.112 -10.022  1.00  0.00    -0.353 OA
ATOM     34  H1  UNL     1     -37.371 -62.574  -9.416  1.00  0.00     0.214 HD
ENDBRANCH  28  33
BRANCH  28  35
HETATM   35  N6  UNL     1     -37.100 -63.479 -11.923  1.00  0.00    -0.037 NA
BRANCH  35  36
HETATM   36  O2  UNL     1     -38.378 -63.434 -11.504  1.00  0.00    -0.292 OA
ATOM     37  H2  UNL     1     -38.828 -64.231 -11.759  1.00  0.00     0.239 HD
ENDBRANCH  35  36
ENDBRANCH  28  35
BRANCH  30  38
HETATM   38  N7  UNL     1     -36.535 -65.360 -10.326  1.00  0.00    -0.052 N 
ATOM     39  H73 UNL     1     -37.227 -65.490  -9.587  1.00  0.00     0.277 HD
ATOM     40  H72 UNL     1     -37.179 -65.210 -11.103  1.00  0.00     0.277 HD
ATOM     41  H71 UNL     1     -35.954 -66.187 -10.459  1.00  0.00     0.277 HD
ENDBRANCH  30  38
ENDBRANCH   1  26
TORSDOF 11
ENDMDL
