MODEL 1
REMARK VINA RESULT: -9.100524221      0.000      0.000
REMARK  8 active torsions:
REMARK  status: ('A' for Active; 'I' for Inactive)
REMARK    1  A    between atoms: N2_12  and  C9_13 
REMARK    2  A    between atoms: C9_13  and  C10_14 
REMARK    3  A    between atoms: C10_14  and  N3_15 
REMARK    4  A    between atoms: N3_15  and  C11_17 
REMARK    5  A    between atoms: C18_26  and  S1_27 
REMARK    6  A    between atoms: N6_33  and  C19_34 
REMARK    7  A    between atoms: C19_34  and  C20_35 
REMARK    8  A    between atoms: C20_35  and  N7_36 
ROOT
HETATM    1  C11 UNL     1      -0.432   4.631  12.229  1.00  0.00     0.696 A 
HETATM    2  N4  UNL     1       0.727   5.290  12.375  1.00  0.00    -0.173 N 
ATOM      3  H4  UNL     1       1.017   5.783  13.220  1.00  0.00     0.186 HD
HETATM    4  C12 UNL     1       1.461   5.204  11.226  1.00  0.00     0.148 A 
HETATM    5  C13 UNL     1       2.749   5.833  11.117  1.00  0.00     0.034 A 
HETATM    6  C14 UNL     1       3.297   6.566  12.182  1.00  0.00     0.017 A 
HETATM    7  C15 UNL     1       4.516   7.193  12.124  1.00  0.00     0.001 A 
HETATM    8  C16 UNL     1       5.252   7.112  10.975  1.00  0.00     0.002 A 
HETATM    9  C17 UNL     1       4.745   6.403   9.916  1.00  0.00     0.027 A 
HETATM   10  C18 UNL     1       3.492   5.762   9.984  1.00  0.00     0.094 A 
HETATM   11  N5  UNL     1       0.712   4.491  10.426  1.00  0.00    -0.268 N 
ATOM     12  H5  UNL     1       0.976   4.241   9.473  1.00  0.00     0.189 HD
HETATM   13  N6  UNL     1      -0.413   4.136  10.986  1.00  0.00    -0.121 N 
ENDROOT
BRANCH   1  14
HETATM   14  N3  UNL     1      -1.477   4.489  13.217  1.00  0.00    -0.223 N 
ATOM     15  H3  UNL     1      -1.442   3.738  13.907  1.00  0.00     0.177 HD
BRANCH  14  16
HETATM   16  C10 UNL     1      -2.555   5.419  13.208  1.00  0.00     0.158 C 
BRANCH  16  17
HETATM   17  C9  UNL     1      -3.842   4.843  12.689  1.00  0.00     0.153 C 
BRANCH  17  18
HETATM   18  N2  UNL     1      -4.661   4.283  13.733  1.00  0.00    -0.308 N 
HETATM   19  C1  UNL     1      -4.387   3.081  14.223  1.00  0.00     0.261 A 
HETATM   20  O1  UNL     1      -3.417   2.410  13.791  1.00  0.00    -0.267 OA
HETATM   21  C2  UNL     1      -5.178   2.528  15.238  1.00  0.00     0.059 A 
HETATM   22  C3  UNL     1      -4.917   1.285  15.763  1.00  0.00     0.019 A 
HETATM   23  C7  UNL     1      -6.229   3.270  15.696  1.00  0.00     0.048 A 
HETATM   24  C4  UNL     1      -5.731   0.780  16.765  1.00  0.00     0.001 A 
HETATM   25  C5  UNL     1      -6.800   1.517  17.245  1.00  0.00     0.002 A 
HETATM   26  C6  UNL     1      -7.031   2.751  16.700  1.00  0.00     0.030 A 
HETATM   27  N1  UNL     1      -6.503   4.507  15.186  1.00  0.00    -0.351 N 
HETATM   28  C8  UNL     1      -5.696   4.970  14.211  1.00  0.00     0.186 A 
ATOM     29  H1  UNL     1      -7.288   5.059  15.530  1.00  0.00     0.166 HD
ENDBRANCH  17  18
ENDBRANCH  16  17
ENDBRANCH  14  16
ENDBRANCH   1  14
BRANCH  13  30
HETATM   30  C19 UNL     1      -1.502   3.344  10.387  1.00  0.00     0.198 C 
BRANCH  30  31
HETATM   31  C20 UNL     1      -1.332   1.886  10.707  1.00  0.00     0.295 C 
BRANCH  31  32
HETATM   32  N7  UNL     1      -2.606   1.317  11.075  1.00  0.00     0.094 N 
HETATM   33  C21 UNL     1      -2.646  -0.099  10.692  1.00  0.00     0.298 C 
HETATM   34  C22 UNL     1      -3.986  -0.665  10.997  1.00  0.00     0.198 C 
HETATM   35  O5  UNL     1      -5.029   0.076  10.440  1.00  0.00    -0.388 OA
HETATM   36  C23 UNL     1      -4.999   1.344  10.991  1.00  0.00     0.198 C 
HETATM   37  C24 UNL     1      -3.722   2.021  10.463  1.00  0.00     0.298 C 
ENDBRANCH  31  32
ENDBRANCH  30  31
ENDBRANCH  13  30
BRANCH  10  38
HETATM   38  S1  UNL     1       3.011   4.907   8.582  1.00  0.00     0.138 S 
HETATM   39  O2  UNL     1       4.099   5.014   7.500  1.00  0.00    -0.591 OA
HETATM   40  O3  UNL     1       1.749   5.369   7.933  1.00  0.00    -0.591 OA
HETATM   41  O4  UNL     1       2.895   3.269   8.927  1.00  0.00    -0.591 OA
ENDBRANCH  10  38
TORSDOF 8
ENDMDL
MODEL 2
REMARK VINA RESULT: -8.810350926      2.770      5.493
REMARK  8 active torsions:
REMARK  status: ('A' for Active; 'I' for Inactive)
REMARK    1  A    between atoms: N2_12  and  C9_13 
REMARK    2  A    between atoms: C9_13  and  C10_14 
REMARK    3  A    between atoms: C10_14  and  N3_15 
REMARK    4  A    between atoms: N3_15  and  C11_17 
REMARK    5  A    between atoms: C18_26  and  S1_27 
REMARK    6  A    between atoms: N6_33  and  C19_34 
REMARK    7  A    between atoms: C19_34  and  C20_35 
REMARK    8  A    between atoms: C20_35  and  N7_36 
ROOT
HETATM    1  C11 UNL     1      -0.613   3.431  11.701  1.00  0.00     0.696 A 
HETATM    2  N4  UNL     1      -1.294   4.253  12.511  1.00  0.00    -0.173 N 
ATOM      3  H4  UNL     1      -2.079   3.977  13.101  1.00  0.00     0.186 HD
HETATM    4  C12 UNL     1      -0.781   5.517  12.431  1.00  0.00     0.148 A 
HETATM    5  C13 UNL     1      -1.338   6.597  13.201  1.00  0.00     0.034 A 
HETATM    6  C14 UNL     1      -2.433   6.396  14.056  1.00  0.00     0.017 A 
HETATM    7  C15 UNL     1      -3.007   7.394  14.803  1.00  0.00     0.001 A 
HETATM    8  C16 UNL     1      -2.498   8.660  14.722  1.00  0.00     0.002 A 
HETATM    9  C17 UNL     1      -1.428   8.890  13.896  1.00  0.00     0.027 A 
HETATM   10  C18 UNL     1      -0.845   7.859  13.132  1.00  0.00     0.094 A 
HETATM   11  N5  UNL     1       0.196   5.407  11.569  1.00  0.00    -0.268 N 
ATOM     12  H5  UNL     1       0.791   6.185  11.282  1.00  0.00     0.189 HD
HETATM   13  N6  UNL     1       0.324   4.189  11.118  1.00  0.00    -0.121 N 
ENDROOT
BRANCH   1  14
HETATM   14  N3  UNL     1      -0.848   2.019  11.506  1.00  0.00    -0.223 N 
ATOM     15  H3  UNL     1      -0.289   1.325  12.002  1.00  0.00     0.177 HD
BRANCH  14  16
HETATM   16  C10 UNL     1      -1.876   1.616  10.607  1.00  0.00     0.158 C 
BRANCH  16  17
HETATM   17  C9  UNL     1      -3.185   1.320  11.283  1.00  0.00     0.153 C 
BRANCH  17  18
HETATM   18  N2  UNL     1      -3.916   2.512  11.625  1.00  0.00    -0.308 N 
HETATM   19  C1  UNL     1      -4.316   2.715  12.873  1.00  0.00     0.261 A 
HETATM   20  O1  UNL     1      -4.070   1.878  13.777  1.00  0.00    -0.267 OA
HETATM   21  C2  UNL     1      -5.029   3.871  13.215  1.00  0.00     0.059 A 
HETATM   22  C3  UNL     1      -5.456   4.105  14.500  1.00  0.00     0.019 A 
HETATM   23  C7  UNL     1      -5.290   4.771  12.220  1.00  0.00     0.048 A 
HETATM   24  C4  UNL     1      -6.160   5.265  14.787  1.00  0.00     0.001 A 
HETATM   25  C5  UNL     1      -6.433   6.189  13.794  1.00  0.00     0.002 A 
HETATM   26  C6  UNL     1      -5.993   5.925  12.526  1.00  0.00     0.030 A 
HETATM   27  N1  UNL     1      -4.873   4.554  10.938  1.00  0.00    -0.351 N 
HETATM   28  C8  UNL     1      -4.194   3.417  10.688  1.00  0.00     0.186 A 
ATOM     29  H1  UNL     1      -5.069   5.227  10.197  1.00  0.00     0.166 HD
ENDBRANCH  17  18
ENDBRANCH  16  17
ENDBRANCH  14  16
ENDBRANCH   1  14
BRANCH  13  30
HETATM   30  C19 UNL     1       1.300   3.695  10.131  1.00  0.00     0.198 C 
BRANCH  30  31
HETATM   31  C20 UNL     1       2.107   4.833   9.573  1.00  0.00     0.295 C 
BRANCH  31  32
HETATM   32  N7  UNL     1       2.470   4.548   8.207  1.00  0.00     0.094 N 
HETATM   33  C21 UNL     1       1.321   3.970   7.499  1.00  0.00     0.298 C 
HETATM   34  C22 UNL     1       1.717   3.601   6.114  1.00  0.00     0.198 C 
HETATM   35  O5  UNL     1       2.847   2.784   6.070  1.00  0.00    -0.388 OA
HETATM   36  C23 UNL     1       3.907   3.487   6.612  1.00  0.00     0.198 C 
HETATM   37  C24 UNL     1       3.607   3.646   8.113  1.00  0.00     0.298 C 
ENDBRANCH  31  32
ENDBRANCH  30  31
ENDBRANCH  13  30
BRANCH  10  38
HETATM   38  S1  UNL     1       0.491   8.309  12.163  1.00  0.00     0.138 S 
HETATM   39  O2  UNL     1       0.166   8.078  10.678  1.00  0.00    -0.591 OA
HETATM   40  O3  UNL     1       1.763   7.571  12.419  1.00  0.00    -0.591 OA
HETATM   41  O4  UNL     1       0.764   9.959  12.301  1.00  0.00    -0.591 OA
ENDBRANCH  10  38
TORSDOF 8
ENDMDL
MODEL 3
REMARK VINA RESULT: -8.774612048      1.548      1.894
REMARK  8 active torsions:
REMARK  status: ('A' for Active; 'I' for Inactive)
REMARK    1  A    between atoms: N2_12  and  C9_13 
REMARK    2  A    between atoms: C9_13  and  C10_14 
REMARK    3  A    between atoms: C10_14  and  N3_15 
REMARK    4  A    between atoms: N3_15  and  C11_17 
REMARK    5  A    between atoms: C18_26  and  S1_27 
REMARK    6  A    between atoms: N6_33  and  C19_34 
REMARK    7  A    between atoms: C19_34  and  C20_35 
REMARK    8  A    between atoms: C20_35  and  N7_36 
ROOT
HETATM    1  C11 UNL     1      -1.516   6.455  11.829  1.00  0.00     0.696 A 
HETATM    2  N4  UNL     1      -0.409   7.164  12.092  1.00  0.00    -0.173 N 
ATOM      3  H4  UNL     1      -0.386   8.045  12.605  1.00  0.00     0.186 HD
HETATM    4  C12 UNL     1       0.685   6.532  11.570  1.00  0.00     0.148 A 
HETATM    5  C13 UNL     1       2.004   7.090  11.708  1.00  0.00     0.034 A 
HETATM    6  C14 UNL     1       2.216   8.307  12.377  1.00  0.00     0.017 A 
HETATM    7  C15 UNL     1       3.451   8.885  12.527  1.00  0.00     0.001 A 
HETATM    8  C16 UNL     1       4.547   8.258  12.002  1.00  0.00     0.002 A 
HETATM    9  C17 UNL     1       4.373   7.068  11.344  1.00  0.00     0.027 A 
HETATM   10  C18 UNL     1       3.101   6.480  11.195  1.00  0.00     0.094 A 
HETATM   11  N5  UNL     1       0.192   5.459  11.009  1.00  0.00    -0.268 N 
ATOM     12  H5  UNL     1       0.756   4.763  10.522  1.00  0.00     0.189 HD
HETATM   13  N6  UNL     1      -1.105   5.382  11.142  1.00  0.00    -0.121 N 
ENDROOT
BRANCH   1  14
HETATM   14  N3  UNL     1      -2.868   6.788  12.213  1.00  0.00    -0.223 N 
ATOM     15  H3  UNL     1      -3.458   7.353  11.602  1.00  0.00     0.177 HD
BRANCH  14  16
HETATM   16  C10 UNL     1      -3.360   6.310  13.461  1.00  0.00     0.158 C 
BRANCH  16  17
HETATM   17  C9  UNL     1      -4.694   5.627  13.360  1.00  0.00     0.153 C 
BRANCH  17  18
HETATM   18  N2  UNL     1      -4.756   4.411  14.128  1.00  0.00    -0.308 N 
HETATM   19  C1  UNL     1      -5.838   4.125  14.839  1.00  0.00     0.261 A 
HETATM   20  O1  UNL     1      -6.826   4.902  14.858  1.00  0.00    -0.267 OA
HETATM   21  C2  UNL     1      -5.907   2.945  15.590  1.00  0.00     0.059 A 
HETATM   22  C3  UNL     1      -7.017   2.625  16.336  1.00  0.00     0.019 A 
HETATM   23  C7  UNL     1      -4.825   2.111  15.559  1.00  0.00     0.048 A 
HETATM   24  C4  UNL     1      -7.035   1.446  17.064  1.00  0.00     0.001 A 
HETATM   25  C5  UNL     1      -5.950   0.586  17.045  1.00  0.00     0.002 A 
HETATM   26  C6  UNL     1      -4.862   0.935  16.292  1.00  0.00     0.030 A 
HETATM   27  N1  UNL     1      -3.716   2.414  14.824  1.00  0.00    -0.351 N 
HETATM   28  C8  UNL     1      -3.725   3.568  14.129  1.00  0.00     0.186 A 
ATOM     29  H1  UNL     1      -2.909   1.790  14.802  1.00  0.00     0.166 HD
ENDBRANCH  17  18
ENDBRANCH  16  17
ENDBRANCH  14  16
ENDBRANCH   1  14
BRANCH  13  30
HETATM   30  C19 UNL     1      -1.997   4.327  10.631  1.00  0.00     0.198 C 
BRANCH  30  31
HETATM   31  C20 UNL     1      -1.464   2.968  10.985  1.00  0.00     0.295 C 
BRANCH  31  32
HETATM   32  N7  UNL     1      -2.561   2.066  11.237  1.00  0.00     0.094 N 
HETATM   33  C21 UNL     1      -2.289   0.766  10.611  1.00  0.00     0.298 C 
HETATM   34  C22 UNL     1      -3.454  -0.138  10.801  1.00  0.00     0.198 C 
HETATM   35  O5  UNL     1      -4.657   0.427  10.374  1.00  0.00    -0.388 OA
HETATM   36  C23 UNL     1      -4.899   1.553  11.141  1.00  0.00     0.198 C 
HETATM   37  C24 UNL     1      -3.829   2.588  10.749  1.00  0.00     0.298 C 
ENDBRANCH  31  32
ENDBRANCH  30  31
ENDBRANCH  13  30
BRANCH  10  38
HETATM   38  S1  UNL     1       3.058   4.987  10.360  1.00  0.00     0.138 S 
HETATM   39  O2  UNL     1       4.489   4.521  10.041  1.00  0.00    -0.591 OA
HETATM   40  O3  UNL     1       2.332   4.986   9.056  1.00  0.00    -0.591 OA
HETATM   41  O4  UNL     1       2.421   3.797  11.357  1.00  0.00    -0.591 OA
ENDBRANCH  10  38
TORSDOF 8
ENDMDL
MODEL 4
REMARK VINA RESULT: -8.734728132      1.527      2.027
REMARK  8 active torsions:
REMARK  status: ('A' for Active; 'I' for Inactive)
REMARK    1  A    between atoms: N2_12  and  C9_13 
REMARK    2  A    between atoms: C9_13  and  C10_14 
REMARK    3  A    between atoms: C10_14  and  N3_15 
REMARK    4  A    between atoms: N3_15  and  C11_17 
REMARK    5  A    between atoms: C18_26  and  S1_27 
REMARK    6  A    between atoms: N6_33  and  C19_34 
REMARK    7  A    between atoms: C19_34  and  C20_35 
REMARK    8  A    between atoms: C20_35  and  N7_36 
ROOT
HETATM    1  C11 UNL     1      -1.567   6.289  11.701  1.00  0.00     0.696 A 
HETATM    2  N4  UNL     1      -0.277   6.459  12.025  1.00  0.00    -0.173 N 
ATOM      3  H4  UNL     1       0.063   7.053  12.781  1.00  0.00     0.186 HD
HETATM    4  C12 UNL     1       0.514   5.719  11.192  1.00  0.00     0.148 A 
HETATM    5  C13 UNL     1       1.946   5.728  11.324  1.00  0.00     0.034 A 
HETATM    6  C14 UNL     1       2.585   6.503  12.305  1.00  0.00     0.017 A 
HETATM    7  C15 UNL     1       3.947   6.554  12.465  1.00  0.00     0.001 A 
HETATM    8  C16 UNL     1       4.742   5.818  11.631  1.00  0.00     0.002 A 
HETATM    9  C17 UNL     1       4.149   5.050  10.661  1.00  0.00     0.027 A 
HETATM   10  C18 UNL     1       2.749   5.003  10.505  1.00  0.00     0.094 A 
HETATM   11  N5  UNL     1      -0.335   5.127  10.394  1.00  0.00    -0.268 N 
ATOM     12  H5  UNL     1      -0.061   4.493   9.643  1.00  0.00     0.189 HD
HETATM   13  N6  UNL     1      -1.573   5.441  10.665  1.00  0.00    -0.121 N 
ENDROOT
BRANCH   1  14
HETATM   14  N3  UNL     1      -2.708   6.898  12.346  1.00  0.00    -0.223 N 
ATOM     15  H3  UNL     1      -3.213   7.662  11.896  1.00  0.00     0.177 HD
BRANCH  14  16
HETATM   16  C10 UNL     1      -3.113   6.410  13.620  1.00  0.00     0.158 C 
BRANCH  16  17
HETATM   17  C9  UNL     1      -4.520   5.883  13.644  1.00  0.00     0.153 C 
BRANCH  17  18
HETATM   18  N2  UNL     1      -4.628   4.619  14.324  1.00  0.00    -0.308 N 
HETATM   19  C1  UNL     1      -5.752   4.292  14.948  1.00  0.00     0.261 A 
HETATM   20  O1  UNL     1      -6.738   5.070  14.961  1.00  0.00    -0.267 OA
HETATM   21  C2  UNL     1      -5.867   3.064  15.613  1.00  0.00     0.059 A 
HETATM   22  C3  UNL     1      -7.019   2.701  16.268  1.00  0.00     0.019 A 
HETATM   23  C7  UNL     1      -4.786   2.229  15.591  1.00  0.00     0.048 A 
HETATM   24  C4  UNL     1      -7.083   1.475  16.913  1.00  0.00     0.001 A 
HETATM   25  C5  UNL     1      -6.000   0.614  16.901  1.00  0.00     0.002 A 
HETATM   26  C6  UNL     1      -4.868   1.007  16.240  1.00  0.00     0.030 A 
HETATM   27  N1  UNL     1      -3.634   2.574  14.945  1.00  0.00    -0.351 N 
HETATM   28  C8  UNL     1      -3.601   3.772  14.330  1.00  0.00     0.186 A 
ATOM     29  H1  UNL     1      -2.828   1.949  14.930  1.00  0.00     0.166 HD
ENDBRANCH  17  18
ENDBRANCH  16  17
ENDBRANCH  14  16
ENDBRANCH   1  14
BRANCH  13  30
HETATM   30  C19 UNL     1      -2.788   4.980   9.972  1.00  0.00     0.198 C 
BRANCH  30  31
HETATM   31  C20 UNL     1      -3.570   4.042  10.847  1.00  0.00     0.295 C 
BRANCH  31  32
HETATM   32  N7  UNL     1      -3.287   2.678  10.471  1.00  0.00     0.094 N 
HETATM   33  C21 UNL     1      -4.481   1.849  10.674  1.00  0.00     0.298 C 
HETATM   34  C22 UNL     1      -4.167   0.429  10.364  1.00  0.00     0.198 C 
HETATM   35  O5  UNL     1      -3.054  -0.046  11.059  1.00  0.00    -0.388 OA
HETATM   36  C23 UNL     1      -1.955   0.698  10.670  1.00  0.00     0.198 C 
HETATM   37  C24 UNL     1      -2.171   2.119  11.219  1.00  0.00     0.298 C 
ENDBRANCH  31  32
ENDBRANCH  30  31
ENDBRANCH  13  30
BRANCH  10  38
HETATM   38  S1  UNL     1       2.168   3.986   9.258  1.00  0.00     0.138 S 
HETATM   39  O2  UNL     1       3.338   3.223   8.613  1.00  0.00    -0.591 OA
HETATM   40  O3  UNL     1       1.460   4.666   8.134  1.00  0.00    -0.591 OA
HETATM   41  O4  UNL     1       1.176   2.799   9.909  1.00  0.00    -0.591 OA
ENDBRANCH  10  38
TORSDOF 8
ENDMDL
MODEL 5
REMARK VINA RESULT: -8.687752804      2.580      5.711
REMARK  8 active torsions:
REMARK  status: ('A' for Active; 'I' for Inactive)
REMARK    1  A    between atoms: N2_12  and  C9_13 
REMARK    2  A    between atoms: C9_13  and  C10_14 
REMARK    3  A    between atoms: C10_14  and  N3_15 
REMARK    4  A    between atoms: N3_15  and  C11_17 
REMARK    5  A    between atoms: C18_26  and  S1_27 
REMARK    6  A    between atoms: N6_33  and  C19_34 
REMARK    7  A    between atoms: C19_34  and  C20_35 
REMARK    8  A    between atoms: C20_35  and  N7_36 
ROOT
HETATM    1  C11 UNL     1      -0.561   3.543  11.729  1.00  0.00     0.696 A 
HETATM    2  N4  UNL     1      -1.205   4.391  12.544  1.00  0.00    -0.173 N 
ATOM      3  H4  UNL     1      -1.953   4.131  13.187  1.00  0.00     0.186 HD
HETATM    4  C12 UNL     1      -0.711   5.655  12.386  1.00  0.00     0.148 A 
HETATM    5  C13 UNL     1      -1.236   6.759  13.144  1.00  0.00     0.034 A 
HETATM    6  C14 UNL     1      -2.280   6.582  14.066  1.00  0.00     0.017 A 
HETATM    7  C15 UNL     1      -2.822   7.603  14.805  1.00  0.00     0.001 A 
HETATM    8  C16 UNL     1      -2.333   8.870  14.647  1.00  0.00     0.002 A 
HETATM    9  C17 UNL     1      -1.313   9.077  13.753  1.00  0.00     0.027 A 
HETATM   10  C18 UNL     1      -0.762   8.022  12.999  1.00  0.00     0.094 A 
HETATM   11  N5  UNL     1       0.218   5.520  11.477  1.00  0.00    -0.268 N 
ATOM     12  H5  UNL     1       0.787   6.290  11.127  1.00  0.00     0.189 HD
HETATM   13  N6  UNL     1       0.334   4.285  11.066  1.00  0.00    -0.121 N 
ENDROOT
BRANCH   1  14
HETATM   14  N3  UNL     1      -0.791   2.122  11.603  1.00  0.00    -0.223 N 
ATOM     15  H3  UNL     1      -0.236   1.455  12.139  1.00  0.00     0.177 HD
BRANCH  14  16
HETATM   16  C10 UNL     1      -1.809   1.672  10.714  1.00  0.00     0.158 C 
BRANCH  16  17
HETATM   17  C9  UNL     1      -3.121   1.397  11.392  1.00  0.00     0.153 C 
BRANCH  17  18
HETATM   18  N2  UNL     1      -3.856   2.599  11.690  1.00  0.00    -0.308 N 
HETATM   19  C1  UNL     1      -4.237   2.857  12.933  1.00  0.00     0.261 A 
HETATM   20  O1  UNL     1      -3.969   2.066  13.872  1.00  0.00    -0.267 OA
HETATM   21  C2  UNL     1      -4.953   4.024  13.233  1.00  0.00     0.059 A 
HETATM   22  C3  UNL     1      -5.361   4.314  14.512  1.00  0.00     0.019 A 
HETATM   23  C7  UNL     1      -5.237   4.873  12.201  1.00  0.00     0.048 A 
HETATM   24  C4  UNL     1      -6.068   5.481  14.756  1.00  0.00     0.001 A 
HETATM   25  C5  UNL     1      -6.365   6.356  13.726  1.00  0.00     0.002 A 
HETATM   26  C6  UNL     1      -5.944   6.036  12.464  1.00  0.00     0.030 A 
HETATM   27  N1  UNL     1      -4.840   4.599  10.924  1.00  0.00    -0.351 N 
HETATM   28  C8  UNL     1      -4.156   3.457  10.716  1.00  0.00     0.186 A 
ATOM     29  H1  UNL     1      -5.052   5.235  10.156  1.00  0.00     0.166 HD
ENDBRANCH  17  18
ENDBRANCH  16  17
ENDBRANCH  14  16
ENDBRANCH   1  14
BRANCH  13  30
HETATM   30  C19 UNL     1       1.259   3.762  10.046  1.00  0.00     0.198 C 
BRANCH  30  31
HETATM   31  C20 UNL     1       1.604   4.831   9.048  1.00  0.00     0.295 C 
BRANCH  31  32
HETATM   32  N7  UNL     1       3.034   4.887   8.870  1.00  0.00     0.094 N 
HETATM   33  C21 UNL     1       3.495   3.682   8.169  1.00  0.00     0.298 C 
HETATM   34  C22 UNL     1       4.977   3.701   8.056  1.00  0.00     0.198 C 
HETATM   35  O5  UNL     1       5.613   3.889   9.284  1.00  0.00    -0.388 OA
HETATM   36  C23 UNL     1       5.237   5.125   9.778  1.00  0.00     0.198 C 
HETATM   37  C24 UNL     1       3.743   5.019  10.133  1.00  0.00     0.298 C 
ENDBRANCH  31  32
ENDBRANCH  30  31
ENDBRANCH  13  30
BRANCH  10  38
HETATM   38  S1  UNL     1       0.514   8.445  11.940  1.00  0.00     0.138 S 
HETATM   39  O2  UNL     1       0.835   9.943  12.075  1.00  0.00    -0.591 OA
HETATM   40  O3  UNL     1       0.264   8.213  10.487  1.00  0.00    -0.591 OA
HETATM   41  O4  UNL     1       1.920   7.652  12.399  1.00  0.00    -0.591 OA
ENDBRANCH  10  38
TORSDOF 8
ENDMDL
