MODEL 1
REMARK VINA RESULT: -6.258746518      0.000      0.000
REMARK  5 active torsions:
REMARK  status: ('A' for Active; 'I' for Inactive)
REMARK    1  A    between atoms: C2_2  and  N1_3 
REMARK    2  A    between atoms: N1_3  and  C3_5 
REMARK    3  A    between atoms: C4_8  and  N3_9 
REMARK    4  A    between atoms: C6_14  and  N5_15 
REMARK    5  A    between atoms: N5_15  and  N6_17 
ROOT
HETATM    1  C3  UNL     1     -24.597 -26.774  -0.391  1.00  0.00     0.707 A 
HETATM    2  N2  UNL     1     -25.191 -26.608  -1.586  1.00  0.00    -0.022 N 
ATOM      3  H2  UNL     1     -26.173 -26.336  -1.618  1.00  0.00     0.203 HD
HETATM    4  C4  UNL     1     -24.522 -26.793  -2.751  1.00  0.00     0.706 A 
HETATM    5  N4  UNL     1     -23.230 -27.151  -2.632  1.00  0.00    -0.020 N 
ATOM      6  H4  UNL     1     -22.691 -27.300  -3.485  1.00  0.00     0.203 HD
HETATM    7  C6  UNL     1     -22.611 -27.324  -1.450  1.00  0.00     0.725 A 
HETATM    8  N7  UNL     1     -23.304 -27.132  -0.321  1.00  0.00    -0.020 N 
ATOM      9  H7  UNL     1     -22.854 -27.256   0.586  1.00  0.00     0.203 HD
ENDROOT
BRANCH   7  10
HETATM   10  N5  UNL     1     -21.357 -27.671  -1.380  1.00  0.00    -0.138 N 
ATOM     11  H5  UNL     1     -20.720 -27.330  -2.101  1.00  0.00     0.205 HD
BRANCH  10  12
HETATM   12  N6  UNL     1     -20.844 -28.474  -0.387  1.00  0.00    -0.331 N 
ATOM     13  H62 UNL     1     -21.329 -29.352  -0.201  1.00  0.00     0.177 HD
ATOM     14  H61 UNL     1     -20.018 -28.235   0.161  1.00  0.00     0.177 HD
ENDBRANCH  10  12
ENDBRANCH   7  10
BRANCH   4  15
HETATM   15  N3  UNL     1     -25.071 -26.640  -3.898  1.00  0.00    -0.229 N 
HETATM   16  C5  UNL     1     -25.865 -25.482  -4.229  1.00  0.00     0.165 C 
ATOM     17  H3  UNL     1     -24.943 -27.365  -4.603  1.00  0.00     0.177 HD
ENDBRANCH   4  15
BRANCH   1  18
HETATM   18  N1  UNL     1     -25.250 -26.593   0.700  1.00  0.00    -0.225 N 
ATOM     19  H1  UNL     1     -25.851 -25.778   0.818  1.00  0.00     0.177 HD
BRANCH  18  20
HETATM   20  C2  UNL     1     -25.116 -27.567   1.755  1.00  0.00     0.133 C 
HETATM   21  C1  UNL     1     -26.104 -28.683   1.466  1.00  0.00     0.027 C 
ENDBRANCH  18  20
ENDBRANCH   1  18
TORSDOF 5
ENDMDL
MODEL 2
REMARK VINA RESULT: -6.236377404      0.683      3.920
REMARK  5 active torsions:
REMARK  status: ('A' for Active; 'I' for Inactive)
REMARK    1  A    between atoms: C2_2  and  N1_3 
REMARK    2  A    between atoms: N1_3  and  C3_5 
REMARK    3  A    between atoms: C4_8  and  N3_9 
REMARK    4  A    between atoms: C6_14  and  N5_15 
REMARK    5  A    between atoms: N5_15  and  N6_17 
ROOT
HETATM    1  C3  UNL     1     -24.490 -27.083  -2.251  1.00  0.00     0.707 A 
HETATM    2  N2  UNL     1     -25.286 -27.135  -1.168  1.00  0.00    -0.022 N 
ATOM      3  H2  UNL     1     -26.297 -27.093  -1.295  1.00  0.00     0.203 HD
HETATM    4  C4  UNL     1     -24.784 -27.243   0.086  1.00  0.00     0.706 A 
HETATM    5  N4  UNL     1     -23.442 -27.294   0.177  1.00  0.00    -0.020 N 
ATOM      6  H4  UNL     1     -23.025 -27.375   1.103  1.00  0.00     0.203 HD
HETATM    7  C6  UNL     1     -22.622 -27.243  -0.888  1.00  0.00     0.725 A 
HETATM    8  N7  UNL     1     -23.154 -27.137  -2.113  1.00  0.00    -0.020 N 
ATOM      9  H7  UNL     1     -22.551 -27.098  -2.934  1.00  0.00     0.203 HD
ENDROOT
BRANCH   7  10
HETATM   10  N5  UNL     1     -21.326 -27.296  -0.756  1.00  0.00    -0.138 N 
ATOM     11  H5  UNL     1     -20.786 -26.455  -0.960  1.00  0.00     0.205 HD
BRANCH  10  12
HETATM   12  N6  UNL     1     -20.648 -28.424  -0.357  1.00  0.00    -0.331 N 
ATOM     13  H62 UNL     1     -20.964 -28.879   0.500  1.00  0.00     0.177 HD
ATOM     14  H61 UNL     1     -19.858 -28.819  -0.869  1.00  0.00     0.177 HD
ENDBRANCH  10  12
ENDBRANCH   7  10
BRANCH   4  15
HETATM   15  N3  UNL     1     -25.527 -27.294   1.128  1.00  0.00    -0.229 N 
HETATM   16  C5  UNL     1     -25.994 -28.538   1.687  1.00  0.00     0.165 C 
ATOM     17  H3  UNL     1     -25.800 -26.421   1.580  1.00  0.00     0.177 HD
ENDBRANCH   4  15
BRANCH   1  18
HETATM   18  N1  UNL     1     -24.987 -26.981  -3.431  1.00  0.00    -0.225 N 
ATOM     19  H1  UNL     1     -24.761 -27.666  -4.151  1.00  0.00     0.177 HD
BRANCH  18  20
HETATM   20  C2  UNL     1     -25.871 -25.878  -3.715  1.00  0.00     0.133 C 
HETATM   21  C1  UNL     1     -25.513 -25.359  -5.096  1.00  0.00     0.027 C 
ENDBRANCH  18  20
ENDBRANCH   1  18
TORSDOF 5
ENDMDL
MODEL 3
REMARK VINA RESULT: -6.174246953      1.145      3.898
REMARK  5 active torsions:
REMARK  status: ('A' for Active; 'I' for Inactive)
REMARK    1  A    between atoms: C2_2  and  N1_3 
REMARK    2  A    between atoms: N1_3  and  C3_5 
REMARK    3  A    between atoms: C4_8  and  N3_9 
REMARK    4  A    between atoms: C6_14  and  N5_15 
REMARK    5  A    between atoms: N5_15  and  N6_17 
ROOT
HETATM    1  C3  UNL     1     -24.673 -26.782  -1.368  1.00  0.00     0.707 A 
HETATM    2  N2  UNL     1     -25.265 -27.215  -0.240  1.00  0.00    -0.022 N 
ATOM      3  H2  UNL     1     -26.186 -26.852   0.005  1.00  0.00     0.203 HD
HETATM    4  C4  UNL     1     -24.674 -28.118   0.579  1.00  0.00     0.706 A 
HETATM    5  N4  UNL     1     -23.461 -28.553   0.192  1.00  0.00    -0.020 N 
ATOM      6  H4  UNL     1     -22.982 -29.233   0.782  1.00  0.00     0.203 HD
HETATM    7  C6  UNL     1     -22.844 -28.138  -0.930  1.00  0.00     0.725 A 
HETATM    8  N7  UNL     1     -23.459 -27.245  -1.715  1.00  0.00    -0.020 N 
ATOM      9  H7  UNL     1     -23.011 -26.917  -2.571  1.00  0.00     0.203 HD
ENDROOT
BRANCH   7  10
HETATM   10  N5  UNL     1     -21.668 -28.585  -1.268  1.00  0.00    -0.138 N 
ATOM     11  H5  UNL     1     -21.570 -29.051  -2.169  1.00  0.00     0.205 HD
BRANCH  10  12
HETATM   12  N6  UNL     1     -20.550 -28.461  -0.474  1.00  0.00    -0.331 N 
ATOM     13  H62 UNL     1     -19.990 -29.300  -0.324  1.00  0.00     0.177 HD
ATOM     14  H61 UNL     1     -20.262 -27.585  -0.039  1.00  0.00     0.177 HD
ENDBRANCH  10  12
ENDBRANCH   7  10
BRANCH   4  15
HETATM   15  N3  UNL     1     -25.224 -28.540   1.657  1.00  0.00    -0.229 N 
HETATM   16  C5  UNL     1     -26.359 -29.429   1.651  1.00  0.00     0.165 C 
ATOM     17  H3  UNL     1     -24.844 -28.236   2.553  1.00  0.00     0.177 HD
ENDBRANCH   4  15
BRANCH   1  18
HETATM   18  N1  UNL     1     -25.251 -25.926  -2.130  1.00  0.00    -0.225 N 
ATOM     19  H1  UNL     1     -25.404 -24.968  -1.815  1.00  0.00     0.177 HD
BRANCH  18  20
HETATM   20  C2  UNL     1     -25.679 -26.346  -3.442  1.00  0.00     0.133 C 
HETATM   21  C1  UNL     1     -26.019 -25.092  -4.228  1.00  0.00     0.027 C 
ENDBRANCH  18  20
ENDBRANCH   1  18
TORSDOF 5
ENDMDL
MODEL 4
REMARK VINA RESULT: -6.080759054      1.080      3.934
REMARK  5 active torsions:
REMARK  status: ('A' for Active; 'I' for Inactive)
REMARK    1  A    between atoms: C2_2  and  N1_3 
REMARK    2  A    between atoms: N1_3  and  C3_5 
REMARK    3  A    between atoms: C4_8  and  N3_9 
REMARK    4  A    between atoms: C6_14  and  N5_15 
REMARK    5  A    between atoms: N5_15  and  N6_17 
ROOT
HETATM    1  C3  UNL     1     -24.508 -27.010  -2.693  1.00  0.00     0.707 A 
HETATM    2  N2  UNL     1     -25.205 -26.776  -1.567  1.00  0.00    -0.022 N 
ATOM      3  H2  UNL     1     -26.200 -26.563  -1.636  1.00  0.00     0.203 HD
HETATM    4  C4  UNL     1     -24.624 -26.815  -0.343  1.00  0.00     0.706 A 
HETATM    5  N4  UNL     1     -23.309 -27.102  -0.329  1.00  0.00    -0.020 N 
ATOM      6  H4  UNL     1     -22.835 -27.141   0.573  1.00  0.00     0.203 HD
HETATM    7  C6  UNL     1     -22.587 -27.340  -1.439  1.00  0.00     0.725 A 
HETATM    8  N7  UNL     1     -23.196 -27.293  -2.631  1.00  0.00    -0.020 N 
ATOM      9  H7  UNL     1     -22.668 -27.471  -3.485  1.00  0.00     0.203 HD
ENDROOT
BRANCH   7  10
HETATM   10  N5  UNL     1     -21.315 -27.615  -1.380  1.00  0.00    -0.138 N 
ATOM     11  H5  UNL     1     -20.700 -27.207  -2.084  1.00  0.00     0.205 HD
BRANCH  10  12
HETATM   12  N6  UNL     1     -20.755 -28.426  -0.420  1.00  0.00    -0.331 N 
ATOM     13  H62 UNL     1     -19.886 -28.108   0.010  1.00  0.00     0.177 HD
ATOM     14  H61 UNL     1     -21.162 -29.313  -0.124  1.00  0.00     0.177 HD
ENDBRANCH  10  12
ENDBRANCH   7  10
BRANCH   4  15
HETATM   15  N3  UNL     1     -25.273 -26.595   0.740  1.00  0.00    -0.229 N 
HETATM   16  C5  UNL     1     -25.599 -27.643   1.675  1.00  0.00     0.165 C 
ATOM     17  H3  UNL     1     -25.570 -25.641   0.948  1.00  0.00     0.177 HD
ENDBRANCH   4  15
BRANCH   1  18
HETATM   18  N1  UNL     1     -25.079 -26.968  -3.843  1.00  0.00    -0.225 N 
ATOM     19  H1  UNL     1     -25.391 -26.080  -4.237  1.00  0.00     0.177 HD
BRANCH  18  20
HETATM   20  C2  UNL     1     -25.269 -28.202  -4.566  1.00  0.00     0.133 C 
HETATM   21  C1  UNL     1     -25.539 -27.837  -6.014  1.00  0.00     0.027 C 
ENDBRANCH  18  20
ENDBRANCH   1  18
TORSDOF 5
ENDMDL
MODEL 5
REMARK VINA RESULT: -5.979864103      1.709      4.302
REMARK  5 active torsions:
REMARK  status: ('A' for Active; 'I' for Inactive)
REMARK    1  A    between atoms: C2_2  and  N1_3 
REMARK    2  A    between atoms: N1_3  and  C3_5 
REMARK    3  A    between atoms: C4_8  and  N3_9 
REMARK    4  A    between atoms: C6_14  and  N5_15 
REMARK    5  A    between atoms: N5_15  and  N6_17 
ROOT
HETATM    1  C3  UNL     1     -24.821 -26.813  -1.813  1.00  0.00     0.707 A 
HETATM    2  N2  UNL     1     -24.775 -26.699  -0.473  1.00  0.00    -0.022 N 
ATOM      3  H2  UNL     1     -25.258 -25.919  -0.026  1.00  0.00     0.203 HD
HETATM    4  C4  UNL     1     -24.108 -27.589   0.300  1.00  0.00     0.706 A 
HETATM    5  N4  UNL     1     -23.495 -28.591  -0.358  1.00  0.00    -0.020 N 
ATOM      6  H4  UNL     1     -22.981 -29.282   0.188  1.00  0.00     0.203 HD
HETATM    7  C6  UNL     1     -23.523 -28.730  -1.695  1.00  0.00     0.725 A 
HETATM    8  N7  UNL     1     -24.194 -27.831  -2.427  1.00  0.00    -0.020 N 
ATOM      9  H7  UNL     1     -24.229 -27.917  -3.443  1.00  0.00     0.203 HD
ENDROOT
BRANCH   7  10
HETATM   10  N5  UNL     1     -22.916 -29.716  -2.293  1.00  0.00    -0.138 N 
ATOM     11  H5  UNL     1     -22.024 -30.034  -1.914  1.00  0.00     0.205 HD
BRANCH  10  12
HETATM   12  N6  UNL     1     -23.413 -30.352  -3.407  1.00  0.00    -0.331 N 
ATOM     13  H62 UNL     1     -23.892 -31.241  -3.262  1.00  0.00     0.177 HD
ATOM     14  H61 UNL     1     -23.325 -29.982  -4.354  1.00  0.00     0.177 HD
ENDBRANCH  10  12
ENDBRANCH   7  10
BRANCH   4  15
HETATM   15  N3  UNL     1     -24.054 -27.495   1.577  1.00  0.00    -0.229 N 
HETATM   16  C5  UNL     1     -23.576 -28.568   2.413  1.00  0.00     0.165 C 
ATOM     17  H3  UNL     1     -24.360 -26.628   2.019  1.00  0.00     0.177 HD
ENDBRANCH   4  15
BRANCH   1  18
HETATM   18  N1  UNL     1     -25.460 -25.958  -2.526  1.00  0.00    -0.225 N 
ATOM     19  H1  UNL     1     -25.521 -24.982  -2.238  1.00  0.00     0.177 HD
BRANCH  18  20
HETATM   20  C2  UNL     1     -26.089 -26.407  -3.744  1.00  0.00     0.133 C 
HETATM   21  C1  UNL     1     -25.616 -25.491  -4.859  1.00  0.00     0.027 C 
ENDBRANCH  18  20
ENDBRANCH   1  18
TORSDOF 5
ENDMDL
