MODEL 1
REMARK VINA RESULT: -8.956052261      0.000      0.000
REMARK  5 active torsions:
REMARK  status: ('A' for Active; 'I' for Inactive)
REMARK    1  A    between atoms: C3_5  and  N2_6 
REMARK    2  A    between atoms: N2_6  and  C4_8 
REMARK    3  A    between atoms: C4_8  and  C5_9 
REMARK    4  A    between atoms: C5_9  and  C6_10 
REMARK    5  A    between atoms: C6_10  and  N3_11 
ROOT
HETATM    1  N1  UNL     1      23.918  43.254  53.696  1.00  0.00    -0.098 NA
HETATM    2  C1  UNL     1      22.759  43.929  54.133  1.00  0.00     0.101 A 
HETATM    3  C2  UNL     1      21.551  43.638  53.532  1.00  0.00     0.184 A 
HETATM    4  F1  UNL     1      21.466  42.716  52.533  1.00  0.00    -0.200 F 
HETATM    5  C3  UNL     1      20.392  44.297  53.949  1.00  0.00     0.143 A 
HETATM    6  N4  UNL     1      20.540  45.197  54.938  1.00  0.00    -0.339 N 
ATOM      7  H4  UNL     1      19.706  45.689  55.258  1.00  0.00     0.167 HD
HETATM    8  C12 UNL     1      21.703  45.493  55.534  1.00  0.00     0.047 A 
HETATM    9  C13 UNL     1      21.803  46.428  56.550  1.00  0.00     0.056 A 
HETATM   10  C14 UNL     1      23.020  46.716  57.151  1.00  0.00     0.058 A 
HETATM   11 CL1  UNL     1      23.105  47.910  58.439  1.00  0.00    -0.082 Cl
HETATM   12  C15 UNL     1      24.179  46.077  56.755  1.00  0.00     0.056 A 
HETATM   13 CL2  UNL     1      25.675  46.484  57.550  1.00  0.00    -0.083 Cl
HETATM   14  C16 UNL     1      24.085  45.151  55.749  1.00  0.00     0.041 A 
HETATM   15  C17 UNL     1      22.867  44.867  55.153  1.00  0.00     0.020 A 
ENDROOT
BRANCH   5  16
HETATM   16  N2  UNL     1      19.157  43.989  53.332  1.00  0.00    -0.374 N 
ATOM     17  H2  UNL     1      18.822  44.610  52.595  1.00  0.00     0.161 HD
BRANCH  16  18
HETATM   18  C4  UNL     1      18.348  42.860  53.678  1.00  0.00     0.122 C 
BRANCH  18  19
HETATM   19  C5  UNL     1      17.518  42.384  52.517  1.00  0.00     0.036 C 
BRANCH  19  20
HETATM   20  C6  UNL     1      18.403  41.808  51.422  1.00  0.00     0.122 C 
BRANCH  20  21
HETATM   21  N3  UNL     1      17.643  40.892  50.634  1.00  0.00    -0.192 NA
HETATM   22  O1  UNL     1      16.724  40.205  51.323  1.00  0.00    -0.298 OA
HETATM   23  C7  UNL     1      16.824  38.867  50.988  1.00  0.00     0.147 C 
HETATM   24  C8  UNL     1      16.421  38.715  49.537  1.00  0.00     0.035 C 
HETATM   25  C11 UNL     1      18.354  38.755  50.814  1.00  0.00     0.056 C 
HETATM   26  C9  UNL     1      17.498  39.445  48.757  1.00  0.00     0.024 C 
HETATM   27  C10 UNL     1      18.400  39.963  49.854  1.00  0.00     0.088 C 
ENDBRANCH  20  21
ENDBRANCH  19  20
ENDBRANCH  18  19
ENDBRANCH  16  18
ENDBRANCH   5  16
TORSDOF 5
ENDMDL
MODEL 2
REMARK VINA RESULT: -8.764966132      1.557      1.837
REMARK  5 active torsions:
REMARK  status: ('A' for Active; 'I' for Inactive)
REMARK    1  A    between atoms: C3_5  and  N2_6 
REMARK    2  A    between atoms: N2_6  and  C4_8 
REMARK    3  A    between atoms: C4_8  and  C5_9 
REMARK    4  A    between atoms: C5_9  and  C6_10 
REMARK    5  A    between atoms: C6_10  and  N3_11 
ROOT
HETATM    1  N1  UNL     1      24.441  44.009  54.788  1.00  0.00    -0.098 NA
HETATM    2  C1  UNL     1      23.121  44.344  55.155  1.00  0.00     0.101 A 
HETATM    3  C2  UNL     1      22.116  44.219  54.218  1.00  0.00     0.184 A 
HETATM    4  F1  UNL     1      22.380  43.779  52.956  1.00  0.00    -0.200 F 
HETATM    5  C3  UNL     1      20.802  44.546  54.561  1.00  0.00     0.143 A 
HETATM    6  N4  UNL     1      20.603  44.976  55.821  1.00  0.00    -0.339 N 
ATOM      7  H4  UNL     1      19.651  45.221  56.092  1.00  0.00     0.167 HD
HETATM    8  C12 UNL     1      21.565  45.105  56.744  1.00  0.00     0.047 A 
HETATM    9  C13 UNL     1      21.309  45.551  58.030  1.00  0.00     0.056 A 
HETATM   10  C14 UNL     1      22.323  45.675  58.968  1.00  0.00     0.058 A 
HETATM   11 CL1  UNL     1      21.957  46.245  60.591  1.00  0.00    -0.082 Cl
HETATM   12  C15 UNL     1      23.630  45.356  58.651  1.00  0.00     0.056 A 
HETATM   13 CL2  UNL     1      24.857  45.534  59.875  1.00  0.00    -0.083 Cl
HETATM   14  C16 UNL     1      23.888  44.914  57.380  1.00  0.00     0.041 A 
HETATM   15  C17 UNL     1      22.871  44.792  56.447  1.00  0.00     0.020 A 
ENDROOT
BRANCH   5  16
HETATM   16  N2  UNL     1      19.776  44.410  53.596  1.00  0.00    -0.374 N 
ATOM     17  H2  UNL     1      19.747  45.081  52.829  1.00  0.00     0.161 HD
BRANCH  16  18
HETATM   18  C4  UNL     1      18.775  43.386  53.631  1.00  0.00     0.122 C 
BRANCH  18  19
HETATM   19  C5  UNL     1      19.356  42.022  53.374  1.00  0.00     0.036 C 
BRANCH  19  20
HETATM   20  C6  UNL     1      19.491  41.765  51.881  1.00  0.00     0.122 C 
BRANCH  20  21
HETATM   21  N3  UNL     1      18.897  40.507  51.563  1.00  0.00    -0.192 NA
HETATM   22  O1  UNL     1      19.314  39.978  50.407  1.00  0.00    -0.298 OA
HETATM   23  C7  UNL     1      18.211  39.558  49.684  1.00  0.00     0.147 C 
HETATM   24  C8  UNL     1      17.571  38.409  50.433  1.00  0.00     0.035 C 
HETATM   25  C11 UNL     1      17.209  40.668  50.069  1.00  0.00     0.056 C 
HETATM   26  C9  UNL     1      17.048  39.025  51.716  1.00  0.00     0.024 C 
HETATM   27  C10 UNL     1      17.467  40.471  51.577  1.00  0.00     0.088 C 
ENDBRANCH  20  21
ENDBRANCH  19  20
ENDBRANCH  18  19
ENDBRANCH  16  18
ENDBRANCH   5  16
TORSDOF 5
ENDMDL
MODEL 3
REMARK VINA RESULT: -8.760428869      0.925      1.257
REMARK  5 active torsions:
REMARK  status: ('A' for Active; 'I' for Inactive)
REMARK    1  A    between atoms: C3_5  and  N2_6 
REMARK    2  A    between atoms: N2_6  and  C4_8 
REMARK    3  A    between atoms: C4_8  and  C5_9 
REMARK    4  A    between atoms: C5_9  and  C6_10 
REMARK    5  A    between atoms: C6_10  and  N3_11 
ROOT
HETATM    1  N1  UNL     1      24.320  43.624  54.135  1.00  0.00    -0.098 NA
HETATM    2  C1  UNL     1      23.108  44.238  54.514  1.00  0.00     0.101 A 
HETATM    3  C2  UNL     1      21.955  43.919  53.826  1.00  0.00     0.184 A 
HETATM    4  F1  UNL     1      21.972  43.026  52.797  1.00  0.00    -0.200 F 
HETATM    5  C3  UNL     1      20.744  44.517  54.186  1.00  0.00     0.143 A 
HETATM    6  N4  UNL     1      20.790  45.390  55.209  1.00  0.00    -0.339 N 
ATOM      7  H4  UNL     1      19.918  45.838  55.488  1.00  0.00     0.167 HD
HETATM    8  C12 UNL     1      21.899  45.713  55.888  1.00  0.00     0.047 A 
HETATM    9  C13 UNL     1      21.894  46.618  56.936  1.00  0.00     0.056 A 
HETATM   10  C14 UNL     1      23.056  46.935  57.624  1.00  0.00     0.058 A 
HETATM   11 CL1  UNL     1      23.008  48.090  58.949  1.00  0.00    -0.082 Cl
HETATM   12  C15 UNL     1      24.265  46.356  57.286  1.00  0.00     0.056 A 
HETATM   13 CL2  UNL     1      25.687  46.797  58.190  1.00  0.00    -0.083 Cl
HETATM   14  C16 UNL     1      24.274  45.459  56.249  1.00  0.00     0.041 A 
HETATM   15  C17 UNL     1      23.110  45.146  55.566  1.00  0.00     0.020 A 
ENDROOT
BRANCH   5  16
HETATM   16  N2  UNL     1      19.565  44.180  53.480  1.00  0.00    -0.374 N 
ATOM     17  H2  UNL     1      19.375  44.668  52.605  1.00  0.00     0.161 HD
BRANCH  16  18
HETATM   18  C4  UNL     1      18.622  43.196  53.919  1.00  0.00     0.122 C 
BRANCH  18  19
HETATM   19  C5  UNL     1      18.039  42.422  52.768  1.00  0.00     0.036 C 
BRANCH  19  20
HETATM   20  C6  UNL     1      19.129  41.685  52.006  1.00  0.00     0.122 C 
BRANCH  20  21
HETATM   21  N3  UNL     1      18.648  40.397  51.621  1.00  0.00    -0.192 NA
HETATM   22  O1  UNL     1      19.256  39.882  50.546  1.00  0.00    -0.298 OA
HETATM   23  C7  UNL     1      18.293  39.404  49.675  1.00  0.00     0.147 C 
HETATM   24  C8  UNL     1      17.604  38.230  50.337  1.00  0.00     0.035 C 
HETATM   25  C11 UNL     1      17.195  40.467  49.893  1.00  0.00     0.056 C 
HETATM   26  C9  UNL     1      16.868  38.829  51.521  1.00  0.00     0.024 C 
HETATM   27  C10 UNL     1      17.236  40.292  51.425  1.00  0.00     0.088 C 
ENDBRANCH  20  21
ENDBRANCH  19  20
ENDBRANCH  18  19
ENDBRANCH  16  18
ENDBRANCH   5  16
TORSDOF 5
ENDMDL
MODEL 4
REMARK VINA RESULT: -8.618307677      1.339      1.617
REMARK  5 active torsions:
REMARK  status: ('A' for Active; 'I' for Inactive)
REMARK    1  A    between atoms: C3_5  and  N2_6 
REMARK    2  A    between atoms: N2_6  and  C4_8 
REMARK    3  A    between atoms: C4_8  and  C5_9 
REMARK    4  A    between atoms: C5_9  and  C6_10 
REMARK    5  A    between atoms: C6_10  and  N3_11 
ROOT
HETATM    1  N1  UNL     1      24.203  43.613  53.349  1.00  0.00    -0.098 NA
HETATM    2  C1  UNL     1      23.126  43.991  54.177  1.00  0.00     0.101 A 
HETATM    3  C2  UNL     1      21.848  43.978  53.657  1.00  0.00     0.184 A 
HETATM    4  F1  UNL     1      21.616  43.605  52.367  1.00  0.00    -0.200 F 
HETATM    5  C3  UNL     1      20.768  44.350  54.461  1.00  0.00     0.143 A 
HETATM    6  N4  UNL     1      21.060  44.708  55.725  1.00  0.00    -0.339 N 
ATOM      7  H4  UNL     1      20.286  44.984  56.329  1.00  0.00     0.167 HD
HETATM    8  C12 UNL     1      22.293  44.728  56.248  1.00  0.00     0.047 A 
HETATM    9  C13 UNL     1      22.542  45.104  57.557  1.00  0.00     0.056 A 
HETATM   10  C14 UNL     1      23.829  45.116  58.074  1.00  0.00     0.058 A 
HETATM   11 CL1  UNL     1      24.103  45.600  59.743  1.00  0.00    -0.082 Cl
HETATM   12  C15 UNL     1      24.912  44.751  57.298  1.00  0.00     0.056 A 
HETATM   13 CL2  UNL     1      26.502  44.787  58.008  1.00  0.00    -0.083 Cl
HETATM   14  C16 UNL     1      24.670  44.378  56.001  1.00  0.00     0.041 A 
HETATM   15  C17 UNL     1      23.383  44.368  55.490  1.00  0.00     0.020 A 
ENDROOT
BRANCH   5  16
HETATM   16  N2  UNL     1      19.460  44.328  53.922  1.00  0.00    -0.374 N 
ATOM     17  H2  UNL     1      19.152  45.134  53.378  1.00  0.00     0.161 HD
BRANCH  16  18
HETATM   18  C4  UNL     1      18.541  43.244  54.095  1.00  0.00     0.122 C 
BRANCH  18  19
HETATM   19  C5  UNL     1      18.107  42.658  52.778  1.00  0.00     0.036 C 
BRANCH  19  20
HETATM   20  C6  UNL     1      19.197  41.769  52.198  1.00  0.00     0.122 C 
BRANCH  20  21
HETATM   21  N3  UNL     1      18.635  40.509  51.835  1.00  0.00    -0.192 NA
HETATM   22  O1  UNL     1      19.226  39.925  50.787  1.00  0.00    -0.298 OA
HETATM   23  C7  UNL     1      18.249  39.493  49.907  1.00  0.00     0.147 C 
HETATM   24  C8  UNL     1      17.467  38.387  50.582  1.00  0.00     0.035 C 
HETATM   25  C11 UNL     1      17.224  40.635  50.075  1.00  0.00     0.056 C 
HETATM   26  C9  UNL     1      16.752  39.066  51.735  1.00  0.00     0.024 C 
HETATM   27  C10 UNL     1      17.222  40.498  51.612  1.00  0.00     0.088 C 
ENDBRANCH  20  21
ENDBRANCH  19  20
ENDBRANCH  18  19
ENDBRANCH  16  18
ENDBRANCH   5  16
TORSDOF 5
ENDMDL
MODEL 5
REMARK VINA RESULT: -8.506308112      2.204      3.079
REMARK  5 active torsions:
REMARK  status: ('A' for Active; 'I' for Inactive)
REMARK    1  A    between atoms: C3_5  and  N2_6 
REMARK    2  A    between atoms: N2_6  and  C4_8 
REMARK    3  A    between atoms: C4_8  and  C5_9 
REMARK    4  A    between atoms: C5_9  and  C6_10 
REMARK    5  A    between atoms: C6_10  and  N3_11 
ROOT
HETATM    1  N1  UNL     1      22.656  45.389  57.513  1.00  0.00    -0.098 NA
HETATM    2  C1  UNL     1      22.500  44.719  56.282  1.00  0.00     0.101 A 
HETATM    3  C2  UNL     1      21.318  44.053  56.030  1.00  0.00     0.184 A 
HETATM    4  F1  UNL     1      20.310  44.037  56.946  1.00  0.00    -0.200 F 
HETATM    5  C3  UNL     1      21.144  43.382  54.817  1.00  0.00     0.143 A 
HETATM    6  N4  UNL     1      22.175  43.432  53.954  1.00  0.00    -0.339 N 
ATOM      7  H4  UNL     1      22.069  42.949  53.062  1.00  0.00     0.167 HD
HETATM    8  C12 UNL     1      23.330  44.072  54.179  1.00  0.00     0.047 A 
HETATM    9  C13 UNL     1      24.362  44.096  53.257  1.00  0.00     0.056 A 
HETATM   10  C14 UNL     1      25.548  44.767  53.515  1.00  0.00     0.058 A 
HETATM   11 CL1  UNL     1      26.835  44.773  52.316  1.00  0.00    -0.082 Cl
HETATM   12  C15 UNL     1      25.742  45.438  54.707  1.00  0.00     0.056 A 
HETATM   13 CL2  UNL     1      27.255  46.261  54.969  1.00  0.00    -0.083 Cl
HETATM   14  C16 UNL     1      24.723  45.417  55.624  1.00  0.00     0.041 A 
HETATM   15  C17 UNL     1      23.541  44.745  55.360  1.00  0.00     0.020 A 
ENDROOT
BRANCH   5  16
HETATM   16  N2  UNL     1      19.927  42.706  54.564  1.00  0.00    -0.374 N 
ATOM     17  H2  UNL     1      19.893  41.701  54.732  1.00  0.00     0.161 HD
BRANCH  16  18
HETATM   18  C4  UNL     1      18.739  43.349  54.088  1.00  0.00     0.122 C 
BRANCH  18  19
HETATM   19  C5  UNL     1      18.135  42.620  52.918  1.00  0.00     0.036 C 
BRANCH  19  20
HETATM   20  C6  UNL     1      19.212  41.907  52.113  1.00  0.00     0.122 C 
BRANCH  20  21
HETATM   21  N3  UNL     1      18.745  40.609  51.747  1.00  0.00    -0.192 NA
HETATM   22  O1  UNL     1      19.326  40.105  50.653  1.00  0.00    -0.298 OA
HETATM   23  C7  UNL     1      18.344  39.605  49.816  1.00  0.00     0.147 C 
HETATM   24  C8  UNL     1      17.704  38.418  50.502  1.00  0.00     0.035 C 
HETATM   25  C11 UNL     1      17.232  40.644  50.070  1.00  0.00     0.056 C 
HETATM   26  C9  UNL     1      16.996  39.003  51.710  1.00  0.00     0.024 C 
HETATM   27  C10 UNL     1      17.329  40.474  51.600  1.00  0.00     0.088 C 
ENDBRANCH  20  21
ENDBRANCH  19  20
ENDBRANCH  18  19
ENDBRANCH  16  18
ENDBRANCH   5  16
TORSDOF 5
ENDMDL
