MODEL 1
REMARK VINA RESULT: -6.336038033      0.000      0.000
REMARK  9 active torsions:
REMARK  status: ('A' for Active; 'I' for Inactive)
REMARK    1  A    between atoms: C3_3  and  C4_4 
REMARK    2  A    between atoms: C4_4  and  N1_5 
REMARK    3  A    between atoms: N1_5  and  C5_7 
REMARK    4  A    between atoms: C6_10  and  N3_11 
REMARK    5  A    between atoms: C7_16  and  N5_17 
REMARK    6  A    between atoms: N5_17  and  C8_19 
REMARK    7  A    between atoms: C8_19  and  C9_20 
REMARK    8  A    between atoms: C9_20  and  C10_21 
REMARK    9  A    between atoms: C10_21  and  O1_22 
ROOT
HETATM    1  C1  UNL     1     -34.027  32.576 -10.981  1.00  0.00     0.012 C 
HETATM    2  C2  UNL     1     -33.401  32.154 -11.937  1.00  0.00    -0.116 C 
HETATM    3  C3  UNL     1     -32.650  31.668 -13.098  1.00  0.00     0.113 C 
ENDROOT
BRANCH   3   4
HETATM    4  C4  UNL     1     -31.166  31.679 -12.776  1.00  0.00     0.150 C 
BRANCH   4   5
HETATM    5  N1  UNL     1     -30.441  31.028 -13.834  1.00  0.00    -0.224 N 
ATOM      6  H1  UNL     1     -30.838  30.963 -14.772  1.00  0.00     0.177 HD
BRANCH   5   7
HETATM    7  C5  UNL     1     -29.267  30.521 -13.573  1.00  0.00     0.707 A 
HETATM    8  N2  UNL     1     -29.144  29.287 -13.053  1.00  0.00    -0.022 N 
HETATM    9  C6  UNL     1     -27.933  28.764 -12.784  1.00  0.00     0.705 A 
ATOM     10  H2  UNL     1     -29.981  28.737 -12.860  1.00  0.00     0.203 HD
HETATM   11  N4  UNL     1     -26.834  29.493 -13.040  1.00  0.00    -0.022 N 
HETATM   12  C7  UNL     1     -26.914  30.733 -13.560  1.00  0.00     0.707 A 
ATOM     13  H4  UNL     1     -25.916  29.097 -12.836  1.00  0.00     0.203 HD
HETATM   14  N6  UNL     1     -28.141  31.214 -13.813  1.00  0.00    -0.022 N 
ATOM     15  H6  UNL     1     -28.223  32.152 -14.207  1.00  0.00     0.203 HD
BRANCH   9  16
HETATM   16  N3  UNL     1     -27.815  27.566 -12.280  1.00  0.00    -0.234 N 
ATOM     17  H32 UNL     1     -28.582  26.901 -12.369  1.00  0.00     0.174 HD
ATOM     18  H31 UNL     1     -26.963  27.282 -11.796  1.00  0.00     0.174 HD
ENDBRANCH   9  16
BRANCH  12  19
HETATM   19  N5  UNL     1     -25.834  31.419 -13.799  1.00  0.00    -0.225 N 
ATOM     20  H5  UNL     1     -25.035  31.265 -13.184  1.00  0.00     0.177 HD
BRANCH  19  21
HETATM   21  C8  UNL     1     -25.678  32.370 -14.852  1.00  0.00     0.140 C 
BRANCH  21  22
HETATM   22  C9  UNL     1     -24.320  32.316 -15.522  1.00  0.00     0.046 C 
BRANCH  22  23
HETATM   23  C10 UNL     1     -23.929  30.886 -15.841  1.00  0.00     0.165 C 
BRANCH  23  24
HETATM   24  O1  UNL     1     -24.953  30.313 -16.589  1.00  0.00    -0.401 OA
ATOM     25  H1  UNL     1     -25.631  30.025 -15.990  1.00  0.00     0.209 HD
ENDBRANCH  23  24
ENDBRANCH  22  23
ENDBRANCH  21  22
ENDBRANCH  19  21
ENDBRANCH  12  19
ENDBRANCH   5   7
ENDBRANCH   4   5
ENDBRANCH   3   4
TORSDOF 9
ENDMDL
MODEL 2
REMARK VINA RESULT: -6.203987418      2.277      6.250
REMARK  9 active torsions:
REMARK  status: ('A' for Active; 'I' for Inactive)
REMARK    1  A    between atoms: C3_3  and  C4_4 
REMARK    2  A    between atoms: C4_4  and  N1_5 
REMARK    3  A    between atoms: N1_5  and  C5_7 
REMARK    4  A    between atoms: C6_10  and  N3_11 
REMARK    5  A    between atoms: C7_16  and  N5_17 
REMARK    6  A    between atoms: N5_17  and  C8_19 
REMARK    7  A    between atoms: C8_19  and  C9_20 
REMARK    8  A    between atoms: C9_20  and  C10_21 
REMARK    9  A    between atoms: C10_21  and  O1_22 
ROOT
HETATM    1  C1  UNL     1     -23.136  34.121 -14.698  1.00  0.00     0.012 C 
HETATM    2  C2  UNL     1     -22.941  32.976 -15.066  1.00  0.00    -0.116 C 
HETATM    3  C3  UNL     1     -22.704  31.592 -15.486  1.00  0.00     0.113 C 
ENDROOT
BRANCH   3   4
HETATM    4  C4  UNL     1     -24.034  30.923 -15.783  1.00  0.00     0.150 C 
BRANCH   4   5
HETATM    5  N1  UNL     1     -24.354  30.004 -14.723  1.00  0.00    -0.224 N 
ATOM      6  H1  UNL     1     -23.661  29.336 -14.388  1.00  0.00     0.177 HD
BRANCH   5   7
HETATM    7  C5  UNL     1     -25.549  30.043 -14.198  1.00  0.00     0.707 A 
HETATM    8  N2  UNL     1     -26.105  28.944 -13.657  1.00  0.00    -0.022 N 
HETATM    9  C6  UNL     1     -27.336  28.983 -13.115  1.00  0.00     0.705 A 
ATOM     10  H2  UNL     1     -25.585  28.066 -13.656  1.00  0.00     0.203 HD
HETATM   11  N4  UNL     1     -28.016  30.141 -13.118  1.00  0.00    -0.022 N 
HETATM   12  C7  UNL     1     -27.496  31.264 -13.651  1.00  0.00     0.707 A 
ATOM     13  H4  UNL     1     -28.949  30.172 -12.708  1.00  0.00     0.203 HD
HETATM   14  N6  UNL     1     -26.265  31.179 -14.180  1.00  0.00    -0.022 N 
ATOM     15  H6  UNL     1     -25.853  32.019 -14.587  1.00  0.00     0.203 HD
BRANCH   9  16
HETATM   16  N3  UNL     1     -27.874  27.916 -12.590  1.00  0.00    -0.234 N 
ATOM     17  H32 UNL     1     -27.418  27.452 -11.805  1.00  0.00     0.174 HD
ATOM     18  H31 UNL     1     -28.748  27.536 -12.953  1.00  0.00     0.174 HD
ENDBRANCH   9  16
BRANCH  12  19
HETATM   19  N5  UNL     1     -28.175  32.374 -13.642  1.00  0.00    -0.225 N 
ATOM     20  H5  UNL     1     -28.211  32.908 -14.511  1.00  0.00     0.177 HD
BRANCH  19  21
HETATM   21  C8  UNL     1     -28.872  32.905 -12.515  1.00  0.00     0.140 C 
BRANCH  21  22
HETATM   22  C9  UNL     1     -30.326  33.227 -12.798  1.00  0.00     0.046 C 
BRANCH  22  23
HETATM   23  C10 UNL     1     -31.186  31.982 -12.697  1.00  0.00     0.165 C 
BRANCH  23  24
HETATM   24  O1  UNL     1     -30.905  31.173 -13.794  1.00  0.00    -0.401 OA
ATOM     25  H1  UNL     1     -31.228  30.299 -13.607  1.00  0.00     0.209 HD
ENDBRANCH  23  24
ENDBRANCH  22  23
ENDBRANCH  21  22
ENDBRANCH  19  21
ENDBRANCH  12  19
ENDBRANCH   5   7
ENDBRANCH   4   5
ENDBRANCH   3   4
TORSDOF 9
ENDMDL
MODEL 3
REMARK VINA RESULT: -6.131112322      1.728      2.077
REMARK  9 active torsions:
REMARK  status: ('A' for Active; 'I' for Inactive)
REMARK    1  A    between atoms: C3_3  and  C4_4 
REMARK    2  A    between atoms: C4_4  and  N1_5 
REMARK    3  A    between atoms: N1_5  and  C5_7 
REMARK    4  A    between atoms: C6_10  and  N3_11 
REMARK    5  A    between atoms: C7_16  and  N5_17 
REMARK    6  A    between atoms: N5_17  and  C8_19 
REMARK    7  A    between atoms: C8_19  and  C9_20 
REMARK    8  A    between atoms: C9_20  and  C10_21 
REMARK    9  A    between atoms: C10_21  and  O1_22 
ROOT
HETATM    1  C1  UNL     1     -32.264  31.076 -13.394  1.00  0.00     0.012 C 
HETATM    2  C2  UNL     1     -31.509  31.988 -13.112  1.00  0.00    -0.116 C 
HETATM    3  C3  UNL     1     -30.610  33.088 -12.749  1.00  0.00     0.113 C 
ENDROOT
BRANCH   3   4
HETATM    4  C4  UNL     1     -29.236  32.527 -12.428  1.00  0.00     0.150 C 
BRANCH   4   5
HETATM    5  N1  UNL     1     -28.614  32.062 -13.639  1.00  0.00    -0.224 N 
ATOM      6  H1  UNL     1     -28.762  32.552 -14.521  1.00  0.00     0.177 HD
BRANCH   5   7
HETATM    7  C5  UNL     1     -27.856  31.000 -13.589  1.00  0.00     0.707 A 
HETATM    8  N2  UNL     1     -28.283  29.870 -12.997  1.00  0.00    -0.022 N 
HETATM    9  C6  UNL     1     -27.502  28.775 -12.945  1.00  0.00     0.705 A 
ATOM     10  H2  UNL     1     -29.214  29.842 -12.580  1.00  0.00     0.203 HD
HETATM   11  N4  UNL     1     -26.277  28.818 -13.494  1.00  0.00    -0.022 N 
HETATM   12  C7  UNL     1     -25.812  29.929 -14.096  1.00  0.00     0.707 A 
ATOM     13  H4  UNL     1     -25.685  27.988 -13.455  1.00  0.00     0.203 HD
HETATM   14  N6  UNL     1     -26.624  30.997 -14.125  1.00  0.00    -0.022 N 
ATOM     15  H6  UNL     1     -26.290  31.849 -14.577  1.00  0.00     0.203 HD
BRANCH   9  16
HETATM   16  N3  UNL     1     -27.918  27.679 -12.370  1.00  0.00    -0.234 N 
ATOM     17  H32 UNL     1     -27.584  27.438 -11.437  1.00  0.00     0.174 HD
ATOM     18  H31 UNL     1     -28.574  27.056 -12.840  1.00  0.00     0.174 HD
ENDBRANCH   9  16
BRANCH  12  19
HETATM   19  N5  UNL     1     -24.621  29.946 -14.621  1.00  0.00    -0.225 N 
ATOM     20  H5  UNL     1     -23.934  29.293 -14.245  1.00  0.00     0.177 HD
BRANCH  19  21
HETATM   21  C8  UNL     1     -24.200  30.805 -15.680  1.00  0.00     0.140 C 
BRANCH  21  22
HETATM   22  C9  UNL     1     -22.931  31.574 -15.370  1.00  0.00     0.046 C 
BRANCH  22  23
HETATM   23  C10 UNL     1     -23.247  33.005 -14.979  1.00  0.00     0.165 C 
BRANCH  23  24
HETATM   24  O1  UNL     1     -24.138  32.975 -13.911  1.00  0.00    -0.401 OA
ATOM     25  H1  UNL     1     -24.517  33.841 -13.817  1.00  0.00     0.209 HD
ENDBRANCH  23  24
ENDBRANCH  22  23
ENDBRANCH  21  22
ENDBRANCH  19  21
ENDBRANCH  12  19
ENDBRANCH   5   7
ENDBRANCH   4   5
ENDBRANCH   3   4
TORSDOF 9
ENDMDL
MODEL 4
REMARK VINA RESULT: -6.064833004      3.523      5.032
REMARK  9 active torsions:
REMARK  status: ('A' for Active; 'I' for Inactive)
REMARK    1  A    between atoms: C3_3  and  C4_4 
REMARK    2  A    between atoms: C4_4  and  N1_5 
REMARK    3  A    between atoms: N1_5  and  C5_7 
REMARK    4  A    between atoms: C6_10  and  N3_11 
REMARK    5  A    between atoms: C7_16  and  N5_17 
REMARK    6  A    between atoms: N5_17  and  C8_19 
REMARK    7  A    between atoms: C8_19  and  C9_20 
REMARK    8  A    between atoms: C9_20  and  C10_21 
REMARK    9  A    between atoms: C10_21  and  O1_22 
ROOT
HETATM    1  C1  UNL     1     -28.114  30.069 -10.537  1.00  0.00     0.012 C 
HETATM    2  C2  UNL     1     -28.017  29.491 -11.604  1.00  0.00    -0.116 C 
HETATM    3  C3  UNL     1     -27.925  28.798 -12.893  1.00  0.00     0.113 C 
ENDROOT
BRANCH   3   4
HETATM    4  C4  UNL     1     -27.475  29.779 -13.960  1.00  0.00     0.150 C 
BRANCH   4   5
HETATM    5  N1  UNL     1     -26.078  29.575 -14.238  1.00  0.00    -0.224 N 
ATOM      6  H1  UNL     1     -25.650  28.660 -14.103  1.00  0.00     0.177 HD
BRANCH   5   7
HETATM    7  C5  UNL     1     -25.369  30.584 -14.669  1.00  0.00     0.707 A 
HETATM    8  N2  UNL     1     -24.037  30.479 -14.823  1.00  0.00    -0.022 N 
HETATM    9  C6  UNL     1     -23.306  31.519 -15.266  1.00  0.00     0.705 A 
ATOM     10  H2  UNL     1     -23.572  29.598 -14.600  1.00  0.00     0.203 HD
HETATM   11  N4  UNL     1     -23.922  32.676 -15.557  1.00  0.00    -0.022 N 
HETATM   12  C7  UNL     1     -25.254  32.821 -15.416  1.00  0.00     0.707 A 
ATOM     13  H4  UNL     1     -23.368  33.464 -15.894  1.00  0.00     0.203 HD
HETATM   14  N6  UNL     1     -25.944  31.760 -14.972  1.00  0.00    -0.022 N 
ATOM     15  H6  UNL     1     -26.953  31.849 -14.858  1.00  0.00     0.203 HD
BRANCH   9  16
HETATM   16  N3  UNL     1     -22.013  31.416 -15.416  1.00  0.00    -0.234 N 
ATOM     17  H32 UNL     1     -21.488  30.751 -14.848  1.00  0.00     0.174 HD
ATOM     18  H31 UNL     1     -21.515  31.993 -16.094  1.00  0.00     0.174 HD
ENDBRANCH   9  16
BRANCH  12  19
HETATM   19  N5  UNL     1     -25.828  33.953 -15.705  1.00  0.00    -0.225 N 
ATOM     20  H5  UNL     1     -26.561  33.940 -16.414  1.00  0.00     0.177 HD
BRANCH  19  21
HETATM   21  C8  UNL     1     -25.515  35.212 -15.108  1.00  0.00     0.140 C 
BRANCH  21  22
HETATM   22  C9  UNL     1     -25.472  36.359 -16.098  1.00  0.00     0.046 C 
BRANCH  22  23
HETATM   23  C10 UNL     1     -24.043  36.690 -16.482  1.00  0.00     0.165 C 
BRANCH  23  24
HETATM   24  O1  UNL     1     -23.339  35.497 -16.602  1.00  0.00    -0.401 OA
ATOM     25  H1  UNL     1     -22.622  35.512 -15.978  1.00  0.00     0.209 HD
ENDBRANCH  23  24
ENDBRANCH  22  23
ENDBRANCH  21  22
ENDBRANCH  19  21
ENDBRANCH  12  19
ENDBRANCH   5   7
ENDBRANCH   4   5
ENDBRANCH   3   4
TORSDOF 9
ENDMDL
MODEL 5
REMARK VINA RESULT: -6.064670247      3.036      5.816
REMARK  9 active torsions:
REMARK  status: ('A' for Active; 'I' for Inactive)
REMARK    1  A    between atoms: C3_3  and  C4_4 
REMARK    2  A    between atoms: C4_4  and  N1_5 
REMARK    3  A    between atoms: N1_5  and  C5_7 
REMARK    4  A    between atoms: C6_10  and  N3_11 
REMARK    5  A    between atoms: C7_16  and  N5_17 
REMARK    6  A    between atoms: N5_17  and  C8_19 
REMARK    7  A    between atoms: C8_19  and  C9_20 
REMARK    8  A    between atoms: C9_20  and  C10_21 
REMARK    9  A    between atoms: C10_21  and  O1_22 
ROOT
HETATM    1  C1  UNL     1     -23.037  33.966 -14.109  1.00  0.00     0.012 C 
HETATM    2  C2  UNL     1     -22.763  32.942 -14.710  1.00  0.00    -0.116 C 
HETATM    3  C3  UNL     1     -22.429  31.699 -15.412  1.00  0.00     0.113 C 
ENDROOT
BRANCH   3   4
HETATM    4  C4  UNL     1     -23.710  30.982 -15.799  1.00  0.00     0.150 C 
BRANCH   4   5
HETATM    5  N1  UNL     1     -24.110  30.106 -14.730  1.00  0.00    -0.224 N 
ATOM      6  H1  UNL     1     -23.436  29.475 -14.297  1.00  0.00     0.177 HD
BRANCH   5   7
HETATM    7  C5  UNL     1     -25.351  30.134 -14.325  1.00  0.00     0.707 A 
HETATM    8  N2  UNL     1     -25.917  29.058 -13.748  1.00  0.00    -0.022 N 
HETATM    9  C6  UNL     1     -27.196  29.087 -13.330  1.00  0.00     0.705 A 
ATOM     10  H2  UNL     1     -25.368  28.207 -13.625  1.00  0.00     0.203 HD
HETATM   11  N4  UNL     1     -27.913  30.210 -13.494  1.00  0.00    -0.022 N 
HETATM   12  C7  UNL     1     -27.384  31.308 -14.068  1.00  0.00     0.707 A 
ATOM     13  H4  UNL     1     -28.883  30.232 -13.178  1.00  0.00     0.203 HD
HETATM   14  N6  UNL     1     -26.106  31.236 -14.469  1.00  0.00    -0.022 N 
ATOM     15  H6  UNL     1     -25.686  32.057 -14.905  1.00  0.00     0.203 HD
BRANCH   9  16
HETATM   16  N3  UNL     1     -27.744  28.042 -12.770  1.00  0.00    -0.234 N 
ATOM     17  H32 UNL     1     -27.301  27.612 -11.959  1.00  0.00     0.174 HD
ATOM     18  H31 UNL     1     -28.612  27.648 -13.133  1.00  0.00     0.174 HD
ENDBRANCH   9  16
BRANCH  12  19
HETATM   19  N5  UNL     1     -28.100  32.385 -14.216  1.00  0.00    -0.225 N 
ATOM     20  H5  UNL     1     -28.784  32.393 -14.973  1.00  0.00     0.177 HD
BRANCH  19  21
HETATM   21  C8  UNL     1     -28.005  33.556 -13.405  1.00  0.00     0.140 C 
BRANCH  21  22
HETATM   22  C9  UNL     1     -26.942  34.531 -13.869  1.00  0.00     0.046 C 
BRANCH  22  23
HETATM   23  C10 UNL     1     -26.999  34.722 -15.372  1.00  0.00     0.165 C 
BRANCH  23  24
HETATM   24  O1  UNL     1     -25.997  33.945 -15.946  1.00  0.00    -0.401 OA
ATOM     25  H1  UNL     1     -26.228  33.788 -16.854  1.00  0.00     0.209 HD
ENDBRANCH  23  24
ENDBRANCH  22  23
ENDBRANCH  21  22
ENDBRANCH  19  21
ENDBRANCH  12  19
ENDBRANCH   5   7
ENDBRANCH   4   5
ENDBRANCH   3   4
TORSDOF 9
ENDMDL
