MODEL 1
REMARK VINA RESULT: -9.661288476      0.000      0.000
REMARK  11 active torsions:
REMARK  status: ('A' for Active; 'I' for Inactive)
REMARK    1  A    between atoms: C2_2  and  C4_4 
REMARK    2  A    between atoms: C2_2  and  C5_7 
REMARK    3  A    between atoms: C4_4  and  O1_5 
REMARK       I    between atoms: C5_7  and  N1_9 
REMARK    4  A    between atoms: N1_9  and  C6_11 
REMARK    5  A    between atoms: C9_15  and  C10_16 
REMARK    6  A    between atoms: N3_17  and  N4_19 
REMARK    7  A    between atoms: N4_19  and  C11_21 
REMARK    8  A    between atoms: C11_21  and  C12_23 
REMARK    9  A    between atoms: N7_28  and  C13_29 
REMARK   10  A    between atoms: C14_35  and  N10_36 
REMARK   11  A    between atoms: C16_42  and  C17_43 
ROOT
HETATM    1  C10 UNL     1     -11.254  67.186 105.328  1.00  0.00     0.118 C 
HETATM    2  N3  UNL     1     -10.672  67.823 106.209  1.00  0.00    -0.310 N 
ATOM      3  H3  UNL     1     -10.128  68.596 105.823  1.00  0.00     0.186 HD
ENDROOT
BRANCH   2   4
HETATM    4  N4  UNL     1     -10.573  67.760 107.529  1.00  0.00    -0.287 N 
ATOM      5  H4  UNL     1     -10.222  66.898 107.946  1.00  0.00     0.188 HD
BRANCH   4   6
HETATM    6  C11 UNL     1     -10.936  68.844 108.407  1.00  0.00     0.162 C 
HETATM    7  S1  UNL     1     -10.204  70.272 108.340  1.00  0.00    -0.055 SA
BRANCH   6   8
HETATM    8  C12 UNL     1     -11.995  68.607 109.366  1.00  0.00     0.177 A 
HETATM    9  N5  UNL     1     -12.049  69.005 110.662  1.00  0.00    -0.266 N 
HETATM   10  N6  UNL     1     -13.191  68.566 111.143  1.00  0.00    -0.218 N 
ATOM     11  H5  UNL     1     -11.341  69.541 111.165  1.00  0.00     0.190 HD
HETATM   12  N7  UNL     1     -13.877  67.908 110.231  1.00  0.00    -0.158 N 
ATOM     13  H6  UNL     1     -13.506  68.716 112.101  1.00  0.00     0.210 HD
HETATM   14  N11 UNL     1     -13.129  67.940 109.137  1.00  0.00    -0.257 N 
ATOM     15  H11 UNL     1     -13.383  67.514 108.247  1.00  0.00     0.191 HD
BRANCH  12  16
HETATM   16  C13 UNL     1     -15.145  67.286 110.359  1.00  0.00     0.214 A 
HETATM   17  N8  UNL     1     -15.428  66.021 110.744  1.00  0.00    -0.219 N 
HETATM   18  O3  UNL     1     -16.715  65.840 110.732  1.00  0.00    -0.153 OA
ATOM     19  H8  UNL     1     -14.737  65.316 111.003  1.00  0.00     0.198 HD
HETATM   20  N9  UNL     1     -17.308  66.948 110.351  1.00  0.00    -0.222 N 
HETATM   21  C14 UNL     1     -16.355  67.889 110.104  1.00  0.00     0.171 A 
ATOM     22  H9  UNL     1     -18.314  67.081 110.256  1.00  0.00     0.198 HD
BRANCH  21  23
HETATM   23  N10 UNL     1     -16.614  69.071 109.717  1.00  0.00    -0.381 N 
ATOM     24 2H10 UNL     1     -15.911  69.716 109.356  1.00  0.00     0.157 HD
ATOM     25 1H10 UNL     1     -17.501  69.573 109.690  1.00  0.00     0.157 HD
ENDBRANCH  21  23
ENDBRANCH  12  16
ENDBRANCH   6   8
ENDBRANCH   4   6
ENDBRANCH   2   4
BRANCH   1  26
HETATM   26  C9  UNL     1     -12.116  66.033 105.473  1.00  0.00    -0.016 A 
HETATM   27  C8  UNL     1     -12.348  65.247 104.350  1.00  0.00     0.041 A 
HETATM   28  C7  UNL     1     -13.157  64.140 104.436  1.00  0.00     0.075 A 
HETATM   29  C6  UNL     1     -13.775  63.744 105.597  1.00  0.00     0.074 A 
HETATM   30  N2  UNL     1     -13.359  63.376 103.257  1.00  0.00    -0.100 NA
HETATM   31  C16 UNL     1     -13.546  64.515 106.696  1.00  0.00     0.058 A 
HETATM   32  C15 UNL     1     -12.718  65.656 106.630  1.00  0.00     0.032 A 
BRANCH  29  33
HETATM   33  N1  UNL     1     -14.584  62.618 105.629  1.00  0.00    -0.324 N 
HETATM   34  C5  UNL     1     -14.120  61.274 105.621  1.00  0.00     0.232 C 
HETATM   35  O2  UNL     1     -12.874  61.115 105.589  1.00  0.00    -0.272 OA
ATOM     36  H1  UNL     1     -15.592  62.766 105.662  1.00  0.00     0.169 HD
BRANCH  34  37
HETATM   37  C2  UNL     1     -14.972  60.073 105.645  1.00  0.00     0.055 C 
HETATM   38  C1  UNL     1     -14.102  58.889 106.064  1.00  0.00     0.027 C 
HETATM   39  C3  UNL     1     -16.202  60.169 106.476  1.00  0.00     0.027 C 
BRANCH  37  40
HETATM   40  C4  UNL     1     -15.456  59.832 104.201  1.00  0.00     0.182 C 
BRANCH  40  41
HETATM   41  O1  UNL     1     -15.362  61.004 103.484  1.00  0.00    -0.400 OA
ATOM     42  H1  UNL     1     -16.218  61.411 103.428  1.00  0.00     0.209 HD
ENDBRANCH  40  41
ENDBRANCH  37  40
ENDBRANCH  34  37
ENDBRANCH  29  33
BRANCH  31  43
HETATM   43  C17 UNL     1     -14.130  64.235 107.980  1.00  0.00     0.267 C 
HETATM   44  N12 UNL     1     -13.357  64.190 109.189  1.00  0.00    -0.057 NA
HETATM   45  O4  UNL     1     -15.361  64.020 108.065  1.00  0.00    -0.271 OA
ENDBRANCH  31  43
ENDBRANCH   1  26
TORSDOF 11
ENDMDL
MODEL 2
REMARK VINA RESULT: -9.513348901      3.105      5.825
REMARK  11 active torsions:
REMARK  status: ('A' for Active; 'I' for Inactive)
REMARK    1  A    between atoms: C2_2  and  C4_4 
REMARK    2  A    between atoms: C2_2  and  C5_7 
REMARK    3  A    between atoms: C4_4  and  O1_5 
REMARK       I    between atoms: C5_7  and  N1_9 
REMARK    4  A    between atoms: N1_9  and  C6_11 
REMARK    5  A    between atoms: C9_15  and  C10_16 
REMARK    6  A    between atoms: N3_17  and  N4_19 
REMARK    7  A    between atoms: N4_19  and  C11_21 
REMARK    8  A    between atoms: C11_21  and  C12_23 
REMARK    9  A    between atoms: N7_28  and  C13_29 
REMARK   10  A    between atoms: C14_35  and  N10_36 
REMARK   11  A    between atoms: C16_42  and  C17_43 
ROOT
HETATM    1  C10 UNL     1     -12.392  62.238 105.443  1.00  0.00     0.118 C 
HETATM    2  N3  UNL     1     -11.172  62.242 105.259  1.00  0.00    -0.310 N 
ATOM      3  H3  UNL     1     -10.881  61.497 104.626  1.00  0.00     0.186 HD
ENDROOT
BRANCH   2   4
HETATM    4  N4  UNL     1     -10.144  62.969 105.674  1.00  0.00    -0.287 N 
ATOM      5  H4  UNL     1      -9.524  62.569 106.380  1.00  0.00     0.188 HD
BRANCH   4   6
HETATM    6  C11 UNL     1      -9.855  64.293 105.183  1.00  0.00     0.162 C 
HETATM    7  S1  UNL     1      -8.726  64.558 104.071  1.00  0.00    -0.055 SA
BRANCH   6   8
HETATM    8  C12 UNL     1     -10.621  65.394 105.727  1.00  0.00     0.177 A 
HETATM    9  N5  UNL     1     -11.629  66.081 105.132  1.00  0.00    -0.266 N 
HETATM   10  N6  UNL     1     -12.025  66.990 105.995  1.00  0.00    -0.218 N 
ATOM     11  H5  UNL     1     -12.007  65.923 104.198  1.00  0.00     0.190 HD
HETATM   12  N7  UNL     1     -11.330  66.929 107.113  1.00  0.00    -0.158 N 
ATOM     13  H6  UNL     1     -12.775  67.659 105.821  1.00  0.00     0.210 HD
HETATM   14  N11 UNL     1     -10.466  65.940 106.936  1.00  0.00    -0.257 N 
ATOM     15  H11 UNL     1      -9.779  65.638 107.626  1.00  0.00     0.191 HD
BRANCH  12  16
HETATM   16  C13 UNL     1     -11.453  67.734 108.274  1.00  0.00     0.214 A 
HETATM   17  N8  UNL     1     -12.121  67.465 109.419  1.00  0.00    -0.219 N 
HETATM   18  O3  UNL     1     -11.990  68.462 110.243  1.00  0.00    -0.153 OA
ATOM     19  H8  UNL     1     -12.647  66.611 109.607  1.00  0.00     0.198 HD
HETATM   20  N9  UNL     1     -11.253  69.395 109.686  1.00  0.00    -0.222 N 
HETATM   21  C14 UNL     1     -10.892  68.979 108.441  1.00  0.00     0.171 A 
ATOM     22  H9  UNL     1     -10.995  70.283 110.114  1.00  0.00     0.198 HD
BRANCH  21  23
HETATM   23  N10 UNL     1     -10.173  69.664 107.648  1.00  0.00    -0.381 N 
ATOM     24 2H10 UNL     1     -10.522  70.456 107.107  1.00  0.00     0.157 HD
ATOM     25 1H10 UNL     1      -9.185  69.572 107.412  1.00  0.00     0.157 HD
ENDBRANCH  21  23
ENDBRANCH  12  16
ENDBRANCH   6   8
ENDBRANCH   4   6
ENDBRANCH   2   4
BRANCH   1  26
HETATM   26  C9  UNL     1     -13.180  63.130 106.266  1.00  0.00    -0.016 A 
HETATM   27  C8  UNL     1     -14.277  63.755 105.684  1.00  0.00     0.041 A 
HETATM   28  C7  UNL     1     -15.057  64.610 106.424  1.00  0.00     0.075 A 
HETATM   29  C6  UNL     1     -14.820  64.899 107.745  1.00  0.00     0.074 A 
HETATM   30  N2  UNL     1     -16.163  65.220 105.777  1.00  0.00    -0.100 NA
HETATM   31  C16 UNL     1     -13.745  64.285 108.313  1.00  0.00     0.058 A 
HETATM   32  C15 UNL     1     -12.929  63.403 107.572  1.00  0.00     0.032 A 
BRANCH  29  33
HETATM   33  N1  UNL     1     -15.640  65.770 108.446  1.00  0.00    -0.324 N 
HETATM   34  C5  UNL     1     -15.514  67.186 108.457  1.00  0.00     0.232 C 
HETATM   35  O2  UNL     1     -14.583  67.668 107.763  1.00  0.00    -0.272 OA
ATOM     36  H1  UNL     1     -16.394  65.362 108.999  1.00  0.00     0.169 HD
BRANCH  34  37
HETATM   37  C2  UNL     1     -16.372  68.118 109.207  1.00  0.00     0.055 C 
HETATM   38  C1  UNL     1     -16.747  69.267 108.272  1.00  0.00     0.027 C 
HETATM   39  C3  UNL     1     -17.575  67.517 109.845  1.00  0.00     0.027 C 
BRANCH  37  40
HETATM   40  C4  UNL     1     -15.524  68.688 110.361  1.00  0.00     0.182 C 
BRANCH  40  41
HETATM   41  O1  UNL     1     -14.680  67.709 110.838  1.00  0.00    -0.400 OA
ATOM     42  H1  UNL     1     -14.254  68.016 111.630  1.00  0.00     0.209 HD
ENDBRANCH  40  41
ENDBRANCH  37  40
ENDBRANCH  34  37
ENDBRANCH  29  33
BRANCH  31  43
HETATM   43  C17 UNL     1     -13.362  64.494 109.683  1.00  0.00     0.267 C 
HETATM   44  N12 UNL     1     -12.033  64.240 110.163  1.00  0.00    -0.057 NA
HETATM   45  O4  UNL     1     -14.209  64.916 110.504  1.00  0.00    -0.271 OA
ENDBRANCH  31  43
ENDBRANCH   1  26
TORSDOF 11
ENDMDL
MODEL 3
REMARK VINA RESULT: -9.424296275      2.632      6.332
REMARK  11 active torsions:
REMARK  status: ('A' for Active; 'I' for Inactive)
REMARK    1  A    between atoms: C2_2  and  C4_4 
REMARK    2  A    between atoms: C2_2  and  C5_7 
REMARK    3  A    between atoms: C4_4  and  O1_5 
REMARK       I    between atoms: C5_7  and  N1_9 
REMARK    4  A    between atoms: N1_9  and  C6_11 
REMARK    5  A    between atoms: C9_15  and  C10_16 
REMARK    6  A    between atoms: N3_17  and  N4_19 
REMARK    7  A    between atoms: N4_19  and  C11_21 
REMARK    8  A    between atoms: C11_21  and  C12_23 
REMARK    9  A    between atoms: N7_28  and  C13_29 
REMARK   10  A    between atoms: C14_35  and  N10_36 
REMARK   11  A    between atoms: C16_42  and  C17_43 
ROOT
HETATM    1  C10 UNL     1     -15.715  68.347 109.913  1.00  0.00     0.118 C 
HETATM    2  N3  UNL     1     -16.259  67.550 110.680  1.00  0.00    -0.310 N 
ATOM      3  H3  UNL     1     -16.859  68.022 111.357  1.00  0.00     0.186 HD
ENDROOT
BRANCH   2   4
HETATM    4  N4  UNL     1     -16.262  66.235 110.849  1.00  0.00    -0.287 N 
ATOM      5  H4  UNL     1     -17.051  65.813 111.340  1.00  0.00     0.188 HD
BRANCH   4   6
HETATM    6  C11 UNL     1     -15.211  65.369 110.377  1.00  0.00     0.162 C 
HETATM    7  S1  UNL     1     -13.871  65.119 111.226  1.00  0.00    -0.055 SA
BRANCH   6   8
HETATM    8  C12 UNL     1     -15.398  64.721 109.095  1.00  0.00     0.177 A 
HETATM    9  N5  UNL     1     -16.548  64.600 108.384  1.00  0.00    -0.266 N 
HETATM   10  N6  UNL     1     -16.244  63.939 107.289  1.00  0.00    -0.218 N 
ATOM     11  H5  UNL     1     -17.468  64.952 108.648  1.00  0.00     0.190 HD
HETATM   12  N7  UNL     1     -14.964  63.628 107.253  1.00  0.00    -0.158 N 
ATOM     13  H6  UNL     1     -16.915  63.697 106.560  1.00  0.00     0.210 HD
HETATM   14  N11 UNL     1     -14.452  64.116 108.373  1.00  0.00    -0.257 N 
ATOM     15  H11 UNL     1     -13.472  64.040 108.646  1.00  0.00     0.191 HD
BRANCH  12  16
HETATM   16  C13 UNL     1     -14.256  62.922 106.247  1.00  0.00     0.214 A 
HETATM   17  N8  UNL     1     -13.699  63.404 105.113  1.00  0.00    -0.219 N 
HETATM   18  O3  UNL     1     -13.140  62.432 104.456  1.00  0.00    -0.153 OA
ATOM     19  H8  UNL     1     -13.716  64.381 104.818  1.00  0.00     0.198 HD
HETATM   20  N9  UNL     1     -13.303  61.308 105.115  1.00  0.00    -0.222 N 
HETATM   21  C14 UNL     1     -14.004  61.570 106.254  1.00  0.00     0.171 A 
ATOM     22  H9  UNL     1     -12.963  60.393 104.824  1.00  0.00     0.198 HD
BRANCH  21  23
HETATM   23  N10 UNL     1     -14.322  60.683 107.106  1.00  0.00    -0.381 N 
ATOM     24 2H10 UNL     1     -13.912  60.619 108.038  1.00  0.00     0.157 HD
ATOM     25 1H10 UNL     1     -14.996  59.920 107.038  1.00  0.00     0.157 HD
ENDBRANCH  21  23
ENDBRANCH  12  16
ENDBRANCH   6   8
ENDBRANCH   4   6
ENDBRANCH   2   4
BRANCH   1  26
HETATM   26  C9  UNL     1     -14.803  68.069 108.825  1.00  0.00    -0.016 A 
HETATM   27  C8  UNL     1     -13.439  68.178 109.074  1.00  0.00     0.041 A 
HETATM   28  C7  UNL     1     -12.532  67.923 108.075  1.00  0.00     0.075 A 
HETATM   29  C6  UNL     1     -12.892  67.555 106.802  1.00  0.00     0.074 A 
HETATM   30  N2  UNL     1     -11.153  68.051 108.387  1.00  0.00    -0.100 NA
HETATM   31  C16 UNL     1     -14.229  67.448 106.561  1.00  0.00     0.058 A 
HETATM   32  C15 UNL     1     -15.178  67.706 107.572  1.00  0.00     0.032 A 
BRANCH  29  33
HETATM   33  N1  UNL     1     -11.935  67.309 105.829  1.00  0.00    -0.324 N 
HETATM   34  C5  UNL     1     -11.293  66.061 105.607  1.00  0.00     0.232 C 
HETATM   35  O2  UNL     1     -11.639  65.114 106.358  1.00  0.00    -0.272 OA
ATOM     36  H1  UNL     1     -11.671  68.087 105.225  1.00  0.00     0.169 HD
BRANCH  34  37
HETATM   37  C2  UNL     1     -10.268  65.794 104.584  1.00  0.00     0.055 C 
HETATM   38  C1  UNL     1      -9.774  67.139 104.053  1.00  0.00     0.027 C 
HETATM   39  C3  UNL     1      -9.138  64.926 105.012  1.00  0.00     0.027 C 
BRANCH  37  40
HETATM   40  C4  UNL     1     -10.962  65.042 103.431  1.00  0.00     0.182 C 
BRANCH  40  41
HETATM   41  O1  UNL     1     -12.314  65.303 103.461  1.00  0.00    -0.400 OA
ATOM     42  H1  UNL     1     -12.599  65.602 102.605  1.00  0.00     0.209 HD
ENDBRANCH  40  41
ENDBRANCH  37  40
ENDBRANCH  34  37
ENDBRANCH  29  33
BRANCH  31  43
HETATM   43  C17 UNL     1     -14.762  67.083 105.276  1.00  0.00     0.267 C 
HETATM   44  N12 UNL     1     -15.808  66.113 105.120  1.00  0.00    -0.057 NA
HETATM   45  O4  UNL     1     -14.306  67.623 104.242  1.00  0.00    -0.271 OA
ENDBRANCH  31  43
ENDBRANCH   1  26
TORSDOF 11
ENDMDL
MODEL 4
REMARK VINA RESULT: -9.389305585      1.328      1.874
REMARK  11 active torsions:
REMARK  status: ('A' for Active; 'I' for Inactive)
REMARK    1  A    between atoms: C2_2  and  C4_4 
REMARK    2  A    between atoms: C2_2  and  C5_7 
REMARK    3  A    between atoms: C4_4  and  O1_5 
REMARK       I    between atoms: C5_7  and  N1_9 
REMARK    4  A    between atoms: N1_9  and  C6_11 
REMARK    5  A    between atoms: C9_15  and  C10_16 
REMARK    6  A    between atoms: N3_17  and  N4_19 
REMARK    7  A    between atoms: N4_19  and  C11_21 
REMARK    8  A    between atoms: C11_21  and  C12_23 
REMARK    9  A    between atoms: N7_28  and  C13_29 
REMARK   10  A    between atoms: C14_35  and  N10_36 
REMARK   11  A    between atoms: C16_42  and  C17_43 
ROOT
HETATM    1  C10 UNL     1     -11.417  67.196 105.306  1.00  0.00     0.118 C 
HETATM    2  N3  UNL     1     -10.818  67.913 106.111  1.00  0.00    -0.310 N 
ATOM      3  H3  UNL     1     -10.469  68.767 105.673  1.00  0.00     0.186 HD
ENDROOT
BRANCH   2   4
HETATM    4  N4  UNL     1     -10.511  67.857 107.399  1.00  0.00    -0.287 N 
ATOM      5  H4  UNL     1      -9.979  67.053 107.734  1.00  0.00     0.188 HD
BRANCH   4   6
HETATM    6  C11 UNL     1     -10.888  68.871 108.352  1.00  0.00     0.162 C 
HETATM    7  S1  UNL     1     -10.186  70.315 108.377  1.00  0.00    -0.055 SA
BRANCH   6   8
HETATM    8  C12 UNL     1     -11.933  68.547 109.300  1.00  0.00     0.177 A 
HETATM    9  N5  UNL     1     -12.109  69.050 110.548  1.00  0.00    -0.266 N 
HETATM   10  N6  UNL     1     -13.181  68.469 111.040  1.00  0.00    -0.218 N 
ATOM     11  H5  UNL     1     -11.525  69.744 111.015  1.00  0.00     0.190 HD
HETATM   12  N7  UNL     1     -13.706  67.619 110.180  1.00  0.00    -0.158 N 
ATOM     13  H6  UNL     1     -13.558  68.651 111.969  1.00  0.00     0.210 HD
HETATM   14  N11 UNL     1     -12.927  67.676 109.109  1.00  0.00    -0.257 N 
ATOM     15  H11 UNL     1     -13.067  67.131 108.259  1.00  0.00     0.191 HD
BRANCH  12  16
HETATM   16  C13 UNL     1     -14.856  66.804 110.335  1.00  0.00     0.214 A 
HETATM   17  N8  UNL     1     -16.102  67.168 110.715  1.00  0.00    -0.219 N 
HETATM   18  O3  UNL     1     -16.873  66.121 110.734  1.00  0.00    -0.153 OA
ATOM     19  H8  UNL     1     -16.392  68.117 110.950  1.00  0.00     0.198 HD
HETATM   20  N9  UNL     1     -16.183  65.063 110.379  1.00  0.00    -0.222 N 
HETATM   21  C14 UNL     1     -14.902  65.446 110.117  1.00  0.00     0.171 A 
ATOM     22  H9  UNL     1     -16.545  64.112 110.310  1.00  0.00     0.198 HD
BRANCH  21  23
HETATM   23  N10 UNL     1     -13.987  64.646 109.748  1.00  0.00    -0.381 N 
ATOM     24 2H10 UNL     1     -13.387  64.805 108.939  1.00  0.00     0.157 HD
ATOM     25 1H10 UNL     1     -13.690  63.758 110.152  1.00  0.00     0.157 HD
ENDBRANCH  21  23
ENDBRANCH  12  16
ENDBRANCH   6   8
ENDBRANCH   4   6
ENDBRANCH   2   4
BRANCH   1  26
HETATM   26  C9  UNL     1     -12.051  65.917 105.540  1.00  0.00    -0.016 A 
HETATM   27  C8  UNL     1     -11.258  64.776 105.486  1.00  0.00     0.041 A 
HETATM   28  C7  UNL     1     -11.813  63.538 105.703  1.00  0.00     0.075 A 
HETATM   29  C6  UNL     1     -13.143  63.343 105.979  1.00  0.00     0.074 A 
HETATM   30  N2  UNL     1     -10.954  62.410 105.634  1.00  0.00    -0.100 NA
HETATM   31  C16 UNL     1     -13.918  64.462 106.032  1.00  0.00     0.058 A 
HETATM   32  C15 UNL     1     -13.370  65.744 105.812  1.00  0.00     0.032 A 
BRANCH  29  33
HETATM   33  N1  UNL     1     -13.653  62.071 106.189  1.00  0.00    -0.324 N 
HETATM   34  C5  UNL     1     -14.291  61.269 105.204  1.00  0.00     0.232 C 
HETATM   35  O2  UNL     1     -14.386  61.769 104.055  1.00  0.00    -0.272 OA
ATOM     36  H1  UNL     1     -13.561  61.678 107.127  1.00  0.00     0.169 HD
BRANCH  34  37
HETATM   37  C2  UNL     1     -14.844  59.922 105.422  1.00  0.00     0.055 C 
HETATM   38  C1  UNL     1     -15.415  59.429 104.093  1.00  0.00     0.027 C 
HETATM   39  C3  UNL     1     -13.911  58.929 106.018  1.00  0.00     0.027 C 
BRANCH  37  40
HETATM   40  C4  UNL     1     -16.005  60.065 106.426  1.00  0.00     0.182 C 
BRANCH  40  41
HETATM   41  O1  UNL     1     -16.660  61.256 106.205  1.00  0.00    -0.400 OA
ATOM     42  H1  UNL     1     -16.266  61.701 105.463  1.00  0.00     0.209 HD
ENDBRANCH  40  41
ENDBRANCH  37  40
ENDBRANCH  34  37
ENDBRANCH  29  33
BRANCH  31  43
HETATM   43  C17 UNL     1     -15.330  64.420 106.300  1.00  0.00     0.267 C 
HETATM   44  N12 UNL     1     -15.884  63.731 107.431  1.00  0.00    -0.057 NA
HETATM   45  O4  UNL     1     -16.124  65.003 105.525  1.00  0.00    -0.271 OA
ENDBRANCH  31  43
ENDBRANCH   1  26
TORSDOF 11
ENDMDL
MODEL 5
REMARK VINA RESULT: -9.332533614      2.694      6.472
REMARK  11 active torsions:
REMARK  status: ('A' for Active; 'I' for Inactive)
REMARK    1  A    between atoms: C2_2  and  C4_4 
REMARK    2  A    between atoms: C2_2  and  C5_7 
REMARK    3  A    between atoms: C4_4  and  O1_5 
REMARK       I    between atoms: C5_7  and  N1_9 
REMARK    4  A    between atoms: N1_9  and  C6_11 
REMARK    5  A    between atoms: C9_15  and  C10_16 
REMARK    6  A    between atoms: N3_17  and  N4_19 
REMARK    7  A    between atoms: N4_19  and  C11_21 
REMARK    8  A    between atoms: C11_21  and  C12_23 
REMARK    9  A    between atoms: N7_28  and  C13_29 
REMARK   10  A    between atoms: C14_35  and  N10_36 
REMARK   11  A    between atoms: C16_42  and  C17_43 
ROOT
HETATM    1  C10 UNL     1     -11.787  66.406 103.489  1.00  0.00     0.118 C 
HETATM    2  N3  UNL     1     -11.143  65.438 103.076  1.00  0.00    -0.310 N 
ATOM      3  H3  UNL     1     -10.706  65.629 102.174  1.00  0.00     0.186 HD
ENDROOT
BRANCH   2   4
HETATM    4  N4  UNL     1     -10.875  64.213 103.506  1.00  0.00    -0.287 N 
ATOM      5  H4  UNL     1     -10.988  63.437 102.854  1.00  0.00     0.188 HD
BRANCH   4   6
HETATM    6  C11 UNL     1     -10.433  63.919 104.846  1.00  0.00     0.162 C 
HETATM    7  S1  UNL     1      -8.907  64.128 105.302  1.00  0.00    -0.055 SA
BRANCH   6   8
HETATM    8  C12 UNL     1     -11.417  63.423 105.785  1.00  0.00     0.177 A 
HETATM    9  N5  UNL     1     -11.619  63.820 107.067  1.00  0.00    -0.266 N 
HETATM   10  N6  UNL     1     -12.612  63.095 107.533  1.00  0.00    -0.218 N 
ATOM     11  H5  UNL     1     -11.102  64.540 107.571  1.00  0.00     0.190 HD
HETATM   12  N7  UNL     1     -13.063  62.254 106.624  1.00  0.00    -0.158 N 
ATOM     13  H6  UNL     1     -12.987  63.174 108.478  1.00  0.00     0.210 HD
HETATM   14  N11 UNL     1     -12.317  62.465 105.549  1.00  0.00    -0.257 N 
ATOM     15  H11 UNL     1     -12.417  61.965 104.666  1.00  0.00     0.191 HD
BRANCH  12  16
HETATM   16  C13 UNL     1     -14.116  61.311 106.740  1.00  0.00     0.214 A 
HETATM   17  N8  UNL     1     -14.044  60.005 107.083  1.00  0.00    -0.219 N 
HETATM   18  O3  UNL     1     -15.236  59.486 107.074  1.00  0.00    -0.153 OA
ATOM     19  H8  UNL     1     -13.186  59.503 107.313  1.00  0.00     0.198 HD
HETATM   20  N9  UNL     1     -16.109  60.406 106.735  1.00  0.00    -0.222 N 
HETATM   21  C14 UNL     1     -15.447  61.575 106.514  1.00  0.00     0.171 A 
ATOM     22  H9  UNL     1     -17.116  60.268 106.651  1.00  0.00     0.198 HD
BRANCH  21  23
HETATM   23  N10 UNL     1     -16.019  62.656 106.169  1.00  0.00    -0.381 N 
ATOM     24 2H10 UNL     1     -15.939  63.069 105.240  1.00  0.00     0.157 HD
ATOM     25 1H10 UNL     1     -16.624  63.278 106.706  1.00  0.00     0.157 HD
ENDBRANCH  21  23
ENDBRANCH  12  16
ENDBRANCH   6   8
ENDBRANCH   4   6
ENDBRANCH   2   4
BRANCH   1  26
HETATM   26  C9  UNL     1     -12.542  66.526 104.718  1.00  0.00    -0.016 A 
HETATM   27  C8  UNL     1     -13.836  66.017 104.741  1.00  0.00     0.041 A 
HETATM   28  C7  UNL     1     -14.592  66.106 105.884  1.00  0.00     0.075 A 
HETATM   29  C6  UNL     1     -14.142  66.681 107.046  1.00  0.00     0.074 A 
HETATM   30  N2  UNL     1     -15.906  65.571 105.849  1.00  0.00    -0.100 NA
HETATM   31  C16 UNL     1     -12.874  67.178 107.021  1.00  0.00     0.058 A 
HETATM   32  C15 UNL     1     -12.079  67.098 105.858  1.00  0.00     0.032 A 
BRANCH  29  33
HETATM   33  N1  UNL     1     -14.947  66.745 108.174  1.00  0.00    -0.324 N 
HETATM   34  C5  UNL     1     -15.821  67.818 108.498  1.00  0.00     0.232 C 
HETATM   35  O2  UNL     1     -15.858  68.773 107.681  1.00  0.00    -0.272 OA
ATOM     36  H1  UNL     1     -14.909  65.958 108.822  1.00  0.00     0.169 HD
BRANCH  34  37
HETATM   37  C2  UNL     1     -16.672  67.899 109.697  1.00  0.00     0.055 C 
HETATM   38  C1  UNL     1     -17.480  69.193 109.613  1.00  0.00     0.027 C 
HETATM   39  C3  UNL     1     -17.548  66.722 109.949  1.00  0.00     0.027 C 
BRANCH  37  40
HETATM   40  C4  UNL     1     -15.731  67.991 110.915  1.00  0.00     0.182 C 
BRANCH  40  41
HETATM   41  O1  UNL     1     -14.597  68.690 110.567  1.00  0.00    -0.400 OA
ATOM     42  H1  UNL     1     -14.734  69.122 109.731  1.00  0.00     0.209 HD
ENDBRANCH  40  41
ENDBRANCH  37  40
ENDBRANCH  34  37
ENDBRANCH  29  33
BRANCH  31  43
HETATM   43  C17 UNL     1     -12.266  67.819 108.156  1.00  0.00     0.267 C 
HETATM   44  N12 UNL     1     -12.219  67.212 109.456  1.00  0.00    -0.057 NA
HETATM   45  O4  UNL     1     -11.750  68.953 108.022  1.00  0.00    -0.271 OA
ENDBRANCH  31  43
ENDBRANCH   1  26
TORSDOF 11
ENDMDL
