MODEL 1
REMARK VINA RESULT: -6.384577034      0.000      0.000
REMARK  8 active torsions:
REMARK  status: ('A' for Active; 'I' for Inactive)
REMARK    1  A    between atoms: N1_2  and  C2_4 
REMARK    2  A    between atoms: N2_6  and  N3_8 
REMARK       I    between atoms: N3_8  and  C4_10 
REMARK    3  A    between atoms: N5_12  and  N6_14 
REMARK    4  A    between atoms: C5_16  and  N7_17 
REMARK    5  A    between atoms: N7_17  and  C6_19 
REMARK    6  A    between atoms: C6_19  and  C7_20 
REMARK    7  A    between atoms: C7_20  and  N8_21 
REMARK    8  A    between atoms: N8_21  and  C8_23 
ROOT
HETATM    1  N3  UNL     1     -44.994   3.181  -2.098  1.00  0.00    -0.271 N 
ATOM      2  H3  UNL     1     -45.664   3.723  -2.643  1.00  0.00     0.189 HD
HETATM    3  C4  UNL     1     -45.101   1.766  -2.011  1.00  0.00     0.222 C 
HETATM    4  N4  UNL     1     -44.756   1.165  -0.787  1.00  0.00    -0.061 NA
HETATM    5  N5  UNL     1     -45.507   1.151  -3.063  1.00  0.00    -0.272 N 
ATOM      6  H5  UNL     1     -45.726   1.710  -3.888  1.00  0.00     0.189 HD
ENDROOT
BRANCH   5   7
HETATM    7  N6  UNL     1     -45.668  -0.227  -3.152  1.00  0.00    -0.294 N 
HETATM    8  C5  UNL     1     -44.675  -1.020  -2.934  1.00  0.00     0.192 C 
ATOM      9  H6  UNL     1     -46.580  -0.614  -3.393  1.00  0.00     0.187 HD
BRANCH   8  10
HETATM   10  N7  UNL     1     -44.894  -2.413  -3.039  1.00  0.00    -0.384 N 
ATOM     11  H7  UNL     1     -45.646  -2.832  -2.492  1.00  0.00     0.160 HD
BRANCH  10  12
HETATM   12  C6  UNL     1     -44.087  -3.276  -3.896  1.00  0.00     0.140 C 
BRANCH  12  13
HETATM   13  C7  UNL     1     -43.196  -2.493  -4.800  1.00  0.00     0.141 C 
BRANCH  13  14
HETATM   14  N8  UNL     1     -43.636  -2.558  -6.154  1.00  0.00    -0.368 N 
ATOM     15  H8  UNL     1     -43.175  -3.207  -6.792  1.00  0.00     0.161 HD
BRANCH  14  16
HETATM   16  C8  UNL     1     -44.690  -1.754  -6.642  1.00  0.00     0.181 C 
HETATM   17  N9  UNL     1     -44.371  -0.532  -7.281  1.00  0.00    -0.070 NA
HETATM   18  S1  UNL     1     -46.266  -2.197  -6.487  1.00  0.00    -0.044 SA
ENDBRANCH  14  16
ENDBRANCH  13  14
ENDBRANCH  12  13
ENDBRANCH  10  12
ENDBRANCH   8  10
ENDBRANCH   5   7
BRANCH   1  19
HETATM   19  N2  UNL     1     -43.951   3.810  -1.421  1.00  0.00    -0.287 N 
HETATM   20  C2  UNL     1     -42.790   3.865  -1.972  1.00  0.00     0.087 C 
HETATM   21  C3  UNL     1     -42.559   3.268  -3.311  1.00  0.00     0.090 C 
ATOM     22  H2  UNL     1     -44.106   4.222  -0.500  1.00  0.00     0.188 HD
BRANCH  20  23
HETATM   23  N1  UNL     1     -41.749   4.510  -1.264  1.00  0.00    -0.383 N 
HETATM   24  C1  UNL     1     -42.081   5.326  -0.122  1.00  0.00     0.147 C 
ATOM     25  H1  UNL     1     -40.778   4.400  -1.557  1.00  0.00     0.160 HD
ENDBRANCH  20  23
ENDBRANCH   1  19
TORSDOF 8
ENDMDL
MODEL 2
REMARK VINA RESULT: -6.335154578      4.157      8.756
REMARK  8 active torsions:
REMARK  status: ('A' for Active; 'I' for Inactive)
REMARK    1  A    between atoms: N1_2  and  C2_4 
REMARK    2  A    between atoms: N2_6  and  N3_8 
REMARK       I    between atoms: N3_8  and  C4_10 
REMARK    3  A    between atoms: N5_12  and  N6_14 
REMARK    4  A    between atoms: C5_16  and  N7_17 
REMARK    5  A    between atoms: N7_17  and  C6_19 
REMARK    6  A    between atoms: C6_19  and  C7_20 
REMARK    7  A    between atoms: C7_20  and  N8_21 
REMARK    8  A    between atoms: N8_21  and  C8_23 
ROOT
HETATM    1  N3  UNL     1     -43.889   0.200  -4.336  1.00  0.00    -0.271 N 
ATOM      2  H3  UNL     1     -43.010  -0.034  -4.797  1.00  0.00     0.189 HD
HETATM    3  C4  UNL     1     -43.953   1.253  -3.382  1.00  0.00     0.222 C 
HETATM    4  N4  UNL     1     -44.816   1.081  -2.286  1.00  0.00    -0.061 NA
HETATM    5  N5  UNL     1     -43.212   2.279  -3.604  1.00  0.00    -0.272 N 
ATOM      6  H5  UNL     1     -42.629   2.275  -4.441  1.00  0.00     0.189 HD
ENDROOT
BRANCH   5   7
HETATM    7  N6  UNL     1     -43.152   3.395  -2.777  1.00  0.00    -0.294 N 
HETATM    8  C5  UNL     1     -42.018   3.931  -2.477  1.00  0.00     0.192 C 
ATOM      9  H6  UNL     1     -44.013   3.793  -2.404  1.00  0.00     0.187 HD
BRANCH   8  10
HETATM   10  N7  UNL     1     -42.015   5.064  -1.632  1.00  0.00    -0.384 N 
ATOM     11  H7  UNL     1     -42.125   5.988  -2.051  1.00  0.00     0.160 HD
BRANCH  10  12
HETATM   12  C6  UNL     1     -41.860   4.968  -0.184  1.00  0.00     0.140 C 
BRANCH  12  13
HETATM   13  C7  UNL     1     -41.398   6.253   0.417  1.00  0.00     0.141 C 
BRANCH  13  14
HETATM   14  N8  UNL     1     -40.071   6.146   0.924  1.00  0.00    -0.368 N 
ATOM     15  H8  UNL     1     -39.430   5.481   0.491  1.00  0.00     0.161 HD
BRANCH  14  16
HETATM   16  C8  UNL     1     -39.613   6.930   2.006  1.00  0.00     0.181 C 
HETATM   17  N9  UNL     1     -39.490   8.328   1.827  1.00  0.00    -0.070 NA
HETATM   18  S1  UNL     1     -39.221   6.265   3.458  1.00  0.00    -0.044 SA
ENDBRANCH  14  16
ENDBRANCH  13  14
ENDBRANCH  12  13
ENDBRANCH  10  12
ENDBRANCH   8  10
ENDBRANCH   5   7
BRANCH   1  19
HETATM   19  N2  UNL     1     -45.056  -0.504  -4.626  1.00  0.00    -0.287 N 
HETATM   20  C2  UNL     1     -44.967  -1.684  -5.130  1.00  0.00     0.087 C 
HETATM   21  C3  UNL     1     -43.639  -2.291  -5.401  1.00  0.00     0.090 C 
ATOM     22  H2  UNL     1     -45.970  -0.089  -4.440  1.00  0.00     0.188 HD
BRANCH  20  23
HETATM   23  N1  UNL     1     -46.166  -2.377  -5.415  1.00  0.00    -0.383 N 
HETATM   24  C1  UNL     1     -46.646  -2.416  -6.774  1.00  0.00     0.147 C 
ATOM     25  H1  UNL     1     -46.684  -2.843  -4.670  1.00  0.00     0.160 HD
ENDBRANCH  20  23
ENDBRANCH   1  19
TORSDOF 8
ENDMDL
MODEL 3
REMARK VINA RESULT: -6.308431652      3.739      8.126
REMARK  8 active torsions:
REMARK  status: ('A' for Active; 'I' for Inactive)
REMARK    1  A    between atoms: N1_2  and  C2_4 
REMARK    2  A    between atoms: N2_6  and  N3_8 
REMARK       I    between atoms: N3_8  and  C4_10 
REMARK    3  A    between atoms: N5_12  and  N6_14 
REMARK    4  A    between atoms: C5_16  and  N7_17 
REMARK    5  A    between atoms: N7_17  and  C6_19 
REMARK    6  A    between atoms: C6_19  and  C7_20 
REMARK    7  A    between atoms: C7_20  and  N8_21 
REMARK    8  A    between atoms: N8_21  and  C8_23 
ROOT
HETATM    1  N3  UNL     1     -44.883  -0.914  -3.157  1.00  0.00    -0.271 N 
ATOM      2  H3  UNL     1     -44.291  -1.626  -2.730  1.00  0.00     0.189 HD
HETATM    3  C4  UNL     1     -44.655   0.467  -2.907  1.00  0.00     0.222 C 
HETATM    4  N4  UNL     1     -45.783   1.303  -2.818  1.00  0.00    -0.061 NA
HETATM    5  N5  UNL     1     -43.431   0.839  -2.783  1.00  0.00    -0.272 N 
ATOM      6  H5  UNL     1     -42.706   0.127  -2.870  1.00  0.00     0.189 HD
ENDROOT
BRANCH   5   7
HETATM    7  N6  UNL     1     -43.031   2.147  -2.539  1.00  0.00    -0.294 N 
HETATM    8  C5  UNL     1     -41.823   2.523  -2.789  1.00  0.00     0.192 C 
ATOM      9  H6  UNL     1     -43.698   2.816  -2.157  1.00  0.00     0.187 HD
BRANCH   8  10
HETATM   10  N7  UNL     1     -41.468   3.865  -2.521  1.00  0.00    -0.384 N 
ATOM     11  H7  UNL     1     -40.502   4.154  -2.671  1.00  0.00     0.160 HD
BRANCH  10  12
HETATM   12  C6  UNL     1     -42.427   4.853  -2.038  1.00  0.00     0.140 C 
BRANCH  12  13
HETATM   13  C7  UNL     1     -42.391   4.990  -0.553  1.00  0.00     0.141 C 
BRANCH  13  14
HETATM   14  N8  UNL     1     -41.129   5.472  -0.102  1.00  0.00    -0.368 N 
ATOM     15  H8  UNL     1     -40.279   5.093  -0.520  1.00  0.00     0.161 HD
BRANCH  14  16
HETATM   16  C8  UNL     1     -41.015   6.455   0.906  1.00  0.00     0.181 C 
HETATM   17  N9  UNL     1     -42.184   6.864   1.590  1.00  0.00    -0.070 NA
HETATM   18  S1  UNL     1     -39.570   7.132   1.301  1.00  0.00    -0.044 SA
ENDBRANCH  14  16
ENDBRANCH  13  14
ENDBRANCH  12  13
ENDBRANCH  10  12
ENDBRANCH   8  10
ENDBRANCH   5   7
BRANCH   1  19
HETATM   19  N2  UNL     1     -45.933  -1.272  -4.000  1.00  0.00    -0.287 N 
HETATM   20  C2  UNL     1     -45.668  -1.725  -5.175  1.00  0.00     0.087 C 
HETATM   21  C3  UNL     1     -44.261  -1.867  -5.629  1.00  0.00     0.090 C 
ATOM     22  H2  UNL     1     -46.901  -1.175  -3.690  1.00  0.00     0.188 HD
BRANCH  20  23
HETATM   23  N1  UNL     1     -46.751  -2.081  -6.010  1.00  0.00    -0.383 N 
HETATM   24  C1  UNL     1     -46.561  -3.111  -7.001  1.00  0.00     0.147 C 
ATOM     25  H1  UNL     1     -47.655  -1.617  -5.913  1.00  0.00     0.160 HD
ENDBRANCH  20  23
ENDBRANCH   1  19
TORSDOF 8
ENDMDL
MODEL 4
REMARK VINA RESULT: -6.275771752      2.494      4.221
REMARK  8 active torsions:
REMARK  status: ('A' for Active; 'I' for Inactive)
REMARK    1  A    between atoms: N1_2  and  C2_4 
REMARK    2  A    between atoms: N2_6  and  N3_8 
REMARK       I    between atoms: N3_8  and  C4_10 
REMARK    3  A    between atoms: N5_12  and  N6_14 
REMARK    4  A    between atoms: C5_16  and  N7_17 
REMARK    5  A    between atoms: N7_17  and  C6_19 
REMARK    6  A    between atoms: C6_19  and  C7_20 
REMARK    7  A    between atoms: C7_20  and  N8_21 
REMARK    8  A    between atoms: N8_21  and  C8_23 
ROOT
HETATM    1  N3  UNL     1     -41.276   5.759  -0.552  1.00  0.00    -0.271 N 
ATOM      2  H3  UNL     1     -40.940   6.534  -1.125  1.00  0.00     0.189 HD
HETATM    3  C4  UNL     1     -42.186   4.804  -1.082  1.00  0.00     0.222 C 
HETATM    4  N4  UNL     1     -43.163   4.289  -0.211  1.00  0.00    -0.061 NA
HETATM    5  N5  UNL     1     -42.038   4.488  -2.319  1.00  0.00    -0.272 N 
ATOM      6  H5  UNL     1     -41.286   4.939  -2.839  1.00  0.00     0.189 HD
ENDROOT
BRANCH   5   7
HETATM    7  N6  UNL     1     -42.837   3.573  -2.995  1.00  0.00    -0.294 N 
HETATM    8  C5  UNL     1     -42.481   2.338  -3.096  1.00  0.00     0.192 C 
ATOM      9  H6  UNL     1     -43.714   3.882  -3.414  1.00  0.00     0.187 HD
BRANCH   8  10
HETATM   10  N7  UNL     1     -43.330   1.450  -3.795  1.00  0.00    -0.384 N 
ATOM     11  H7  UNL     1     -43.071   1.167  -4.740  1.00  0.00     0.160 HD
BRANCH  10  12
HETATM   12  C6  UNL     1     -44.563   0.921  -3.220  1.00  0.00     0.140 C 
BRANCH  12  13
HETATM   13  C7  UNL     1     -44.691  -0.552  -3.427  1.00  0.00     0.141 C 
BRANCH  13  14
HETATM   14  N8  UNL     1     -45.860  -0.875  -4.174  1.00  0.00    -0.368 N 
ATOM     15  H8  UNL     1     -46.764  -0.528  -3.851  1.00  0.00     0.161 HD
BRANCH  14  16
HETATM   16  C8  UNL     1     -45.810  -1.660  -5.347  1.00  0.00     0.181 C 
HETATM   17  N9  UNL     1     -47.023  -2.140  -5.895  1.00  0.00    -0.070 NA
HETATM   18  S1  UNL     1     -44.389  -2.028  -6.088  1.00  0.00    -0.044 SA
ENDBRANCH  14  16
ENDBRANCH  13  14
ENDBRANCH  12  13
ENDBRANCH  10  12
ENDBRANCH   8  10
ENDBRANCH   5   7
BRANCH   1  19
HETATM   19  N2  UNL     1     -40.852   5.611   0.767  1.00  0.00    -0.287 N 
HETATM   20  C2  UNL     1     -39.966   6.419   1.235  1.00  0.00     0.087 C 
HETATM   21  C3  UNL     1     -39.400   7.495   0.383  1.00  0.00     0.090 C 
ATOM     22  H2  UNL     1     -41.240   4.873   1.355  1.00  0.00     0.188 HD
BRANCH  20  23
HETATM   23  N1  UNL     1     -39.554   6.248   2.576  1.00  0.00    -0.383 N 
HETATM   24  C1  UNL     1     -39.439   7.408   3.426  1.00  0.00     0.147 C 
ATOM     25  H1  UNL     1     -39.341   5.319   2.938  1.00  0.00     0.160 HD
ENDBRANCH  20  23
ENDBRANCH   1  19
TORSDOF 8
ENDMDL
MODEL 5
REMARK VINA RESULT: -6.242284158      4.302      8.817
REMARK  8 active torsions:
REMARK  status: ('A' for Active; 'I' for Inactive)
REMARK    1  A    between atoms: N1_2  and  C2_4 
REMARK    2  A    between atoms: N2_6  and  N3_8 
REMARK       I    between atoms: N3_8  and  C4_10 
REMARK    3  A    between atoms: N5_12  and  N6_14 
REMARK    4  A    between atoms: C5_16  and  N7_17 
REMARK    5  A    between atoms: N7_17  and  C6_19 
REMARK    6  A    between atoms: C6_19  and  C7_20 
REMARK    7  A    between atoms: C7_20  and  N8_21 
REMARK    8  A    between atoms: N8_21  and  C8_23 
ROOT
HETATM    1  N3  UNL     1     -44.636   0.831  -4.203  1.00  0.00    -0.271 N 
ATOM      2  H3  UNL     1     -45.213   1.263  -4.925  1.00  0.00     0.189 HD
HETATM    3  C4  UNL     1     -43.551   1.539  -3.618  1.00  0.00     0.222 C 
HETATM    4  N4  UNL     1     -42.403   0.799  -3.280  1.00  0.00    -0.061 NA
HETATM    5  N5  UNL     1     -43.711   2.802  -3.445  1.00  0.00    -0.272 N 
ATOM      6  H5  UNL     1     -44.597   3.214  -3.736  1.00  0.00     0.189 HD
ENDROOT
BRANCH   5   7
HETATM    7  N6  UNL     1     -42.755   3.643  -2.887  1.00  0.00    -0.294 N 
HETATM    8  C5  UNL     1     -42.944   4.175  -1.727  1.00  0.00     0.192 C 
ATOM      9  H6  UNL     1     -41.897   3.842  -3.400  1.00  0.00     0.187 HD
BRANCH   8  10
HETATM   10  N7  UNL     1     -41.940   5.024  -1.207  1.00  0.00    -0.384 N 
ATOM     11  H7  UNL     1     -41.249   5.413  -1.848  1.00  0.00     0.160 HD
BRANCH  10  12
HETATM   12  C6  UNL     1     -41.851   5.365   0.209  1.00  0.00     0.140 C 
BRANCH  12  13
HETATM   13  C7  UNL     1     -40.594   6.101   0.531  1.00  0.00     0.141 C 
BRANCH  13  14
HETATM   14  N8  UNL     1     -40.791   7.038   1.585  1.00  0.00    -0.368 N 
ATOM     15  H8  UNL     1     -41.726   7.417   1.740  1.00  0.00     0.161 HD
BRANCH  14  16
HETATM   16  C8  UNL     1     -39.736   7.461   2.423  1.00  0.00     0.181 C 
HETATM   17  N9  UNL     1     -39.024   8.634   2.078  1.00  0.00    -0.070 NA
HETATM   18  S1  UNL     1     -39.316   6.632   3.779  1.00  0.00    -0.044 SA
ENDBRANCH  14  16
ENDBRANCH  13  14
ENDBRANCH  12  13
ENDBRANCH  10  12
ENDBRANCH   8  10
ENDBRANCH   5   7
BRANCH   1  19
HETATM   19  N2  UNL     1     -44.894  -0.468  -3.767  1.00  0.00    -0.287 N 
HETATM   20  C2  UNL     1     -44.787  -1.442  -4.600  1.00  0.00     0.087 C 
HETATM   21  C3  UNL     1     -44.393  -1.190  -6.009  1.00  0.00     0.090 C 
ATOM     22  H2  UNL     1     -45.165  -0.643  -2.798  1.00  0.00     0.188 HD
BRANCH  20  23
HETATM   23  N1  UNL     1     -45.054  -2.749  -4.132  1.00  0.00    -0.383 N 
HETATM   24  C1  UNL     1     -44.174  -3.333  -3.149  1.00  0.00     0.147 C 
ATOM     25  H1  UNL     1     -45.856  -3.271  -4.484  1.00  0.00     0.160 HD
ENDBRANCH  20  23
ENDBRANCH   1  19
TORSDOF 8
ENDMDL
