MODEL 1
REMARK VINA RESULT: -7.064435023      0.000      0.000
REMARK  6 active torsions:
REMARK  status: ('A' for Active; 'I' for Inactive)
REMARK    1  A    between atoms: N1_3  and  N2_5 
REMARK       I    between atoms: N2_5  and  C4_7 
REMARK       I    between atoms: C4_7  and  N4_11 
REMARK    2  A    between atoms: N4_11  and  N5_13 
REMARK       I    between atoms: N5_13  and  C5_15 
REMARK    3  A    between atoms: N7_17  and  C6_19 
REMARK    4  A    between atoms: C6_19  and  C7_20 
REMARK    5  A    between atoms: C7_20  and  C8_21 
REMARK    6  A    between atoms: C8_21  and  C9_23 
ROOT
HETATM    1  C1  UNL     1     -42.012   5.409   0.263  1.00  0.00     0.038 C 
HETATM    2  C2  UNL     1     -42.166   4.836  -0.801  1.00  0.00     0.017 C 
HETATM    3  N1  UNL     1     -42.325   4.166  -2.009  1.00  0.00    -0.240 N 
HETATM    4  C3  UNL     1     -41.861   4.795  -3.222  1.00  0.00     0.189 C 
ENDROOT
BRANCH   3   5
HETATM    5  N2  UNL     1     -42.921   2.910  -2.030  1.00  0.00    -0.122 N 
HETATM    6  C4  UNL     1     -44.295   2.682  -2.191  1.00  0.00     0.705 C 
HETATM    7  N3  UNL     1     -45.101   2.945  -1.230  1.00  0.00    -0.232 N 
HETATM    8  N4  UNL     1     -44.778   2.161  -3.415  1.00  0.00    -0.129 N 
ATOM      9  H32 UNL     1     -44.752   3.320  -0.347  1.00  0.00     0.174 HD
ATOM     10  H31 UNL     1     -46.100   2.779  -1.347  1.00  0.00     0.174 HD
ATOM     11  H4  UNL     1     -44.660   2.721  -4.259  1.00  0.00     0.205 HD
ATOM     12  H2  UNL     1     -42.316   2.096  -1.920  1.00  0.00     0.206 HD
BRANCH   8  13
HETATM   13  N5  UNL     1     -45.405   0.926  -3.526  1.00  0.00    -0.259 N 
HETATM   14  C5  UNL     1     -44.626  -0.267  -3.645  1.00  0.00     0.203 C 
HETATM   15  N6  UNL     1     -43.230  -0.248  -3.370  1.00  0.00    -0.062 NA
HETATM   16  N7  UNL     1     -45.158  -1.379  -4.003  1.00  0.00    -0.363 N 
ATOM     17  H7  UNL     1     -46.156  -1.417  -4.210  1.00  0.00     0.162 HD
ATOM     18  H5  UNL     1     -46.423   0.870  -3.522  1.00  0.00     0.190 HD
BRANCH  16  19
HETATM   19  C6  UNL     1     -44.364  -2.570  -4.118  1.00  0.00     0.130 C 
BRANCH  19  20
HETATM   20  C7  UNL     1     -43.787  -2.562  -5.535  1.00  0.00     0.108 C 
BRANCH  20  21
HETATM   21  C8  UNL     1     -44.785  -1.984  -6.461  1.00  0.00     0.215 C 
HETATM   22  O1  UNL     1     -44.531  -0.901  -7.029  1.00  0.00    -0.288 OA
BRANCH  21  23
HETATM   23  C9  UNL     1     -46.028  -2.683  -6.689  1.00  0.00     0.300 C 
HETATM   24  N8  UNL     1     -47.232  -2.153  -6.133  1.00  0.00    -0.054 NA
HETATM   25  O2  UNL     1     -46.059  -3.734  -7.356  1.00  0.00    -0.268 OA
ENDBRANCH  21  23
ENDBRANCH  20  21
ENDBRANCH  19  20
ENDBRANCH  16  19
ENDBRANCH   8  13
ENDBRANCH   3   5
TORSDOF 6
ENDMDL
MODEL 2
REMARK VINA RESULT: -6.323385837      1.116      1.435
REMARK  6 active torsions:
REMARK  status: ('A' for Active; 'I' for Inactive)
REMARK    1  A    between atoms: N1_3  and  N2_5 
REMARK       I    between atoms: N2_5  and  C4_7 
REMARK       I    between atoms: C4_7  and  N4_11 
REMARK    2  A    between atoms: N4_11  and  N5_13 
REMARK       I    between atoms: N5_13  and  C5_15 
REMARK    3  A    between atoms: N7_17  and  C6_19 
REMARK    4  A    between atoms: C6_19  and  C7_20 
REMARK    5  A    between atoms: C7_20  and  C8_21 
REMARK    6  A    between atoms: C8_21  and  C9_23 
ROOT
HETATM    1  C1  UNL     1     -42.369   5.416  -0.032  1.00  0.00     0.038 C 
HETATM    2  C2  UNL     1     -42.363   4.675  -0.999  1.00  0.00     0.017 C 
HETATM    3  N1  UNL     1     -42.341   3.814  -2.090  1.00  0.00    -0.240 N 
HETATM    4  C3  UNL     1     -41.636   4.217  -3.283  1.00  0.00     0.189 C 
ENDROOT
BRANCH   3   5
HETATM    5  N2  UNL     1     -42.993   2.588  -2.016  1.00  0.00    -0.122 N 
HETATM    6  C4  UNL     1     -44.382   2.417  -2.090  1.00  0.00     0.705 C 
HETATM    7  N3  UNL     1     -45.120   2.761  -1.101  1.00  0.00    -0.232 N 
HETATM    8  N4  UNL     1     -44.957   1.862  -3.259  1.00  0.00    -0.129 N 
ATOM      9  H32 UNL     1     -44.705   3.161  -0.258  1.00  0.00     0.174 HD
ATOM     10  H31 UNL     1     -46.130   2.637  -1.154  1.00  0.00     0.174 HD
ATOM     11  H4  UNL     1     -44.863   2.376  -4.135  1.00  0.00     0.205 HD
ATOM     12  H2  UNL     1     -42.418   1.753  -1.900  1.00  0.00     0.206 HD
BRANCH   8  13
HETATM   13  N5  UNL     1     -45.643   0.654  -3.274  1.00  0.00    -0.259 N 
HETATM   14  C5  UNL     1     -44.936  -0.576  -3.097  1.00  0.00     0.203 C 
HETATM   15  N6  UNL     1     -43.593  -0.575  -2.623  1.00  0.00    -0.062 NA
HETATM   16  N7  UNL     1     -45.484  -1.706  -3.358  1.00  0.00    -0.363 N 
ATOM     17  H7  UNL     1     -46.445  -1.733  -3.701  1.00  0.00     0.162 HD
ATOM     18  H5  UNL     1     -46.653   0.644  -3.413  1.00  0.00     0.190 HD
BRANCH  16  19
HETATM   19  C6  UNL     1     -44.763  -2.934  -3.173  1.00  0.00     0.130 C 
BRANCH  19  20
HETATM   20  C7  UNL     1     -44.103  -3.245  -4.518  1.00  0.00     0.108 C 
BRANCH  20  21
HETATM   21  C8  UNL     1     -45.103  -3.095  -5.597  1.00  0.00     0.215 C 
HETATM   22  O1  UNL     1     -46.010  -3.946  -5.708  1.00  0.00    -0.288 OA
BRANCH  21  23
HETATM   23  C9  UNL     1     -45.011  -1.968  -6.495  1.00  0.00     0.300 C 
HETATM   24  N8  UNL     1     -43.909  -1.068  -6.364  1.00  0.00    -0.054 NA
HETATM   25  O2  UNL     1     -45.874  -1.774  -7.371  1.00  0.00    -0.268 OA
ENDBRANCH  21  23
ENDBRANCH  20  21
ENDBRANCH  19  20
ENDBRANCH  16  19
ENDBRANCH   8  13
ENDBRANCH   3   5
TORSDOF 6
ENDMDL
MODEL 3
REMARK VINA RESULT: -6.264426272      1.449      2.061
REMARK  6 active torsions:
REMARK  status: ('A' for Active; 'I' for Inactive)
REMARK    1  A    between atoms: N1_3  and  N2_5 
REMARK       I    between atoms: N2_5  and  C4_7 
REMARK       I    between atoms: C4_7  and  N4_11 
REMARK    2  A    between atoms: N4_11  and  N5_13 
REMARK       I    between atoms: N5_13  and  C5_15 
REMARK    3  A    between atoms: N7_17  and  C6_19 
REMARK    4  A    between atoms: C6_19  and  C7_20 
REMARK    5  A    between atoms: C7_20  and  C8_21 
REMARK    6  A    between atoms: C8_21  and  C9_23 
ROOT
HETATM    1  C1  UNL     1     -42.480   4.908  -1.309  1.00  0.00     0.038 C 
HETATM    2  C2  UNL     1     -43.288   4.086  -0.916  1.00  0.00     0.017 C 
HETATM    3  N1  UNL     1     -44.227   3.159  -0.478  1.00  0.00    -0.240 N 
HETATM    4  C3  UNL     1     -44.580   3.130   0.921  1.00  0.00     0.189 C 
ENDROOT
BRANCH   3   5
HETATM    5  N2  UNL     1     -44.808   2.282  -1.387  1.00  0.00    -0.122 N 
HETATM    6  C4  UNL     1     -44.252   1.057  -1.782  1.00  0.00     0.705 C 
HETATM    7  N3  UNL     1     -43.235   1.042  -2.561  1.00  0.00    -0.232 N 
HETATM    8  N4  UNL     1     -44.822  -0.152  -1.316  1.00  0.00    -0.129 N 
ATOM      9  H32 UNL     1     -42.824   1.913  -2.897  1.00  0.00     0.174 HD
ATOM     10  H31 UNL     1     -42.830   0.151  -2.848  1.00  0.00     0.174 HD
ATOM     11  H4  UNL     1     -44.804  -0.341  -0.314  1.00  0.00     0.205 HD
ATOM     12  H2  UNL     1     -45.704   2.549  -1.797  1.00  0.00     0.206 HD
BRANCH   8  13
HETATM   13  N5  UNL     1     -45.405  -1.095  -2.154  1.00  0.00    -0.259 N 
HETATM   14  C5  UNL     1     -44.586  -1.941  -2.965  1.00  0.00     0.203 C 
HETATM   15  N6  UNL     1     -43.186  -2.034  -2.725  1.00  0.00    -0.062 NA
HETATM   16  N7  UNL     1     -45.083  -2.632  -3.924  1.00  0.00    -0.363 N 
ATOM     17  H7  UNL     1     -46.084  -2.580  -4.118  1.00  0.00     0.162 HD
ATOM     18  H5  UNL     1     -46.421  -1.183  -2.191  1.00  0.00     0.190 HD
BRANCH  16  19
HETATM   19  C6  UNL     1     -44.249  -3.479  -4.730  1.00  0.00     0.130 C 
BRANCH  19  20
HETATM   20  C7  UNL     1     -43.630  -2.574  -5.797  1.00  0.00     0.108 C 
BRANCH  20  21
HETATM   21  C8  UNL     1     -44.710  -1.925  -6.570  1.00  0.00     0.215 C 
HETATM   22  O1  UNL     1     -44.506  -0.802  -7.076  1.00  0.00    -0.288 OA
BRANCH  21  23
HETATM   23  C9  UNL     1     -45.976  -2.604  -6.723  1.00  0.00     0.300 C 
HETATM   24  N8  UNL     1     -47.119  -2.100  -6.031  1.00  0.00    -0.054 NA
HETATM   25  O2  UNL     1     -46.078  -3.615  -7.443  1.00  0.00    -0.268 OA
ENDBRANCH  21  23
ENDBRANCH  20  21
ENDBRANCH  19  20
ENDBRANCH  16  19
ENDBRANCH   8  13
ENDBRANCH   3   5
TORSDOF 6
ENDMDL
MODEL 4
REMARK VINA RESULT: -6.144769515      4.397      8.943
REMARK  6 active torsions:
REMARK  status: ('A' for Active; 'I' for Inactive)
REMARK    1  A    between atoms: N1_3  and  N2_5 
REMARK       I    between atoms: N2_5  and  C4_7 
REMARK       I    between atoms: C4_7  and  N4_11 
REMARK    2  A    between atoms: N4_11  and  N5_13 
REMARK       I    between atoms: N5_13  and  C5_15 
REMARK    3  A    between atoms: N7_17  and  C6_19 
REMARK    4  A    between atoms: C6_19  and  C7_20 
REMARK    5  A    between atoms: C7_20  and  C8_21 
REMARK    6  A    between atoms: C8_21  and  C9_23 
ROOT
HETATM    1  C1  UNL     1     -46.520  -2.438  -6.638  1.00  0.00     0.038 C 
HETATM    2  C2  UNL     1     -45.721  -1.940  -5.866  1.00  0.00     0.017 C 
HETATM    3  N1  UNL     1     -44.807  -1.352  -4.999  1.00  0.00    -0.240 N 
HETATM    4  C3  UNL     1     -43.489  -1.927  -4.879  1.00  0.00     0.189 C 
ENDROOT
BRANCH   3   5
HETATM    5  N2  UNL     1     -45.173  -0.228  -4.267  1.00  0.00    -0.122 N 
HETATM    6  C4  UNL     1     -44.641   0.119  -3.018  1.00  0.00     0.705 C 
HETATM    7  N3  UNL     1     -44.973  -0.550  -1.976  1.00  0.00    -0.232 N 
HETATM    8  N4  UNL     1     -43.743   1.209  -2.919  1.00  0.00    -0.129 N 
ATOM      9  H32 UNL     1     -45.621  -1.334  -2.048  1.00  0.00     0.174 HD
ATOM     10  H31 UNL     1     -44.585  -0.298  -1.067  1.00  0.00     0.174 HD
ATOM     11  H4  UNL     1     -42.848   1.144  -3.405  1.00  0.00     0.205 HD
ATOM     12  H2  UNL     1     -45.880   0.389  -4.669  1.00  0.00     0.206 HD
BRANCH   8  13
HETATM   13  N5  UNL     1     -44.016   2.362  -2.194  1.00  0.00    -0.259 N 
HETATM   14  C5  UNL     1     -43.037   3.400  -2.098  1.00  0.00     0.203 C 
HETATM   15  N6  UNL     1     -41.903   3.403  -2.959  1.00  0.00    -0.062 NA
HETATM   16  N7  UNL     1     -43.150   4.348  -1.241  1.00  0.00    -0.363 N 
ATOM     17  H7  UNL     1     -43.952   4.365  -0.611  1.00  0.00     0.162 HD
ATOM     18  H5  UNL     1     -44.917   2.468  -1.728  1.00  0.00     0.190 HD
BRANCH  16  19
HETATM   19  C6  UNL     1     -42.160   5.385  -1.157  1.00  0.00     0.130 C 
BRANCH  19  20
HETATM   20  C7  UNL     1     -41.386   5.129   0.137  1.00  0.00     0.108 C 
BRANCH  20  21
HETATM   21  C8  UNL     1     -41.389   6.361   0.956  1.00  0.00     0.215 C 
HETATM   22  O1  UNL     1     -42.480   6.837   1.334  1.00  0.00    -0.288 OA
BRANCH  21  23
HETATM   23  C9  UNL     1     -40.132   6.984   1.301  1.00  0.00     0.300 C 
HETATM   24  N8  UNL     1     -40.011   7.643   2.562  1.00  0.00    -0.054 NA
HETATM   25  O2  UNL     1     -39.166   6.954   0.517  1.00  0.00    -0.268 OA
ENDBRANCH  21  23
ENDBRANCH  20  21
ENDBRANCH  19  20
ENDBRANCH  16  19
ENDBRANCH   8  13
ENDBRANCH   3   5
TORSDOF 6
ENDMDL
MODEL 5
REMARK VINA RESULT: -6.036202976      5.552      9.885
REMARK  6 active torsions:
REMARK  status: ('A' for Active; 'I' for Inactive)
REMARK    1  A    between atoms: N1_3  and  N2_5 
REMARK       I    between atoms: N2_5  and  C4_7 
REMARK       I    between atoms: C4_7  and  N4_11 
REMARK    2  A    between atoms: N4_11  and  N5_13 
REMARK       I    between atoms: N5_13  and  C5_15 
REMARK    3  A    between atoms: N7_17  and  C6_19 
REMARK    4  A    between atoms: C6_19  and  C7_20 
REMARK    5  A    between atoms: C7_20  and  C8_21 
REMARK    6  A    between atoms: C8_21  and  C9_23 
ROOT
HETATM    1  C1  UNL     1     -44.875  -1.230  -3.733  1.00  0.00     0.038 C 
HETATM    2  C2  UNL     1     -44.923  -0.125  -3.222  1.00  0.00     0.017 C 
HETATM    3  N1  UNL     1     -44.974   1.126  -2.617  1.00  0.00    -0.240 N 
HETATM    4  C3  UNL     1     -46.234   1.829  -2.574  1.00  0.00     0.189 C 
ENDROOT
BRANCH   3   5
HETATM    5  N2  UNL     1     -43.822   1.675  -2.066  1.00  0.00    -0.122 N 
HETATM    6  C4  UNL     1     -42.901   2.465  -2.767  1.00  0.00     0.705 C 
HETATM    7  N3  UNL     1     -42.118   1.922  -3.624  1.00  0.00    -0.232 N 
HETATM    8  N4  UNL     1     -42.843   3.858  -2.519  1.00  0.00    -0.129 N 
ATOM      9  H32 UNL     1     -42.159   0.918  -3.802  1.00  0.00     0.174 HD
ATOM     10  H31 UNL     1     -41.448   2.497  -4.134  1.00  0.00     0.174 HD
ATOM     11  H4  UNL     1     -43.663   4.423  -2.740  1.00  0.00     0.205 HD
ATOM     12  H2  UNL     1     -43.634   1.489  -1.080  1.00  0.00     0.206 HD
BRANCH   8  13
HETATM   13  N5  UNL     1     -41.727   4.495  -1.990  1.00  0.00    -0.259 N 
HETATM   14  C5  UNL     1     -41.781   5.071  -0.683  1.00  0.00     0.203 C 
HETATM   15  N6  UNL     1     -42.856   4.762   0.198  1.00  0.00    -0.062 NA
HETATM   16  N7  UNL     1     -40.873   5.878  -0.270  1.00  0.00    -0.363 N 
ATOM     17  H7  UNL     1     -40.095   6.117  -0.885  1.00  0.00     0.162 HD
ATOM     18  H5  UNL     1     -40.868   4.551  -2.536  1.00  0.00     0.190 HD
BRANCH  16  19
HETATM   19  C6  UNL     1     -40.939   6.448   1.046  1.00  0.00     0.130 C 
BRANCH  19  20
HETATM   20  C7  UNL     1     -39.546   6.274   1.655  1.00  0.00     0.108 C 
BRANCH  20  21
HETATM   21  C8  UNL     1     -39.414   7.164   2.829  1.00  0.00     0.215 C 
HETATM   22  O1  UNL     1     -39.511   8.399   2.669  1.00  0.00    -0.288 OA
BRANCH  21  23
HETATM   23  C9  UNL     1     -39.177   6.586   4.131  1.00  0.00     0.300 C 
HETATM   24  N8  UNL     1     -38.152   5.601   4.274  1.00  0.00    -0.054 NA
HETATM   25  O2  UNL     1     -39.851   6.933   5.118  1.00  0.00    -0.268 OA
ENDBRANCH  21  23
ENDBRANCH  20  21
ENDBRANCH  19  20
ENDBRANCH  16  19
ENDBRANCH   8  13
ENDBRANCH   3   5
TORSDOF 6
ENDMDL
