MODEL 1
REMARK VINA RESULT: -7.756945581      0.000      0.000
REMARK  5 active torsions:
REMARK  status: ('A' for Active; 'I' for Inactive)
REMARK       I    between atoms: C1_4  and  N3_6 
REMARK    1  A    between atoms: N3_6  and  C2_8 
REMARK    2  A    between atoms: C4_10  and  O1_11 
REMARK    3  A    between atoms: O1_11  and  C5_12 
REMARK    4  A    between atoms: C5_12  and  C6_13 
REMARK    5  A    between atoms: C8_17  and  C9_18 
ROOT
HETATM    1  C2  UNL     1      15.097  12.031  59.431  1.00  0.00     0.099 C 
HETATM    2  C3  UNL     1      13.781  11.397  59.852  1.00  0.00     0.058 C 
HETATM    3  C4  UNL     1      13.732  11.421  61.356  1.00  0.00     0.124 C 
HETATM    4  C7  UNL     1      15.044  12.160  61.732  1.00  0.00     0.047 C 
HETATM    5  C8  UNL     1      15.942  11.612  60.645  1.00  0.00     0.100 C 
ENDROOT
BRANCH   1   6
HETATM    6  N3  UNL     1      15.601  11.465  58.221  1.00  0.00    -0.359 N 
HETATM    7  C1  UNL     1      15.352  12.080  56.966  1.00  0.00     0.182 C 
HETATM    8  N1  UNL     1      15.510  13.368  56.812  1.00  0.00    -0.374 N 
HETATM    9  N2  UNL     1      14.928  11.331  55.839  1.00  0.00    -0.064 NA
ATOM     10  H12 UNL     1      15.331  13.810  55.910  1.00  0.00     0.158 HD
ATOM     11  H11 UNL     1      15.815  13.907  57.622  1.00  0.00     0.158 HD
ATOM     12  H3  UNL     1      16.149  10.605  58.259  1.00  0.00     0.162 HD
ENDBRANCH   1   6
BRANCH   5  13
HETATM   13  C9  UNL     1      17.270  12.229  60.624  1.00  0.00     0.237 C 
HETATM   14  N5  UNL     1      18.370  11.540  60.098  1.00  0.00    -0.062 NA
HETATM   15  O3  UNL     1      17.392  13.391  61.088  1.00  0.00    -0.276 OA
ENDBRANCH   5  13
BRANCH   3  16
HETATM   16  O1  UNL     1      12.655  12.068  61.897  1.00  0.00    -0.377 OA
BRANCH  16  17
HETATM   17  C5  UNL     1      12.847  13.432  61.874  1.00  0.00     0.267 C 
BRANCH  17  18
HETATM   18  C6  UNL     1      11.619  14.165  61.537  1.00  0.00     0.254 C 
HETATM   19  N4  UNL     1      11.439  15.477  62.094  1.00  0.00    -0.060 NA
HETATM   20  O2  UNL     1      10.751  13.685  60.797  1.00  0.00    -0.275 OA
ENDBRANCH  17  18
ENDBRANCH  16  17
ENDBRANCH   3  16
TORSDOF 5
ENDMDL
MODEL 2
REMARK VINA RESULT: -7.660316763      1.896      2.037
REMARK  5 active torsions:
REMARK  status: ('A' for Active; 'I' for Inactive)
REMARK       I    between atoms: C1_4  and  N3_6 
REMARK    1  A    between atoms: N3_6  and  C2_8 
REMARK    2  A    between atoms: C4_10  and  O1_11 
REMARK    3  A    between atoms: O1_11  and  C5_12 
REMARK    4  A    between atoms: C5_12  and  C6_13 
REMARK    5  A    between atoms: C8_17  and  C9_18 
ROOT
HETATM    1  C2  UNL     1      14.040  11.772  59.888  1.00  0.00     0.099 C 
HETATM    2  C3  UNL     1      12.992  11.824  60.987  1.00  0.00     0.058 C 
HETATM    3  C4  UNL     1      13.580  12.605  62.131  1.00  0.00     0.124 C 
HETATM    4  C7  UNL     1      14.964  13.037  61.579  1.00  0.00     0.047 C 
HETATM    5  C8  UNL     1      15.294  11.797  60.776  1.00  0.00     0.100 C 
ENDROOT
BRANCH   1   6
HETATM    6  N3  UNL     1      13.960  10.566  59.127  1.00  0.00    -0.359 N 
HETATM    7  C1  UNL     1      13.386  10.555  57.829  1.00  0.00     0.182 C 
HETATM    8  N1  UNL     1      13.704  11.470  56.952  1.00  0.00    -0.374 N 
HETATM    9  N2  UNL     1      12.455   9.562  57.434  1.00  0.00    -0.064 NA
ATOM     10  H12 UNL     1      13.291  11.462  56.019  1.00  0.00     0.158 HD
ATOM     11  H11 UNL     1      14.374  12.185  57.237  1.00  0.00     0.158 HD
ATOM     12  H3  UNL     1      14.322   9.698  59.524  1.00  0.00     0.162 HD
ENDBRANCH   1   6
BRANCH   5  13
HETATM   13  C9  UNL     1      16.520  11.927  59.986  1.00  0.00     0.237 C 
HETATM   14  N5  UNL     1      17.776  11.883  60.603  1.00  0.00    -0.062 NA
HETATM   15  O3  UNL     1      16.412  12.078  58.743  1.00  0.00    -0.276 OA
ENDBRANCH   5  13
BRANCH   3  16
HETATM   16  O1  UNL     1      12.864  13.704  62.520  1.00  0.00    -0.377 OA
BRANCH  16  17
HETATM   17  C5  UNL     1      13.461  14.858  62.064  1.00  0.00     0.267 C 
BRANCH  17  18
HETATM   18  C6  UNL     1      12.509  15.972  61.943  1.00  0.00     0.254 C 
HETATM   19  N4  UNL     1      12.895  17.111  61.159  1.00  0.00    -0.060 NA
HETATM   20  O2  UNL     1      11.402  15.950  62.494  1.00  0.00    -0.275 OA
ENDBRANCH  17  18
ENDBRANCH  16  17
ENDBRANCH   3  16
TORSDOF 5
ENDMDL
MODEL 3
REMARK VINA RESULT: -7.651557648      1.446      1.496
REMARK  5 active torsions:
REMARK  status: ('A' for Active; 'I' for Inactive)
REMARK       I    between atoms: C1_4  and  N3_6 
REMARK    1  A    between atoms: N3_6  and  C2_8 
REMARK    2  A    between atoms: C4_10  and  O1_11 
REMARK    3  A    between atoms: O1_11  and  C5_12 
REMARK    4  A    between atoms: C5_12  and  C6_13 
REMARK    5  A    between atoms: C8_17  and  C9_18 
ROOT
HETATM    1  C2  UNL     1      15.027  12.675  59.267  1.00  0.00     0.099 C 
HETATM    2  C3  UNL     1      13.543  12.525  59.554  1.00  0.00     0.058 C 
HETATM    3  C4  UNL     1      13.333  12.837  61.011  1.00  0.00     0.124 C 
HETATM    4  C7  UNL     1      14.756  13.234  61.486  1.00  0.00     0.047 C 
HETATM    5  C8  UNL     1      15.563  12.265  60.648  1.00  0.00     0.100 C 
ENDROOT
BRANCH   1   6
HETATM    6  N3  UNL     1      15.469  11.778  58.247  1.00  0.00    -0.359 N 
HETATM    7  C1  UNL     1      15.364  12.122  56.873  1.00  0.00     0.182 C 
HETATM    8  N1  UNL     1      15.736  13.302  56.451  1.00  0.00    -0.374 N 
HETATM    9  N2  UNL     1      14.857  11.211  55.913  1.00  0.00    -0.064 NA
ATOM     10  H12 UNL     1      15.660  13.549  55.464  1.00  0.00     0.158 HD
ATOM     11  H11 UNL     1      16.100  13.957  57.143  1.00  0.00     0.158 HD
ATOM     12  H3  UNL     1      15.867  10.876  58.509  1.00  0.00     0.162 HD
ENDBRANCH   1   6
BRANCH   5  13
HETATM   13  C9  UNL     1      17.008  12.470  60.756  1.00  0.00     0.237 C 
HETATM   14  N5  UNL     1      17.902  11.440  60.435  1.00  0.00    -0.062 NA
HETATM   15  O3  UNL     1      17.422  13.592  61.142  1.00  0.00    -0.276 OA
ENDBRANCH   5  13
BRANCH   3  16
HETATM   16  O1  UNL     1      12.450  13.848  61.273  1.00  0.00    -0.377 OA
BRANCH  16  17
HETATM   17  C5  UNL     1      12.813  14.995  60.602  1.00  0.00     0.267 C 
BRANCH  17  18
HETATM   18  C6  UNL     1      12.430  16.214  61.326  1.00  0.00     0.254 C 
HETATM   19  N4  UNL     1      11.389  16.119  62.310  1.00  0.00    -0.060 NA
HETATM   20  O2  UNL     1      12.976  17.304  61.110  1.00  0.00    -0.275 OA
ENDBRANCH  17  18
ENDBRANCH  16  17
ENDBRANCH   3  16
TORSDOF 5
ENDMDL
MODEL 4
REMARK VINA RESULT: -7.578483674      2.343      2.690
REMARK  5 active torsions:
REMARK  status: ('A' for Active; 'I' for Inactive)
REMARK       I    between atoms: C1_4  and  N3_6 
REMARK    1  A    between atoms: N3_6  and  C2_8 
REMARK    2  A    between atoms: C4_10  and  O1_11 
REMARK    3  A    between atoms: O1_11  and  C5_12 
REMARK    4  A    between atoms: C5_12  and  C6_13 
REMARK    5  A    between atoms: C8_17  and  C9_18 
ROOT
HETATM    1  C2  UNL     1      13.683  11.915  58.785  1.00  0.00     0.099 C 
HETATM    2  C3  UNL     1      12.580  12.456  59.680  1.00  0.00     0.058 C 
HETATM    3  C4  UNL     1      13.163  13.594  60.474  1.00  0.00     0.124 C 
HETATM    4  C7  UNL     1      14.609  13.695  59.919  1.00  0.00     0.047 C 
HETATM    5  C8  UNL     1      14.880  12.223  59.698  1.00  0.00     0.100 C 
ENDROOT
BRANCH   1   6
HETATM    6  N3  UNL     1      13.546  10.512  58.555  1.00  0.00    -0.359 N 
HETATM    7  C1  UNL     1      13.214  10.010  57.269  1.00  0.00     0.182 C 
HETATM    8  N1  UNL     1      13.823  10.456  56.202  1.00  0.00    -0.374 N 
HETATM    9  N2  UNL     1      12.221   9.014  57.091  1.00  0.00    -0.064 NA
ATOM     10  H12 UNL     1      13.584  10.095  55.278  1.00  0.00     0.158 HD
ATOM     11  H11 UNL     1      14.537  11.172  56.330  1.00  0.00     0.158 HD
ATOM     12  H3  UNL     1      13.690   9.860  59.327  1.00  0.00     0.162 HD
ENDBRANCH   1   6
BRANCH   5  13
HETATM   13  C9  UNL     1      16.156  11.962  59.031  1.00  0.00     0.237 C 
HETATM   14  N5  UNL     1      17.333  11.804  59.774  1.00  0.00    -0.062 NA
HETATM   15  O3  UNL     1      16.166  11.883  57.776  1.00  0.00    -0.276 OA
ENDBRANCH   5  13
BRANCH   3  16
HETATM   16  O1  UNL     1      12.521  14.793  60.337  1.00  0.00    -0.377 OA
BRANCH  16  17
HETATM   17  C5  UNL     1      12.052  15.235  61.554  1.00  0.00     0.267 C 
BRANCH  17  18
HETATM   18  C6  UNL     1      12.549  16.575  61.894  1.00  0.00     0.254 C 
HETATM   19  N4  UNL     1      12.466  17.001  63.263  1.00  0.00    -0.060 NA
HETATM   20  O2  UNL     1      13.029  17.332  61.041  1.00  0.00    -0.275 OA
ENDBRANCH  17  18
ENDBRANCH  16  17
ENDBRANCH   3  16
TORSDOF 5
ENDMDL
MODEL 5
REMARK VINA RESULT: -7.528853274      2.519      5.704
REMARK  5 active torsions:
REMARK  status: ('A' for Active; 'I' for Inactive)
REMARK       I    between atoms: C1_4  and  N3_6 
REMARK    1  A    between atoms: N3_6  and  C2_8 
REMARK    2  A    between atoms: C4_10  and  O1_11 
REMARK    3  A    between atoms: O1_11  and  C5_12 
REMARK    4  A    between atoms: C5_12  and  C6_13 
REMARK    5  A    between atoms: C8_17  and  C9_18 
ROOT
HETATM    1  C2  UNL     1      13.819  12.840  61.334  1.00  0.00     0.099 C 
HETATM    2  C3  UNL     1      14.537  11.577  60.890  1.00  0.00     0.058 C 
HETATM    3  C4  UNL     1      13.851  11.085  59.644  1.00  0.00     0.124 C 
HETATM    4  C7  UNL     1      12.776  12.175  59.390  1.00  0.00     0.047 C 
HETATM    5  C8  UNL     1      12.413  12.486  60.826  1.00  0.00     0.100 C 
ENDROOT
BRANCH   1   6
HETATM    6  N3  UNL     1      13.839  12.997  62.754  1.00  0.00    -0.359 N 
HETATM    7  C1  UNL     1      14.409  14.150  63.355  1.00  0.00     0.182 C 
HETATM    8  N1  UNL     1      14.133  15.344  62.901  1.00  0.00    -0.374 N 
HETATM    9  N2  UNL     1      15.291  14.056  64.461  1.00  0.00    -0.064 NA
ATOM     10  H12 UNL     1      14.543  16.172  63.334  1.00  0.00     0.158 HD
ATOM     11  H11 UNL     1      13.499  15.412  62.105  1.00  0.00     0.158 HD
ATOM     12  H3  UNL     1      13.438  12.269  63.345  1.00  0.00     0.162 HD
ENDBRANCH   1   6
BRANCH   5  13
HETATM   13  C9  UNL     1      11.486  13.612  60.958  1.00  0.00     0.237 C 
HETATM   14  N5  UNL     1      10.705  14.026  59.871  1.00  0.00    -0.062 NA
HETATM   15  O3  UNL     1      11.410  14.192  62.071  1.00  0.00    -0.276 OA
ENDBRANCH   5  13
BRANCH   3  16
HETATM   16  O1  UNL     1      14.655  10.951  58.546  1.00  0.00    -0.377 OA
BRANCH  16  17
HETATM   17  C5  UNL     1      15.318  12.129  58.283  1.00  0.00     0.267 C 
BRANCH  17  18
HETATM   18  C6  UNL     1      15.291  12.483  56.858  1.00  0.00     0.254 C 
HETATM   19  N4  UNL     1      14.897  11.472  55.916  1.00  0.00    -0.060 NA
HETATM   20  O2  UNL     1      15.595  13.613  56.457  1.00  0.00    -0.275 OA
ENDBRANCH  17  18
ENDBRANCH  16  17
ENDBRANCH   3  16
TORSDOF 5
ENDMDL
