MODEL 1
REMARK VINA RESULT: -6.154992462      0.000      0.000
REMARK  7 active torsions:
REMARK  status: ('A' for Active; 'I' for Inactive)
REMARK    1  A    between atoms: C2_4  and  N2_5 
REMARK    2  A    between atoms: C2_4  and  O1_11 
REMARK    3  A    between atoms: N2_5  and  C3_7 
REMARK    4  A    between atoms: O1_11  and  N3_12 
REMARK    5  A    between atoms: N3_12  and  C7_13 
REMARK    6  A    between atoms: C7_13  and  C14_23 
REMARK    7  A    between atoms: N4_14  and  C8_16 
ROOT
HETATM    1  C7  UNL     1      68.136  78.681  23.342  1.00  0.00     0.193 C 
HETATM    2  N4  UNL     1      67.655  77.454  23.349  1.00  0.00    -0.332 N 
ATOM      3  H4  UNL     1      67.536  76.977  22.456  1.00  0.00     0.168 HD
ENDROOT
BRANCH   1   4
HETATM    4  N3  UNL     1      68.488  79.365  22.207  1.00  0.00    -0.258 NA
BRANCH   4   5
HETATM    5  O1  UNL     1      68.814  79.996  21.159  1.00  0.00    -0.127 OA
BRANCH   5   6
HETATM    6  C2  UNL     1      69.795  80.717  20.579  1.00  0.00     0.254 C 
HETATM    7  N1  UNL     1      69.613  81.324  19.500  1.00  0.00    -0.358 N 
HETATM    8  C1  UNL     1      68.543  81.485  18.618  1.00  0.00     0.150 C 
ATOM      9  H1  UNL     1      70.448  81.822  19.191  1.00  0.00     0.162 HD
BRANCH   6  10
HETATM   10  N2  UNL     1      71.112  80.791  21.229  1.00  0.00    -0.346 N 
ATOM     11  H2  UNL     1      71.800  80.068  21.018  1.00  0.00     0.164 HD
BRANCH  10  12
HETATM   12  C3  UNL     1      71.472  81.824  22.138  1.00  0.00     0.022 C 
HETATM   13  C4  UNL     1      70.296  82.626  22.651  1.00  0.00     0.037 C 
HETATM   14  C5  UNL     1      72.241  81.198  23.294  1.00  0.00     0.037 C 
HETATM   15  C6  UNL     1      72.443  82.760  21.451  1.00  0.00     0.037 C 
ENDBRANCH  10  12
ENDBRANCH   6  10
ENDBRANCH   5   6
ENDBRANCH   4   5
ENDBRANCH   1   4
BRANCH   1  16
HETATM   16  C14 UNL     1      68.230  79.288  24.717  1.00  0.00     0.063 C 
HETATM   17  C15 UNL     1      69.627  79.456  25.210  1.00  0.00     0.018 C 
HETATM   18  C16 UNL     1      67.580  80.684  24.685  1.00  0.00     0.018 C 
ENDBRANCH   1  16
BRANCH   2  19
HETATM   19  C8  UNL     1      67.298  76.771  24.520  1.00  0.00     0.034 A 
HETATM   20  C9  UNL     1      66.036  76.870  25.089  1.00  0.00     0.031 A 
HETATM   21  C10 UNL     1      65.666  76.208  26.240  1.00  0.00     0.026 A 
HETATM   22  C11 UNL     1      66.572  75.401  26.876  1.00  0.00     0.034 A 
HETATM   23 CL1  UNL     1      66.090  74.563  28.337  1.00  0.00    -0.084 Cl
HETATM   24  C12 UNL     1      67.841  75.269  26.350  1.00  0.00     0.026 A 
HETATM   25  C13 UNL     1      68.189  75.938  25.202  1.00  0.00     0.031 A 
ENDBRANCH   2  19
TORSDOF 7
ENDMDL
MODEL 2
REMARK VINA RESULT: -6.152275396      0.036      1.007
REMARK  7 active torsions:
REMARK  status: ('A' for Active; 'I' for Inactive)
REMARK    1  A    between atoms: C2_4  and  N2_5 
REMARK    2  A    between atoms: C2_4  and  O1_11 
REMARK    3  A    between atoms: N2_5  and  C3_7 
REMARK    4  A    between atoms: O1_11  and  N3_12 
REMARK    5  A    between atoms: N3_12  and  C7_13 
REMARK    6  A    between atoms: C7_13  and  C14_23 
REMARK    7  A    between atoms: N4_14  and  C8_16 
ROOT
HETATM    1  C7  UNL     1      68.145  78.695  23.351  1.00  0.00     0.193 C 
HETATM    2  N4  UNL     1      67.677  77.463  23.365  1.00  0.00    -0.332 N 
ATOM      3  H4  UNL     1      67.571  76.977  22.475  1.00  0.00     0.168 HD
ENDROOT
BRANCH   1   4
HETATM    4  N3  UNL     1      68.498  79.373  22.214  1.00  0.00    -0.258 NA
BRANCH   4   5
HETATM    5  O1  UNL     1      68.826  79.999  21.163  1.00  0.00    -0.127 OA
BRANCH   5   6
HETATM    6  C2  UNL     1      69.806  80.720  20.582  1.00  0.00     0.254 C 
HETATM    7  N1  UNL     1      69.624  81.327  19.504  1.00  0.00    -0.358 N 
HETATM    8  C1  UNL     1      68.553  81.486  18.622  1.00  0.00     0.150 C 
ATOM      9  H1  UNL     1      70.458  81.826  19.194  1.00  0.00     0.162 HD
BRANCH   6  10
HETATM   10  N2  UNL     1      71.124  80.796  21.232  1.00  0.00    -0.346 N 
ATOM     11  H2  UNL     1      71.814  80.078  21.016  1.00  0.00     0.164 HD
BRANCH  10  12
HETATM   12  C3  UNL     1      71.480  81.825  22.148  1.00  0.00     0.022 C 
HETATM   13  C4  UNL     1      70.303  82.632  22.651  1.00  0.00     0.037 C 
HETATM   14  C5  UNL     1      72.233  81.191  23.310  1.00  0.00     0.037 C 
HETATM   15  C6  UNL     1      72.463  82.757  21.473  1.00  0.00     0.037 C 
ENDBRANCH  10  12
ENDBRANCH   6  10
ENDBRANCH   5   6
ENDBRANCH   4   5
ENDBRANCH   1   4
BRANCH   1  16
HETATM   16  C14 UNL     1      68.221  79.314  24.722  1.00  0.00     0.063 C 
HETATM   17  C15 UNL     1      69.610  79.470  25.240  1.00  0.00     0.018 C 
HETATM   18  C16 UNL     1      67.589  80.718  24.664  1.00  0.00     0.018 C 
ENDBRANCH   1  16
BRANCH   2  19
HETATM   19  C8  UNL     1      67.318  76.785  24.539  1.00  0.00     0.034 A 
HETATM   20  C9  UNL     1      68.203  75.970  25.232  1.00  0.00     0.031 A 
HETATM   21  C10 UNL     1      67.870  75.295  26.386  1.00  0.00     0.026 A 
HETATM   22  C11 UNL     1      66.606  75.418  26.900  1.00  0.00     0.034 A 
HETATM   23 CL1  UNL     1      66.195  74.556  28.369  1.00  0.00    -0.084 Cl
HETATM   24  C12 UNL     1      65.689  76.217  26.248  1.00  0.00     0.026 A 
HETATM   25  C13 UNL     1      66.042  76.881  25.098  1.00  0.00     0.031 A 
ENDBRANCH   2  19
TORSDOF 7
ENDMDL
MODEL 3
REMARK VINA RESULT: -5.962473172      4.605      7.159
REMARK  7 active torsions:
REMARK  status: ('A' for Active; 'I' for Inactive)
REMARK    1  A    between atoms: C2_4  and  N2_5 
REMARK    2  A    between atoms: C2_4  and  O1_11 
REMARK    3  A    between atoms: N2_5  and  C3_7 
REMARK    4  A    between atoms: O1_11  and  N3_12 
REMARK    5  A    between atoms: N3_12  and  C7_13 
REMARK    6  A    between atoms: C7_13  and  C14_23 
REMARK    7  A    between atoms: N4_14  and  C8_16 
ROOT
HETATM    1  C7  UNL     1      71.705  79.589  26.047  1.00  0.00     0.193 C 
HETATM    2  N4  UNL     1      72.482  79.664  27.109  1.00  0.00    -0.332 N 
ATOM      3  H4  UNL     1      72.075  80.000  27.982  1.00  0.00     0.168 HD
ENDROOT
BRANCH   1   4
HETATM    4  N3  UNL     1      70.380  79.937  26.035  1.00  0.00    -0.258 NA
BRANCH   4   5
HETATM    5  O1  UNL     1      69.155  80.258  26.024  1.00  0.00    -0.127 OA
BRANCH   5   6
HETATM    6  C2  UNL     1      67.977  80.049  25.402  1.00  0.00     0.254 C 
HETATM    7  N1  UNL     1      67.422  80.945  24.729  1.00  0.00    -0.358 N 
HETATM    8  C1  UNL     1      67.719  82.270  24.400  1.00  0.00     0.150 C 
ATOM      9  H1  UNL     1      66.540  80.634  24.321  1.00  0.00     0.162 HD
BRANCH   6  10
HETATM   10  N2  UNL     1      67.328  78.733  25.516  1.00  0.00    -0.346 N 
ATOM     11  H2  UNL     1      66.609  78.607  26.228  1.00  0.00     0.164 HD
BRANCH  10  12
HETATM   12  C3  UNL     1      67.655  77.630  24.680  1.00  0.00     0.022 C 
HETATM   13  C4  UNL     1      68.345  78.021  23.391  1.00  0.00     0.037 C 
HETATM   14  C5  UNL     1      68.518  76.663  25.480  1.00  0.00     0.037 C 
HETATM   15  C6  UNL     1      66.384  76.878  24.348  1.00  0.00     0.037 C 
ENDBRANCH  10  12
ENDBRANCH   6  10
ENDBRANCH   5   6
ENDBRANCH   4   5
ENDBRANCH   1   4
BRANCH   1  16
HETATM   16  C14 UNL     1      72.431  79.114  24.816  1.00  0.00     0.063 C 
HETATM   17  C15 UNL     1      71.934  77.813  24.285  1.00  0.00     0.018 C 
HETATM   18  C16 UNL     1      72.254  80.165  23.704  1.00  0.00     0.018 C 
ENDBRANCH   1  16
BRANCH   2  19
HETATM   19  C8  UNL     1      73.838  79.305  27.103  1.00  0.00     0.034 A 
HETATM   20  C9  UNL     1      74.819  80.101  26.527  1.00  0.00     0.031 A 
HETATM   21  C10 UNL     1      76.156  79.766  26.509  1.00  0.00     0.026 A 
HETATM   22  C11 UNL     1      76.566  78.592  27.083  1.00  0.00     0.034 A 
HETATM   23 CL1  UNL     1      78.268  78.178  27.055  1.00  0.00    -0.084 Cl
HETATM   24  C12 UNL     1      75.628  77.766  27.668  1.00  0.00     0.026 A 
HETATM   25  C13 UNL     1      74.301  78.118  27.675  1.00  0.00     0.031 A 
ENDBRANCH   2  19
TORSDOF 7
ENDMDL
MODEL 4
REMARK VINA RESULT: -5.931129587      4.676      6.972
REMARK  7 active torsions:
REMARK  status: ('A' for Active; 'I' for Inactive)
REMARK    1  A    between atoms: C2_4  and  N2_5 
REMARK    2  A    between atoms: C2_4  and  O1_11 
REMARK    3  A    between atoms: N2_5  and  C3_7 
REMARK    4  A    between atoms: O1_11  and  N3_12 
REMARK    5  A    between atoms: N3_12  and  C7_13 
REMARK    6  A    between atoms: C7_13  and  C14_23 
REMARK    7  A    between atoms: N4_14  and  C8_16 
ROOT
HETATM    1  C7  UNL     1      71.540  78.782  26.192  1.00  0.00     0.193 C 
HETATM    2  N4  UNL     1      72.303  78.968  27.250  1.00  0.00    -0.332 N 
ATOM      3  H4  UNL     1      71.851  79.161  28.143  1.00  0.00     0.168 HD
ENDROOT
BRANCH   1   4
HETATM    4  N3  UNL     1      70.171  78.834  26.210  1.00  0.00    -0.258 NA
BRANCH   4   5
HETATM    5  O1  UNL     1      68.905  78.883  26.227  1.00  0.00    -0.127 OA
BRANCH   5   6
HETATM    6  C2  UNL     1      67.805  78.946  25.450  1.00  0.00     0.254 C 
HETATM    7  N1  UNL     1      67.037  77.967  25.319  1.00  0.00    -0.358 N 
HETATM    8  C1  UNL     1      66.996  76.662  25.817  1.00  0.00     0.150 C 
ATOM      9  H1  UNL     1      66.251  78.170  24.701  1.00  0.00     0.162 HD
BRANCH   6  10
HETATM   10  N2  UNL     1      67.498  80.196  24.737  1.00  0.00    -0.346 N 
ATOM     11  H2  UNL     1      66.734  80.776  25.082  1.00  0.00     0.164 HD
BRANCH  10  12
HETATM   12  C3  UNL     1      68.218  80.633  23.591  1.00  0.00     0.022 C 
HETATM   13  C4  UNL     1      68.911  79.517  22.840  1.00  0.00     0.037 C 
HETATM   14  C5  UNL     1      67.256  81.380  22.678  1.00  0.00     0.037 C 
HETATM   15  C6  UNL     1      69.254  81.648  24.026  1.00  0.00     0.037 C 
ENDBRANCH  10  12
ENDBRANCH   6  10
ENDBRANCH   5   6
ENDBRANCH   4   5
ENDBRANCH   1   4
BRANCH   1  16
HETATM   16  C14 UNL     1      72.326  78.541  24.930  1.00  0.00     0.063 C 
HETATM   17  C15 UNL     1      71.797  77.427  24.091  1.00  0.00     0.018 C 
HETATM   18  C16 UNL     1      72.290  79.821  24.075  1.00  0.00     0.018 C 
ENDBRANCH   1  16
BRANCH   2  19
HETATM   19  C8  UNL     1      73.704  78.912  27.212  1.00  0.00     0.034 A 
HETATM   20  C9  UNL     1      74.426  77.865  27.769  1.00  0.00     0.031 A 
HETATM   21  C10 UNL     1      75.802  77.793  27.744  1.00  0.00     0.026 A 
HETATM   22  C11 UNL     1      76.520  78.792  27.141  1.00  0.00     0.034 A 
HETATM   23 CL1  UNL     1      78.269  78.688  27.114  1.00  0.00    -0.084 Cl
HETATM   24  C12 UNL     1      75.848  79.855  26.573  1.00  0.00     0.026 A 
HETATM   25  C13 UNL     1      74.477  79.908  26.610  1.00  0.00     0.031 A 
ENDBRANCH   2  19
TORSDOF 7
ENDMDL
MODEL 5
REMARK VINA RESULT: -5.833520789      4.736      7.043
REMARK  7 active torsions:
REMARK  status: ('A' for Active; 'I' for Inactive)
REMARK    1  A    between atoms: C2_4  and  N2_5 
REMARK    2  A    between atoms: C2_4  and  O1_11 
REMARK    3  A    between atoms: N2_5  and  C3_7 
REMARK    4  A    between atoms: O1_11  and  N3_12 
REMARK    5  A    between atoms: N3_12  and  C7_13 
REMARK    6  A    between atoms: C7_13  and  C14_23 
REMARK    7  A    between atoms: N4_14  and  C8_16 
ROOT
HETATM    1  C7  UNL     1      71.532  78.808  26.564  1.00  0.00     0.193 C 
HETATM    2  N4  UNL     1      72.555  78.002  26.357  1.00  0.00    -0.332 N 
ATOM      3  H4  UNL     1      72.369  77.073  25.980  1.00  0.00     0.168 HD
ENDROOT
BRANCH   1   4
HETATM    4  N3  UNL     1      70.227  78.478  26.308  1.00  0.00    -0.258 NA
BRANCH   4   5
HETATM    5  O1  UNL     1      69.021  78.173  26.070  1.00  0.00    -0.127 OA
BRANCH   5   6
HETATM    6  C2  UNL     1      67.880  78.602  25.494  1.00  0.00     0.254 C 
HETATM    7  N1  UNL     1      66.861  77.878  25.437  1.00  0.00    -0.358 N 
HETATM    8  C1  UNL     1      66.535  76.586  25.857  1.00  0.00     0.150 C 
ATOM      9  H1  UNL     1      66.081  78.343  24.973  1.00  0.00     0.162 HD
BRANCH   6  10
HETATM   10  N2  UNL     1      67.830  79.954  24.918  1.00  0.00    -0.346 N 
ATOM     11  H2  UNL     1      67.538  80.727  25.517  1.00  0.00     0.164 HD
BRANCH  10  12
HETATM   12  C3  UNL     1      68.169  80.235  23.566  1.00  0.00     0.022 C 
HETATM   13  C4  UNL     1      67.809  79.127  22.600  1.00  0.00     0.037 C 
HETATM   14  C5  UNL     1      67.493  81.539  23.164  1.00  0.00     0.037 C 
HETATM   15  C6  UNL     1      69.658  80.495  23.482  1.00  0.00     0.037 C 
ENDBRANCH  10  12
ENDBRANCH   6  10
ENDBRANCH   5   6
ENDBRANCH   4   5
ENDBRANCH   1   4
BRANCH   1  16
HETATM   16  C14 UNL     1      71.933  80.134  27.154  1.00  0.00     0.063 C 
HETATM   17  C15 UNL     1      70.991  81.246  26.839  1.00  0.00     0.018 C 
HETATM   18  C16 UNL     1      71.988  79.994  28.688  1.00  0.00     0.018 C 
ENDBRANCH   1  16
BRANCH   2  19
HETATM   19  C8  UNL     1      73.885  78.357  26.627  1.00  0.00     0.034 A 
HETATM   20  C9  UNL     1      74.522  79.411  25.987  1.00  0.00     0.031 A 
HETATM   21  C10 UNL     1      75.828  79.775  26.237  1.00  0.00     0.026 A 
HETATM   22  C11 UNL     1      76.558  79.077  27.162  1.00  0.00     0.034 A 
HETATM   23 CL1  UNL     1      78.216  79.549  27.473  1.00  0.00    -0.084 Cl
HETATM   24  C12 UNL     1      75.969  78.019  27.826  1.00  0.00     0.026 A 
HETATM   25  C13 UNL     1      74.667  77.674  27.561  1.00  0.00     0.031 A 
ENDBRANCH   2  19
TORSDOF 7
ENDMDL
