MODEL 1
REMARK VINA RESULT: -6.393642644      0.000      0.000
REMARK  10 active torsions:
REMARK  status: ('A' for Active; 'I' for Inactive)
REMARK       I    between atoms: C2_2  and  N1_4 
REMARK    1  A    between atoms: N1_4  and  C3_6 
REMARK    2  A    between atoms: C6_10  and  O3_11 
REMARK    3  A    between atoms: O3_11  and  C7_12 
REMARK    4  A    between atoms: C8_14  and  C9_15 
REMARK    5  A    between atoms: C11_18  and  O5_19 
REMARK    6  A    between atoms: C12_21  and  N2_22 
REMARK       I    between atoms: N2_22  and  C13_24 
REMARK    7  A    between atoms: C15_28  and  N3_29 
REMARK    8  A    between atoms: N3_29  and  C16_31 
REMARK    9  A    between atoms: C16_31  and  N4_33 
REMARK   10  A    between atoms: N4_33  and  O8_35 
ROOT
HETATM    1  C3  UNL     1       5.166  49.240  -5.987  1.00  0.00     0.162 C 
HETATM    2  C4  UNL     1       5.752  50.395  -6.795  1.00  0.00     0.150 C 
HETATM    3  C5  UNL     1       4.936  50.535  -8.054  1.00  0.00     0.042 C 
HETATM    4  O2  UNL     1       5.667  51.581  -6.084  1.00  0.00    -0.332 OA
HETATM    5  C6  UNL     1       6.195  51.581  -4.833  1.00  0.00     0.417 C 
HETATM    6  O7  UNL     1       6.192  50.354  -4.217  1.00  0.00    -0.312 OA
HETATM    7  C15 UNL     1       5.065  49.643  -4.530  1.00  0.00     0.253 C 
ENDROOT
BRANCH   5   8
HETATM    8  O3  UNL     1       7.535  51.998  -4.892  1.00  0.00    -0.306 OA
BRANCH   8   9
HETATM    9  C7  UNL     1       7.714  53.188  -5.577  1.00  0.00     0.290 C 
HETATM   10  O4  UNL     1       7.539  54.301  -4.787  1.00  0.00    -0.353 OA
HETATM   11  C8  UNL     1       8.601  54.814  -4.139  1.00  0.00     0.137 C 
HETATM   12  C10 UNL     1       9.893  54.872  -4.875  1.00  0.00     0.067 C 
HETATM   13  C11 UNL     1      10.191  53.553  -5.551  1.00  0.00     0.148 C 
HETATM   14  C12 UNL     1       8.977  53.246  -6.398  1.00  0.00     0.168 C 
BRANCH  11  15
HETATM   15  C9  UNL     1       8.839  54.202  -2.758  1.00  0.00     0.118 C 
HETATM   16  S1  UNL     1       7.261  54.160  -1.826  1.00  0.00    -0.095 SA
ENDBRANCH  11  15
BRANCH  13  17
HETATM   17  O5  UNL     1      10.517  52.575  -4.660  1.00  0.00    -0.393 OA
ATOM     18  H5  UNL     1      10.856  51.797  -5.085  1.00  0.00     0.210 HD
ENDBRANCH  13  17
BRANCH  14  19
HETATM   19  N2  UNL     1       9.139  52.124  -7.241  1.00  0.00    -0.349 N 
HETATM   20  C13 UNL     1       8.587  52.093  -8.543  1.00  0.00     0.214 C 
HETATM   21  C14 UNL     1       8.735  50.933  -9.457  1.00  0.00     0.117 C 
HETATM   22  O6  UNL     1       7.920  53.084  -9.004  1.00  0.00    -0.274 OA
ATOM     23  H2  UNL     1       9.667  51.319  -6.904  1.00  0.00     0.163 HD
ENDBRANCH  14  19
ENDBRANCH   8   9
ENDBRANCH   5   8
BRANCH   7  24
HETATM   24  N3  UNL     1       3.860  50.316  -4.189  1.00  0.00    -0.337 N 
ATOM     25  H3  UNL     1       3.890  51.334  -4.144  1.00  0.00     0.164 HD
BRANCH  24  26
HETATM   26  C16 UNL     1       2.625  49.690  -3.907  1.00  0.00     0.193 C 
HETATM   27  S2  UNL     1       1.291  50.606  -3.717  1.00  0.00    -0.039 SA
BRANCH  26  28
HETATM   28  N4  UNL     1       2.500  48.274  -3.799  1.00  0.00    -0.244 N 
ATOM     29  H4  UNL     1       2.743  47.674  -4.587  1.00  0.00     0.196 HD
BRANCH  28  30
HETATM   30  O8  UNL     1       2.059  47.737  -2.651  1.00  0.00    -0.288 OA
ATOM     31  H8  UNL     1       1.977  46.793  -2.578  1.00  0.00     0.244 HD
ENDBRANCH  28  30
ENDBRANCH  26  28
ENDBRANCH  24  26
ENDBRANCH   7  24
BRANCH   1  32
HETATM   32  N1  UNL     1       6.052  48.115  -6.171  1.00  0.00    -0.350 N 
HETATM   33  C2  UNL     1       5.788  46.822  -5.644  1.00  0.00     0.214 C 
HETATM   34  C1  UNL     1       6.716  45.677  -5.843  1.00  0.00     0.117 C 
HETATM   35  O1  UNL     1       4.743  46.648  -4.994  1.00  0.00    -0.274 OA
ATOM     36  H1  UNL     1       6.910  48.254  -6.705  1.00  0.00     0.163 HD
ENDBRANCH   1  32
TORSDOF 10
ENDMDL
MODEL 2
REMARK VINA RESULT: -6.059066264      3.495      5.567
REMARK  10 active torsions:
REMARK  status: ('A' for Active; 'I' for Inactive)
REMARK       I    between atoms: C2_2  and  N1_4 
REMARK    1  A    between atoms: N1_4  and  C3_6 
REMARK    2  A    between atoms: C6_10  and  O3_11 
REMARK    3  A    between atoms: O3_11  and  C7_12 
REMARK    4  A    between atoms: C8_14  and  C9_15 
REMARK    5  A    between atoms: C11_18  and  O5_19 
REMARK    6  A    between atoms: C12_21  and  N2_22 
REMARK       I    between atoms: N2_22  and  C13_24 
REMARK    7  A    between atoms: C15_28  and  N3_29 
REMARK    8  A    between atoms: N3_29  and  C16_31 
REMARK    9  A    between atoms: C16_31  and  N4_33 
REMARK   10  A    between atoms: N4_33  and  O8_35 
ROOT
HETATM    1  C3  UNL     1       0.878  49.685  -4.138  1.00  0.00     0.162 C 
HETATM    2  C4  UNL     1       2.312  49.313  -4.509  1.00  0.00     0.150 C 
HETATM    3  C5  UNL     1       2.459  47.823  -4.335  1.00  0.00     0.042 C 
HETATM    4  O2  UNL     1       2.571  49.626  -5.834  1.00  0.00    -0.332 OA
HETATM    5  C6  UNL     1       2.312  50.903  -6.220  1.00  0.00     0.417 C 
HETATM    6  O7  UNL     1       1.323  51.523  -5.498  1.00  0.00    -0.312 OA
HETATM    7  C15 UNL     1       0.324  50.647  -5.168  1.00  0.00     0.253 C 
ENDROOT
BRANCH   5   8
HETATM    8  O3  UNL     1       3.471  51.680  -6.066  1.00  0.00    -0.306 OA
BRANCH   8   9
HETATM    9  C7  UNL     1       4.495  51.324  -6.926  1.00  0.00     0.290 C 
HETATM   10  O4  UNL     1       4.642  52.192  -7.984  1.00  0.00    -0.353 OA
HETATM   11  C8  UNL     1       5.468  53.245  -7.852  1.00  0.00     0.137 C 
HETATM   12  C10 UNL     1       6.763  53.021  -7.154  1.00  0.00     0.067 C 
HETATM   13  C11 UNL     1       6.558  52.263  -5.862  1.00  0.00     0.148 C 
HETATM   14  C12 UNL     1       5.801  51.010  -6.241  1.00  0.00     0.168 C 
BRANCH  11  15
HETATM   15  C9  UNL     1       4.797  54.491  -7.272  1.00  0.00     0.118 C 
HETATM   16  S1  UNL     1       4.042  55.467  -8.627  1.00  0.00    -0.095 SA
ENDBRANCH  11  15
BRANCH  13  17
HETATM   17  O5  UNL     1       5.949  53.021  -4.908  1.00  0.00    -0.393 OA
ATOM     18  H5  UNL     1       5.901  52.576  -4.069  1.00  0.00     0.210 HD
ENDBRANCH  13  17
BRANCH  14  19
HETATM   19  N2  UNL     1       5.660  50.087  -5.181  1.00  0.00    -0.349 N 
HETATM   20  C13 UNL     1       5.904  48.707  -5.366  1.00  0.00     0.214 C 
HETATM   21  C14 UNL     1       5.766  47.707  -4.278  1.00  0.00     0.117 C 
HETATM   22  O6  UNL     1       6.265  48.245  -6.505  1.00  0.00    -0.274 OA
ATOM     23  H2  UNL     1       5.376  50.424  -4.261  1.00  0.00     0.163 HD
ENDBRANCH  14  19
ENDBRANCH   8   9
ENDBRANCH   5   8
BRANCH   7  24
HETATM   24  N3  UNL     1      -0.273  50.021  -6.296  1.00  0.00    -0.337 N 
ATOM     25  H3  UNL     1       0.212  49.220  -6.697  1.00  0.00     0.164 HD
BRANCH  24  26
HETATM   26  C16 UNL     1      -1.484  50.420  -6.907  1.00  0.00     0.193 C 
HETATM   27  S2  UNL     1      -1.496  50.774  -8.497  1.00  0.00    -0.039 SA
BRANCH  26  28
HETATM   28  N4  UNL     1      -2.708  50.507  -6.180  1.00  0.00    -0.244 N 
ATOM     29  H4  UNL     1      -3.557  50.833  -6.641  1.00  0.00     0.196 HD
BRANCH  28  30
HETATM   30  O8  UNL     1      -2.732  50.156  -4.886  1.00  0.00    -0.288 OA
ATOM     31  H8  UNL     1      -2.383  50.752  -4.234  1.00  0.00     0.244 HD
ENDBRANCH  28  30
ENDBRANCH  26  28
ENDBRANCH  24  26
ENDBRANCH   7  24
BRANCH   1  32
HETATM   32  N1  UNL     1       0.933  50.280  -2.823  1.00  0.00    -0.350 N 
HETATM   33  C2  UNL     1      -0.141  50.216  -1.895  1.00  0.00     0.214 C 
HETATM   34  C1  UNL     1      -0.065  50.838  -0.547  1.00  0.00     0.117 C 
HETATM   35  O1  UNL     1      -1.179  49.617  -2.229  1.00  0.00    -0.274 OA
ATOM     36  H1  UNL     1       1.784  50.770  -2.547  1.00  0.00     0.163 HD
ENDBRANCH   1  32
TORSDOF 10
ENDMDL
MODEL 3
REMARK VINA RESULT: -6.020000628      2.725      4.824
REMARK  10 active torsions:
REMARK  status: ('A' for Active; 'I' for Inactive)
REMARK       I    between atoms: C2_2  and  N1_4 
REMARK    1  A    between atoms: N1_4  and  C3_6 
REMARK    2  A    between atoms: C6_10  and  O3_11 
REMARK    3  A    between atoms: O3_11  and  C7_12 
REMARK    4  A    between atoms: C8_14  and  C9_15 
REMARK    5  A    between atoms: C11_18  and  O5_19 
REMARK    6  A    between atoms: C12_21  and  N2_22 
REMARK       I    between atoms: N2_22  and  C13_24 
REMARK    7  A    between atoms: C15_28  and  N3_29 
REMARK    8  A    between atoms: N3_29  and  C16_31 
REMARK    9  A    between atoms: C16_31  and  N4_33 
REMARK   10  A    between atoms: N4_33  and  O8_35 
ROOT
HETATM    1  C3  UNL     1       4.778  49.691  -4.669  1.00  0.00     0.162 C 
HETATM    2  C4  UNL     1       5.755  50.831  -4.388  1.00  0.00     0.150 C 
HETATM    3  C5  UNL     1       6.500  50.495  -3.123  1.00  0.00     0.042 C 
HETATM    4  O2  UNL     1       6.675  50.951  -5.419  1.00  0.00    -0.332 OA
HETATM    5  C6  UNL     1       6.170  51.077  -6.673  1.00  0.00     0.417 C 
HETATM    6  O7  UNL     1       4.941  50.493  -6.851  1.00  0.00    -0.312 OA
HETATM    7  C15 UNL     1       4.836  49.328  -6.139  1.00  0.00     0.253 C 
ENDROOT
BRANCH   5   8
HETATM    8  O3  UNL     1       6.017  52.439  -6.980  1.00  0.00    -0.306 OA
BRANCH   8   9
HETATM    9  C7  UNL     1       7.208  53.144  -6.978  1.00  0.00     0.290 C 
HETATM   10  O4  UNL     1       7.660  53.449  -8.241  1.00  0.00    -0.353 OA
HETATM   11  C8  UNL     1       7.276  54.608  -8.808  1.00  0.00     0.137 C 
HETATM   12  C10 UNL     1       7.234  55.817  -7.942  1.00  0.00     0.067 C 
HETATM   13  C11 UNL     1       6.520  55.527  -6.641  1.00  0.00     0.148 C 
HETATM   14  C12 UNL     1       7.225  54.330  -6.047  1.00  0.00     0.168 C 
BRANCH  11  15
HETATM   15  C9  UNL     1       5.967  54.509  -9.592  1.00  0.00     0.118 C 
HETATM   16  S1  UNL     1       5.980  52.990 -10.618  1.00  0.00    -0.095 SA
ENDBRANCH  11  15
BRANCH  13  17
HETATM   17  O5  UNL     1       5.178  55.362  -6.812  1.00  0.00    -0.393 OA
ATOM     18  H5  UNL     1       4.670  55.835  -6.163  1.00  0.00     0.210 HD
ENDBRANCH  13  17
BRANCH  14  19
HETATM   19  N2  UNL     1       6.802  54.010  -4.738  1.00  0.00    -0.349 N 
HETATM   20  C13 UNL     1       7.624  54.256  -3.614  1.00  0.00     0.214 C 
HETATM   21  C14 UNL     1       7.214  53.933  -2.225  1.00  0.00     0.117 C 
HETATM   22  O6  UNL     1       8.785  54.780  -3.745  1.00  0.00    -0.274 OA
ATOM     23  H2  UNL     1       5.881  53.592  -4.600  1.00  0.00     0.163 HD
ENDBRANCH  14  19
ENDBRANCH   8   9
ENDBRANCH   5   8
BRANCH   7  24
HETATM   24  N3  UNL     1       5.835  48.373  -6.469  1.00  0.00    -0.337 N 
ATOM     25  H3  UNL     1       6.516  48.635  -7.182  1.00  0.00     0.164 HD
BRANCH  24  26
HETATM   26  C16 UNL     1       5.963  47.090  -5.891  1.00  0.00     0.193 C 
HETATM   27  S2  UNL     1       5.893  46.934  -4.271  1.00  0.00    -0.039 SA
BRANCH  26  28
HETATM   28  N4  UNL     1       6.134  45.915  -6.681  1.00  0.00    -0.244 N 
ATOM     29  H4  UNL     1       5.430  45.650  -7.369  1.00  0.00     0.196 HD
BRANCH  28  30
HETATM   30  O8  UNL     1       7.231  45.161  -6.510  1.00  0.00    -0.288 OA
ATOM     31  H8  UNL     1       8.018  45.364  -7.001  1.00  0.00     0.244 HD
ENDBRANCH  28  30
ENDBRANCH  26  28
ENDBRANCH  24  26
ENDBRANCH   7  24
BRANCH   1  32
HETATM   32  N1  UNL     1       3.469  50.166  -4.286  1.00  0.00    -0.350 N 
HETATM   33  C2  UNL     1       2.507  49.350  -3.630  1.00  0.00     0.214 C 
HETATM   34  C1  UNL     1       1.164  49.859  -3.246  1.00  0.00     0.117 C 
HETATM   35  O1  UNL     1       2.806  48.172  -3.372  1.00  0.00    -0.274 OA
ATOM     36  H1  UNL     1       3.223  51.133  -4.496  1.00  0.00     0.163 HD
ENDBRANCH   1  32
TORSDOF 10
ENDMDL
MODEL 4
REMARK VINA RESULT: -5.974356819      1.820      2.331
REMARK  10 active torsions:
REMARK  status: ('A' for Active; 'I' for Inactive)
REMARK       I    between atoms: C2_2  and  N1_4 
REMARK    1  A    between atoms: N1_4  and  C3_6 
REMARK    2  A    between atoms: C6_10  and  O3_11 
REMARK    3  A    between atoms: O3_11  and  C7_12 
REMARK    4  A    between atoms: C8_14  and  C9_15 
REMARK    5  A    between atoms: C11_18  and  O5_19 
REMARK    6  A    between atoms: C12_21  and  N2_22 
REMARK       I    between atoms: N2_22  and  C13_24 
REMARK    7  A    between atoms: C15_28  and  N3_29 
REMARK    8  A    between atoms: N3_29  and  C16_31 
REMARK    9  A    between atoms: C16_31  and  N4_33 
REMARK   10  A    between atoms: N4_33  and  O8_35 
ROOT
HETATM    1  C3  UNL     1       5.040  49.186  -6.092  1.00  0.00     0.162 C 
HETATM    2  C4  UNL     1       5.574  50.330  -6.951  1.00  0.00     0.150 C 
HETATM    3  C5  UNL     1       4.627  50.516  -8.108  1.00  0.00     0.042 C 
HETATM    4  O2  UNL     1       5.613  51.509  -6.223  1.00  0.00    -0.332 OA
HETATM    5  C6  UNL     1       6.278  51.473  -5.040  1.00  0.00     0.417 C 
HETATM    6  O7  UNL     1       6.299  50.239  -4.439  1.00  0.00    -0.312 OA
HETATM    7  C15 UNL     1       5.118  49.573  -4.630  1.00  0.00     0.253 C 
ENDROOT
BRANCH   5   8
HETATM    8  O3  UNL     1       7.616  51.844  -5.246  1.00  0.00    -0.306 OA
BRANCH   8   9
HETATM    9  C7  UNL     1       7.912  53.121  -4.803  1.00  0.00     0.290 C 
HETATM   10  O4  UNL     1       8.974  53.161  -3.930  1.00  0.00    -0.353 OA
HETATM   11  C8  UNL     1      10.216  53.325  -4.422  1.00  0.00     0.137 C 
HETATM   12  C10 UNL     1      10.392  54.300  -5.534  1.00  0.00     0.067 C 
HETATM   13  C11 UNL     1       9.351  54.089  -6.609  1.00  0.00     0.148 C 
HETATM   14  C12 UNL     1       8.017  54.150  -5.901  1.00  0.00     0.168 C 
BRANCH  11  15
HETATM   15  C9  UNL     1      10.914  52.016  -4.790  1.00  0.00     0.118 C 
HETATM   16  S1  UNL     1      12.630  52.034  -4.146  1.00  0.00    -0.095 SA
ENDBRANCH  11  15
BRANCH  13  17
HETATM   17  O5  UNL     1       9.561  52.944  -7.317  1.00  0.00    -0.393 OA
ATOM     18  H5  UNL     1       8.748  52.523  -7.572  1.00  0.00     0.210 HD
ENDBRANCH  13  17
BRANCH  14  19
HETATM   19  N2  UNL     1       6.906  54.139  -6.774  1.00  0.00    -0.349 N 
HETATM   20  C13 UNL     1       6.007  55.229  -6.840  1.00  0.00     0.214 C 
HETATM   21  C14 UNL     1       4.831  55.254  -7.744  1.00  0.00     0.117 C 
HETATM   22  O6  UNL     1       6.170  56.267  -6.108  1.00  0.00    -0.274 OA
ATOM     23  H2  UNL     1       6.750  53.327  -7.372  1.00  0.00     0.163 HD
ENDBRANCH  14  19
ENDBRANCH   8   9
ENDBRANCH   5   8
BRANCH   7  24
HETATM   24  N3  UNL     1       3.985  50.283  -4.149  1.00  0.00    -0.337 N 
ATOM     25  H3  UNL     1       4.101  51.279  -3.965  1.00  0.00     0.164 HD
BRANCH  24  26
HETATM   26  C16 UNL     1       2.712  49.722  -3.904  1.00  0.00     0.193 C 
HETATM   27  S2  UNL     1       1.424  50.706  -3.739  1.00  0.00    -0.039 SA
BRANCH  26  28
HETATM   28  N4  UNL     1       2.508  48.313  -3.812  1.00  0.00    -0.244 N 
ATOM     29  H4  UNL     1       2.709  47.711  -4.610  1.00  0.00     0.196 HD
BRANCH  28  30
HETATM   30  O8  UNL     1       2.050  47.787  -2.666  1.00  0.00    -0.288 OA
ATOM     31  H8  UNL     1       1.116  47.782  -2.495  1.00  0.00     0.244 HD
ENDBRANCH  28  30
ENDBRANCH  26  28
ENDBRANCH  24  26
ENDBRANCH   7  24
BRANCH   1  32
HETATM   32  N1  UNL     1       5.859  48.032  -6.386  1.00  0.00    -0.350 N 
HETATM   33  C2  UNL     1       5.878  46.865  -5.575  1.00  0.00     0.214 C 
HETATM   34  C1  UNL     1       6.730  45.690  -5.894  1.00  0.00     0.117 C 
HETATM   35  O1  UNL     1       5.154  46.833  -4.565  1.00  0.00    -0.274 OA
ATOM     36  H1  UNL     1       6.452  48.057  -7.215  1.00  0.00     0.163 HD
ENDBRANCH   1  32
TORSDOF 10
ENDMDL
MODEL 5
REMARK VINA RESULT: -5.933762218      3.961      6.532
REMARK  10 active torsions:
REMARK  status: ('A' for Active; 'I' for Inactive)
REMARK       I    between atoms: C2_2  and  N1_4 
REMARK    1  A    between atoms: N1_4  and  C3_6 
REMARK    2  A    between atoms: C6_10  and  O3_11 
REMARK    3  A    between atoms: O3_11  and  C7_12 
REMARK    4  A    between atoms: C8_14  and  C9_15 
REMARK    5  A    between atoms: C11_18  and  O5_19 
REMARK    6  A    between atoms: C12_21  and  N2_22 
REMARK       I    between atoms: N2_22  and  C13_24 
REMARK    7  A    between atoms: C15_28  and  N3_29 
REMARK    8  A    between atoms: N3_29  and  C16_31 
REMARK    9  A    between atoms: C16_31  and  N4_33 
REMARK   10  A    between atoms: N4_33  and  O8_35 
ROOT
HETATM    1  C3  UNL     1       4.671  49.624  -5.441  1.00  0.00     0.162 C 
HETATM    2  C4  UNL     1       3.207  49.816  -5.832  1.00  0.00     0.150 C 
HETATM    3  C5  UNL     1       2.371  49.611  -4.595  1.00  0.00     0.042 C 
HETATM    4  O2  UNL     1       2.990  51.102  -6.299  1.00  0.00    -0.332 OA
HETATM    5  C6  UNL     1       3.795  51.528  -7.306  1.00  0.00     0.417 C 
HETATM    6  O7  UNL     1       5.034  50.936  -7.331  1.00  0.00    -0.312 OA
HETATM    7  C15 UNL     1       5.507  50.722  -6.065  1.00  0.00     0.253 C 
ENDROOT
BRANCH   5   8
HETATM    8  O3  UNL     1       3.188  51.242  -8.540  1.00  0.00    -0.306 OA
BRANCH   8   9
HETATM    9  C7  UNL     1       2.723  52.365  -9.202  1.00  0.00     0.290 C 
HETATM   10  O4  UNL     1       3.732  53.168  -9.683  1.00  0.00    -0.353 OA
HETATM   11  C8  UNL     1       4.203  52.949 -10.924  1.00  0.00     0.137 C 
HETATM   12  C10 UNL     1       3.213  52.629 -11.989  1.00  0.00     0.067 C 
HETATM   13  C11 UNL     1       2.245  51.564 -11.526  1.00  0.00     0.148 C 
HETATM   14  C12 UNL     1       1.659  52.081 -10.232  1.00  0.00     0.168 C 
BRANCH  11  15
HETATM   15  C9  UNL     1       5.347  51.937 -10.983  1.00  0.00     0.118 C 
HETATM   16  S1  UNL     1       6.778  52.573 -10.031  1.00  0.00    -0.095 SA
ENDBRANCH  11  15
BRANCH  13  17
HETATM   17  O5  UNL     1       2.832  50.338 -11.427  1.00  0.00    -0.393 OA
ATOM     18  H5  UNL     1       3.629  50.277 -11.940  1.00  0.00     0.210 HD
ENDBRANCH  13  17
BRANCH  14  19
HETATM   19  N2  UNL     1       0.601  51.292  -9.729  1.00  0.00    -0.349 N 
HETATM   20  C13 UNL     1      -0.662  51.853  -9.429  1.00  0.00     0.214 C 
HETATM   21  C14 UNL     1      -1.796  51.056  -8.899  1.00  0.00     0.117 C 
HETATM   22  O6  UNL     1      -0.891  53.101  -9.604  1.00  0.00    -0.274 OA
ATOM     23  H2  UNL     1       0.751  50.294  -9.580  1.00  0.00     0.163 HD
ENDBRANCH  14  19
ENDBRANCH   8   9
ENDBRANCH   5   8
BRANCH   7  24
HETATM   24  N3  UNL     1       5.595  51.908  -5.286  1.00  0.00    -0.337 N 
ATOM     25  H3  UNL     1       4.873  52.614  -5.426  1.00  0.00     0.164 HD
BRANCH  24  26
HETATM   26  C16 UNL     1       6.600  52.188  -4.334  1.00  0.00     0.193 C 
HETATM   27  S2  UNL     1       7.812  53.204  -4.728  1.00  0.00    -0.039 SA
BRANCH  26  28
HETATM   28  N4  UNL     1       6.584  51.624  -3.024  1.00  0.00    -0.244 N 
ATOM     29  H4  UNL     1       6.310  52.192  -2.223  1.00  0.00     0.196 HD
BRANCH  28  30
HETATM   30  O8  UNL     1       6.932  50.339  -2.856  1.00  0.00    -0.288 OA
ATOM     31  H8  UNL     1       7.708  50.128  -2.351  1.00  0.00     0.244 HD
ENDBRANCH  28  30
ENDBRANCH  26  28
ENDBRANCH  24  26
ENDBRANCH   7  24
BRANCH   1  32
HETATM   32  N1  UNL     1       5.058  48.317  -5.920  1.00  0.00    -0.350 N 
HETATM   33  C2  UNL     1       5.823  47.401  -5.148  1.00  0.00     0.214 C 
HETATM   34  C1  UNL     1       6.213  46.061  -5.662  1.00  0.00     0.117 C 
HETATM   35  O1  UNL     1       6.175  47.738  -4.005  1.00  0.00    -0.274 OA
ATOM     36  H1  UNL     1       4.769  48.038  -6.857  1.00  0.00     0.163 HD
ENDBRANCH   1  32
TORSDOF 10
ENDMDL
