MODEL 1
REMARK VINA RESULT: -5.697053197      0.000      0.000
REMARK  15 active torsions:
REMARK  status: ('A' for Active; 'I' for Inactive)
REMARK    1  A    between atoms: C6_6  and  O1_7 
REMARK    2  A    between atoms: O1_7  and  C7_8 
REMARK    3  A    between atoms: C8_10  and  C9_11 
REMARK    4  A    between atoms: C9_11  and  O3_12 
REMARK    5  A    between atoms: C10_14  and  O4_15 
REMARK    6  A    between atoms: C11_17  and  O5_18 
REMARK    7  A    between atoms: C12_20  and  O6_21 
REMARK    8  A    between atoms: C13_23  and  O7_24 
REMARK    9  A    between atoms: C14_26  and  O8_27 
REMARK   10  A    between atoms: C15_29  and  S1_30 
REMARK   11  A    between atoms: S1_30  and  C16_32 
REMARK   12  A    between atoms: C16_32  and  C17_33 
REMARK   13  A    between atoms: C17_33  and  N1_34 
REMARK   14  A    between atoms: N1_34  and  N2_36 
REMARK   15  A    between atoms: N2_36  and  N3_37 
ROOT
HETATM    1  C1  UNL     1       7.755  52.499 -11.170  1.00  0.00     0.011 C 
HETATM    2  C2  UNL     1       6.957  51.759 -10.088  1.00  0.00     0.000 C 
HETATM    3  C3  UNL     1       5.582  52.364 -10.077  1.00  0.00     0.005 C 
HETATM    4  C4  UNL     1       4.574  51.264  -9.845  1.00  0.00     0.003 C 
HETATM    5  C5  UNL     1       3.998  51.369  -8.450  1.00  0.00     0.035 C 
HETATM    6  C6  UNL     1       4.646  50.323  -7.591  1.00  0.00     0.156 C 
HETATM    7  C13 UNL     1       6.157  50.337  -7.689  1.00  0.00     0.177 C 
HETATM    8  C14 UNL     1       6.751  51.696  -7.597  1.00  0.00     0.165 C 
HETATM    9  C15 UNL     1       7.625  52.082  -8.768  1.00  0.00     0.114 C 
ENDROOT
BRANCH   6  10
HETATM   10  O1  UNL     1       4.304  50.389  -6.265  1.00  0.00    -0.351 OA
BRANCH  10  11
HETATM   11  C7  UNL     1       3.323  49.501  -5.866  1.00  0.00     0.292 C 
HETATM   12  O2  UNL     1       3.894  48.389  -5.334  1.00  0.00    -0.348 OA
HETATM   13  C8  UNL     1       3.983  48.283  -3.982  1.00  0.00     0.179 C 
HETATM   14  C10 UNL     1       2.829  48.784  -3.184  1.00  0.00     0.180 C 
HETATM   15  C11 UNL     1       2.455  50.166  -3.616  1.00  0.00     0.183 C 
HETATM   16  C12 UNL     1       2.204  50.122  -5.107  1.00  0.00     0.204 C 
BRANCH  13  17
HETATM   17  C9  UNL     1       5.231  49.053  -3.530  1.00  0.00     0.198 C 
BRANCH  17  18
HETATM   18  O3  UNL     1       6.399  48.376  -3.869  1.00  0.00    -0.398 OA
ATOM     19  H3  UNL     1       6.341  47.452  -3.655  1.00  0.00     0.209 HD
ENDBRANCH  17  18
ENDBRANCH  13  17
BRANCH  14  20
HETATM   20  O4  UNL     1       1.746  47.908  -3.186  1.00  0.00    -0.390 OA
ATOM     21  H4  UNL     1       2.002  47.002  -3.060  1.00  0.00     0.210 HD
ENDBRANCH  14  20
BRANCH  15  22
HETATM   22  O5  UNL     1       1.344  50.661  -2.930  1.00  0.00    -0.390 OA
ATOM     23  H5  UNL     1       1.545  50.900  -2.033  1.00  0.00     0.210 HD
ENDBRANCH  15  22
BRANCH  16  24
HETATM   24  O6  UNL     1       1.018  49.371  -5.276  1.00  0.00    -0.388 OA
ATOM     25  H6  UNL     1       0.497  49.730  -5.983  1.00  0.00     0.210 HD
ENDBRANCH  16  24
ENDBRANCH  10  11
ENDBRANCH   6  10
BRANCH   7  26
HETATM   26  O7  UNL     1       6.632  49.499  -6.663  1.00  0.00    -0.390 OA
ATOM     27  H7  UNL     1       7.328  49.976  -6.227  1.00  0.00     0.210 HD
ENDBRANCH   7  26
BRANCH   8  28
HETATM   28  O8  UNL     1       7.545  51.770  -6.455  1.00  0.00    -0.392 OA
ATOM     29  H8  UNL     1       8.016  52.595  -6.456  1.00  0.00     0.210 HD
ENDBRANCH   8  28
BRANCH   9  30
HETATM   30  S1  UNL     1       9.201  51.370  -8.603  1.00  0.00     0.024 S 
HETATM   31  O9  UNL     1       9.300  50.016  -7.683  1.00  0.00    -0.258 OA
BRANCH  30  32
HETATM   32  C16 UNL     1      10.542  52.472  -8.541  1.00  0.00     0.131 C 
BRANCH  32  33
HETATM   33  C17 UNL     1      10.731  53.107  -7.178  1.00  0.00     0.168 C 
BRANCH  33  34
HETATM   34  N1  UNL     1      10.607  52.072  -6.170  1.00  0.00    -0.252 N 
ATOM     35  H1  UNL     1      11.051  51.168  -6.328  1.00  0.00     0.197 HD
BRANCH  34  36
HETATM   36  N2  UNL     1       9.971  52.262  -5.118  1.00  0.00    -0.249 NA
BRANCH  36  37
HETATM   37  N3  UNL     1       9.188  52.694  -4.277  1.00  0.00    -0.261 N 
ATOM     38  H32 UNL     1       8.554  53.102  -4.964  1.00  0.00     0.193 HD
ATOM     39  H31 UNL     1       8.730  52.929  -3.396  1.00  0.00     0.193 HD
ENDBRANCH  36  37
ENDBRANCH  34  36
ENDBRANCH  33  34
ENDBRANCH  32  33
ENDBRANCH  30  32
ENDBRANCH   9  30
TORSDOF 15
ENDMDL
MODEL 2
REMARK VINA RESULT: -5.535027501      3.341      4.179
REMARK  15 active torsions:
REMARK  status: ('A' for Active; 'I' for Inactive)
REMARK    1  A    between atoms: C6_6  and  O1_7 
REMARK    2  A    between atoms: O1_7  and  C7_8 
REMARK    3  A    between atoms: C8_10  and  C9_11 
REMARK    4  A    between atoms: C9_11  and  O3_12 
REMARK    5  A    between atoms: C10_14  and  O4_15 
REMARK    6  A    between atoms: C11_17  and  O5_18 
REMARK    7  A    between atoms: C12_20  and  O6_21 
REMARK    8  A    between atoms: C13_23  and  O7_24 
REMARK    9  A    between atoms: C14_26  and  O8_27 
REMARK   10  A    between atoms: C15_29  and  S1_30 
REMARK   11  A    between atoms: S1_30  and  C16_32 
REMARK   12  A    between atoms: C16_32  and  C17_33 
REMARK   13  A    between atoms: C17_33  and  N1_34 
REMARK   14  A    between atoms: N1_34  and  N2_36 
REMARK   15  A    between atoms: N2_36  and  N3_37 
ROOT
HETATM    1  C1  UNL     1       9.507  56.159  -4.925  1.00  0.00     0.011 C 
HETATM    2  C2  UNL     1       8.688  54.862  -4.918  1.00  0.00     0.000 C 
HETATM    3  C3  UNL     1       7.431  55.141  -5.693  1.00  0.00     0.005 C 
HETATM    4  C4  UNL     1       7.083  53.916  -6.503  1.00  0.00     0.003 C 
HETATM    5  C5  UNL     1       5.872  53.227  -5.913  1.00  0.00     0.035 C 
HETATM    6  C6  UNL     1       6.339  52.022  -5.150  1.00  0.00     0.156 C 
HETATM    7  C13 UNL     1       7.461  52.337  -4.185  1.00  0.00     0.177 C 
HETATM    8  C14 UNL     1       7.224  53.555  -3.368  1.00  0.00     0.165 C 
HETATM    9  C15 UNL     1       8.304  54.606  -3.475  1.00  0.00     0.114 C 
ENDROOT
BRANCH   6  10
HETATM   10  O1  UNL     1       5.350  51.372  -4.458  1.00  0.00    -0.351 OA
BRANCH  10  11
HETATM   11  C7  UNL     1       4.307  50.897  -5.230  1.00  0.00     0.292 C 
HETATM   12  O2  UNL     1       4.576  49.631  -5.643  1.00  0.00    -0.348 OA
HETATM   13  C8  UNL     1       4.023  48.591  -4.964  1.00  0.00     0.179 C 
HETATM   14  C10 UNL     1       2.624  48.762  -4.481  1.00  0.00     0.180 C 
HETATM   15  C11 UNL     1       2.479  50.055  -3.744  1.00  0.00     0.183 C 
HETATM   16  C12 UNL     1       2.955  51.156  -4.664  1.00  0.00     0.204 C 
BRANCH  13  17
HETATM   17  C9  UNL     1       4.905  48.303  -3.742  1.00  0.00     0.198 C 
BRANCH  17  18
HETATM   18  O3  UNL     1       6.249  48.538  -4.017  1.00  0.00    -0.398 OA
ATOM     19  H3  UNL     1       6.533  49.378  -3.673  1.00  0.00     0.209 HD
ENDBRANCH  17  18
ENDBRANCH  13  17
BRANCH  14  20
HETATM   20  O4  UNL     1       1.678  48.611  -5.492  1.00  0.00    -0.390 OA
ATOM     21  H4  UNL     1       1.195  49.409  -5.670  1.00  0.00     0.210 HD
ENDBRANCH  14  20
BRANCH  15  22
HETATM   22  O5  UNL     1       1.171  50.285  -3.314  1.00  0.00    -0.390 OA
ATOM     23  H5  UNL     1       0.951  51.209  -3.289  1.00  0.00     0.210 HD
ENDBRANCH  15  22
BRANCH  16  24
HETATM   24  O6  UNL     1       1.995  51.236  -5.699  1.00  0.00    -0.388 OA
ATOM     25  H6  UNL     1       1.648  50.374  -5.896  1.00  0.00     0.210 HD
ENDBRANCH  16  24
ENDBRANCH  10  11
ENDBRANCH   6  10
BRANCH   7  26
HETATM   26  O7  UNL     1       7.621  51.199  -3.372  1.00  0.00    -0.390 OA
ATOM     27  H7  UNL     1       7.728  51.516  -2.483  1.00  0.00     0.210 HD
ENDBRANCH   7  26
BRANCH   8  28
HETATM   28  O8  UNL     1       7.139  53.196  -2.025  1.00  0.00    -0.392 OA
ATOM     29  H8  UNL     1       7.943  53.443  -1.584  1.00  0.00     0.210 HD
ENDBRANCH   8  28
BRANCH   9  30
HETATM   30  S1  UNL     1       9.657  54.183  -2.470  1.00  0.00     0.024 S 
HETATM   31  O9  UNL     1       9.695  54.854  -0.974  1.00  0.00    -0.258 OA
BRANCH  30  32
HETATM   32  C16 UNL     1      11.177  53.958  -3.279  1.00  0.00     0.131 C 
BRANCH  32  33
HETATM   33  C17 UNL     1      12.327  53.690  -2.329  1.00  0.00     0.168 C 
BRANCH  33  34
HETATM   34  N1  UNL     1      13.054  52.530  -2.808  1.00  0.00    -0.252 N 
ATOM     35  H1  UNL     1      13.975  52.326  -2.420  1.00  0.00     0.197 HD
BRANCH  34  36
HETATM   36  N2  UNL     1      12.582  51.780  -3.680  1.00  0.00    -0.249 NA
BRANCH  36  37
HETATM   37  N3  UNL     1      12.456  50.970  -4.594  1.00  0.00    -0.261 N 
ATOM     38  H32 UNL     1      12.979  51.532  -5.267  1.00  0.00     0.193 HD
ATOM     39  H31 UNL     1      12.205  50.152  -5.148  1.00  0.00     0.193 HD
ENDBRANCH  36  37
ENDBRANCH  34  36
ENDBRANCH  33  34
ENDBRANCH  32  33
ENDBRANCH  30  32
ENDBRANCH   9  30
TORSDOF 15
ENDMDL
MODEL 3
REMARK VINA RESULT: -5.502273747      4.484      7.884
REMARK  15 active torsions:
REMARK  status: ('A' for Active; 'I' for Inactive)
REMARK    1  A    between atoms: C6_6  and  O1_7 
REMARK    2  A    between atoms: O1_7  and  C7_8 
REMARK    3  A    between atoms: C8_10  and  C9_11 
REMARK    4  A    between atoms: C9_11  and  O3_12 
REMARK    5  A    between atoms: C10_14  and  O4_15 
REMARK    6  A    between atoms: C11_17  and  O5_18 
REMARK    7  A    between atoms: C12_20  and  O6_21 
REMARK    8  A    between atoms: C13_23  and  O7_24 
REMARK    9  A    between atoms: C14_26  and  O8_27 
REMARK   10  A    between atoms: C15_29  and  S1_30 
REMARK   11  A    between atoms: S1_30  and  C16_32 
REMARK   12  A    between atoms: C16_32  and  C17_33 
REMARK   13  A    between atoms: C17_33  and  N1_34 
REMARK   14  A    between atoms: N1_34  and  N2_36 
REMARK   15  A    between atoms: N2_36  and  N3_37 
ROOT
HETATM    1  C1  UNL     1      -0.240  50.429  -5.630  1.00  0.00     0.011 C 
HETATM    2  C2  UNL     1       1.242  50.810  -5.741  1.00  0.00     0.000 C 
HETATM    3  C3  UNL     1       1.576  50.825  -7.205  1.00  0.00     0.005 C 
HETATM    4  C4  UNL     1       2.522  51.971  -7.472  1.00  0.00     0.003 C 
HETATM    5  C5  UNL     1       3.912  51.445  -7.756  1.00  0.00     0.035 C 
HETATM    6  C6  UNL     1       4.752  51.645  -6.529  1.00  0.00     0.156 C 
HETATM    7  C13 UNL     1       4.088  51.124  -5.272  1.00  0.00     0.177 C 
HETATM    8  C14 UNL     1       3.494  49.771  -5.424  1.00  0.00     0.165 C 
HETATM    9  C15 UNL     1       2.023  49.687  -5.091  1.00  0.00     0.114 C 
ENDROOT
BRANCH   6  10
HETATM   10  O1  UNL     1       6.007  51.097  -6.607  1.00  0.00    -0.351 OA
BRANCH  10  11
HETATM   11  C7  UNL     1       6.848  51.686  -7.531  1.00  0.00     0.292 C 
HETATM   12  O2  UNL     1       7.005  53.004  -7.241  1.00  0.00    -0.348 OA
HETATM   13  C8  UNL     1       8.118  53.396  -6.567  1.00  0.00     0.179 C 
HETATM   14  C10 UNL     1       9.399  52.722  -6.919  1.00  0.00     0.180 C 
HETATM   15  C11 UNL     1       9.228  51.235  -6.904  1.00  0.00     0.183 C 
HETATM   16  C12 UNL     1       8.079  50.903  -7.828  1.00  0.00     0.204 C 
BRANCH  13  17
HETATM   17  C9  UNL     1       7.868  53.171  -5.071  1.00  0.00     0.198 C 
BRANCH  17  18
HETATM   18  O3  UNL     1       6.629  53.670  -4.679  1.00  0.00    -0.398 OA
ATOM     19  H3  UNL     1       6.435  53.450  -3.775  1.00  0.00     0.209 HD
ENDBRANCH  17  18
ENDBRANCH  13  17
BRANCH  14  20
HETATM   20  O4  UNL     1       9.949  53.188  -8.110  1.00  0.00    -0.390 OA
ATOM     21  H4  UNL     1       9.948  52.534  -8.799  1.00  0.00     0.210 HD
ENDBRANCH  14  20
BRANCH  15  22
HETATM   22  O5  UNL     1      10.390  50.558  -7.277  1.00  0.00    -0.390 OA
ATOM     23  H5  UNL     1      10.209  49.735  -7.716  1.00  0.00     0.210 HD
ENDBRANCH  15  22
BRANCH  16  24
HETATM   24  O6  UNL     1       8.540  51.188  -9.134  1.00  0.00    -0.388 OA
ATOM     25  H6  UNL     1       9.447  51.468  -9.111  1.00  0.00     0.210 HD
ENDBRANCH  16  24
ENDBRANCH  10  11
ENDBRANCH   6  10
BRANCH   7  26
HETATM   26  O7  UNL     1       5.070  51.142  -4.264  1.00  0.00    -0.390 OA
ATOM     27  H7  UNL     1       5.229  50.236  -4.027  1.00  0.00     0.210 HD
ENDBRANCH   7  26
BRANCH   8  28
HETATM   28  O8  UNL     1       4.154  48.884  -4.577  1.00  0.00    -0.392 OA
ATOM     29  H8  UNL     1       3.632  48.096  -4.483  1.00  0.00     0.210 HD
ENDBRANCH   8  28
BRANCH   9  30
HETATM   30  S1  UNL     1       1.800  49.602  -3.369  1.00  0.00     0.024 S 
HETATM   31  O9  UNL     1       1.820  48.103  -2.702  1.00  0.00    -0.258 OA
BRANCH  30  32
HETATM   32  C16 UNL     1       0.716  50.767  -2.675  1.00  0.00     0.131 C 
BRANCH  32  33
HETATM   33  C17 UNL     1       0.217  50.374  -1.299  1.00  0.00     0.168 C 
BRANCH  33  34
HETATM   34  N1  UNL     1      -0.839  49.393  -1.459  1.00  0.00    -0.252 N 
ATOM     35  H1  UNL     1      -0.811  48.537  -0.907  1.00  0.00     0.197 HD
BRANCH  34  36
HETATM   36  N2  UNL     1      -1.779  49.572  -2.254  1.00  0.00    -0.249 NA
BRANCH  36  37
HETATM   37  N3  UNL     1      -2.877  49.551  -2.804  1.00  0.00    -0.261 N 
ATOM     38  H32 UNL     1      -3.400  49.504  -1.929  1.00  0.00     0.193 HD
ATOM     39  H31 UNL     1      -3.621  49.547  -3.500  1.00  0.00     0.193 HD
ENDBRANCH  36  37
ENDBRANCH  34  36
ENDBRANCH  33  34
ENDBRANCH  32  33
ENDBRANCH  30  32
ENDBRANCH   9  30
TORSDOF 15
ENDMDL
MODEL 4
REMARK VINA RESULT: -5.441010282      4.621      7.893
REMARK  15 active torsions:
REMARK  status: ('A' for Active; 'I' for Inactive)
REMARK    1  A    between atoms: C6_6  and  O1_7 
REMARK    2  A    between atoms: O1_7  and  C7_8 
REMARK    3  A    between atoms: C8_10  and  C9_11 
REMARK    4  A    between atoms: C9_11  and  O3_12 
REMARK    5  A    between atoms: C10_14  and  O4_15 
REMARK    6  A    between atoms: C11_17  and  O5_18 
REMARK    7  A    between atoms: C12_20  and  O6_21 
REMARK    8  A    between atoms: C13_23  and  O7_24 
REMARK    9  A    between atoms: C14_26  and  O8_27 
REMARK   10  A    between atoms: C15_29  and  S1_30 
REMARK   11  A    between atoms: S1_30  and  C16_32 
REMARK   12  A    between atoms: C16_32  and  C17_33 
REMARK   13  A    between atoms: C17_33  and  N1_34 
REMARK   14  A    between atoms: N1_34  and  N2_36 
REMARK   15  A    between atoms: N2_36  and  N3_37 
ROOT
HETATM    1  C1  UNL     1       0.330  50.445  -5.848  1.00  0.00     0.011 C 
HETATM    2  C2  UNL     1       1.783  50.920  -5.717  1.00  0.00     0.000 C 
HETATM    3  C3  UNL     1       2.286  51.161  -7.112  1.00  0.00     0.005 C 
HETATM    4  C4  UNL     1       3.172  52.383  -7.100  1.00  0.00     0.003 C 
HETATM    5  C5  UNL     1       4.620  51.981  -7.272  1.00  0.00     0.035 C 
HETATM    6  C6  UNL     1       5.292  52.050  -5.932  1.00  0.00     0.156 C 
HETATM    7  C13 UNL     1       4.523  51.321  -4.851  1.00  0.00     0.177 C 
HETATM    8  C14 UNL     1       4.051  49.972  -5.258  1.00  0.00     0.165 C 
HETATM    9  C15 UNL     1       2.561  49.760  -5.129  1.00  0.00     0.114 C 
ENDROOT
BRANCH   6  10
HETATM   10  O1  UNL     1       6.583  51.590  -5.922  1.00  0.00    -0.351 OA
BRANCH  10  11
HETATM   11  C7  UNL     1       7.488  52.361  -6.626  1.00  0.00     0.292 C 
HETATM   12  O2  UNL     1       7.555  53.605  -6.084  1.00  0.00    -0.348 OA
HETATM   13  C8  UNL     1       8.575  53.893  -5.232  1.00  0.00     0.179 C 
HETATM   14  C10 UNL     1       9.913  53.328  -5.560  1.00  0.00     0.180 C 
HETATM   15  C11 UNL     1       9.808  51.861  -5.835  1.00  0.00     0.183 C 
HETATM   16  C12 UNL     1       8.776  51.679  -6.925  1.00  0.00     0.204 C 
BRANCH  13  17
HETATM   17  C9  UNL     1       8.182  53.386  -3.839  1.00  0.00     0.198 C 
BRANCH  17  18
HETATM   18  O3  UNL     1       6.882  53.753  -3.509  1.00  0.00    -0.398 OA
ATOM     19  H3  UNL     1       6.252  53.102  -3.797  1.00  0.00     0.209 HD
ENDBRANCH  17  18
ENDBRANCH  13  17
BRANCH  14  20
HETATM   20  O4  UNL     1      10.562  54.022  -6.578  1.00  0.00    -0.390 OA
ATOM     21  H4  UNL     1      10.408  53.648  -7.437  1.00  0.00     0.210 HD
ENDBRANCH  14  20
BRANCH  15  22
HETATM   22  O5  UNL     1      11.032  51.295  -6.197  1.00  0.00    -0.390 OA
ATOM     23  H5  UNL     1      10.979  50.353  -6.314  1.00  0.00     0.210 HD
ENDBRANCH  15  22
BRANCH  16  24
HETATM   24  O6  UNL     1       9.356  52.214  -8.099  1.00  0.00    -0.388 OA
ATOM     25  H6  UNL     1      10.198  52.607  -7.902  1.00  0.00     0.210 HD
ENDBRANCH  16  24
ENDBRANCH  10  11
ENDBRANCH   6  10
BRANCH   7  26
HETATM   26  O7  UNL     1       5.374  51.250  -3.733  1.00  0.00    -0.390 OA
ATOM     27  H7  UNL     1       4.883  50.814  -3.047  1.00  0.00     0.210 HD
ENDBRANCH   7  26
BRANCH   8  28
HETATM   28  O8  UNL     1       4.668  49.012  -4.460  1.00  0.00    -0.392 OA
ATOM     29  H8  UNL     1       5.542  48.845  -4.793  1.00  0.00     0.210 HD
ENDBRANCH   8  28
BRANCH   9  30
HETATM   30  S1  UNL     1       2.142  49.420  -3.477  1.00  0.00     0.024 S 
HETATM   31  O9  UNL     1       2.229  47.851  -3.009  1.00  0.00    -0.258 OA
BRANCH  30  32
HETATM   32  C16 UNL     1       0.872  50.385  -2.790  1.00  0.00     0.131 C 
BRANCH  32  33
HETATM   33  C17 UNL     1       0.257  49.770  -1.550  1.00  0.00     0.168 C 
BRANCH  33  34
HETATM   34  N1  UNL     1      -1.172  50.012  -1.579  1.00  0.00    -0.252 N 
ATOM     35  H1  UNL     1      -1.657  50.232  -0.709  1.00  0.00     0.197 HD
BRANCH  34  36
HETATM   36  N2  UNL     1      -1.820  49.957  -2.639  1.00  0.00    -0.249 NA
BRANCH  36  37
HETATM   37  N3  UNL     1      -2.471  49.562  -3.602  1.00  0.00    -0.261 N 
ATOM     38  H32 UNL     1      -2.087  50.255  -4.244  1.00  0.00     0.193 HD
ATOM     39  H31 UNL     1      -3.111  49.043  -4.203  1.00  0.00     0.193 HD
ENDBRANCH  36  37
ENDBRANCH  34  36
ENDBRANCH  33  34
ENDBRANCH  32  33
ENDBRANCH  30  32
ENDBRANCH   9  30
TORSDOF 15
ENDMDL
MODEL 5
REMARK VINA RESULT: -5.430517429      4.574      7.831
REMARK  15 active torsions:
REMARK  status: ('A' for Active; 'I' for Inactive)
REMARK    1  A    between atoms: C6_6  and  O1_7 
REMARK    2  A    between atoms: O1_7  and  C7_8 
REMARK    3  A    between atoms: C8_10  and  C9_11 
REMARK    4  A    between atoms: C9_11  and  O3_12 
REMARK    5  A    between atoms: C10_14  and  O4_15 
REMARK    6  A    between atoms: C11_17  and  O5_18 
REMARK    7  A    between atoms: C12_20  and  O6_21 
REMARK    8  A    between atoms: C13_23  and  O7_24 
REMARK    9  A    between atoms: C14_26  and  O8_27 
REMARK   10  A    between atoms: C15_29  and  S1_30 
REMARK   11  A    between atoms: S1_30  and  C16_32 
REMARK   12  A    between atoms: C16_32  and  C17_33 
REMARK   13  A    between atoms: C17_33  and  N1_34 
REMARK   14  A    between atoms: N1_34  and  N2_36 
REMARK   15  A    between atoms: N2_36  and  N3_37 
ROOT
HETATM    1  C1  UNL     1       0.369  50.421  -5.765  1.00  0.00     0.011 C 
HETATM    2  C2  UNL     1       1.833  50.851  -5.610  1.00  0.00     0.000 C 
HETATM    3  C3  UNL     1       2.369  51.064  -6.997  1.00  0.00     0.005 C 
HETATM    4  C4  UNL     1       3.292  52.258  -6.979  1.00  0.00     0.003 C 
HETATM    5  C5  UNL     1       4.731  51.809  -7.121  1.00  0.00     0.035 C 
HETATM    6  C6  UNL     1       5.380  51.869  -5.769  1.00  0.00     0.156 C 
HETATM    7  C13 UNL     1       4.568  51.174  -4.697  1.00  0.00     0.177 C 
HETATM    8  C14 UNL     1       4.061  49.837  -5.101  1.00  0.00     0.165 C 
HETATM    9  C15 UNL     1       2.563  49.673  -4.998  1.00  0.00     0.114 C 
ENDROOT
BRANCH   6  10
HETATM   10  O1  UNL     1       6.656  51.368  -5.732  1.00  0.00    -0.351 OA
BRANCH  10  11
HETATM   11  C7  UNL     1       7.622  52.254  -5.297  1.00  0.00     0.292 C 
HETATM   12  O2  UNL     1       8.855  51.799  -5.641  1.00  0.00    -0.348 OA
HETATM   13  C8  UNL     1       9.453  52.308  -6.751  1.00  0.00     0.179 C 
HETATM   14  C10 UNL     1       9.275  53.764  -7.012  1.00  0.00     0.180 C 
HETATM   15  C11 UNL     1       7.829  54.137  -6.932  1.00  0.00     0.183 C 
HETATM   16  C12 UNL     1       7.319  53.683  -5.582  1.00  0.00     0.204 C 
BRANCH  13  17
HETATM   17  C9  UNL     1       8.911  51.547  -7.969  1.00  0.00     0.198 C 
BRANCH  17  18
HETATM   18  O3  UNL     1       8.695  50.204  -7.676  1.00  0.00    -0.398 OA
ATOM     19  H3  UNL     1       7.871  49.897  -8.036  1.00  0.00     0.209 HD
ENDBRANCH  17  18
ENDBRANCH  13  17
BRANCH  14  20
HETATM   20  O4  UNL     1      10.082  54.563  -6.206  1.00  0.00    -0.390 OA
ATOM     21  H4  UNL     1      10.666  55.122  -6.705  1.00  0.00     0.210 HD
ENDBRANCH  14  20
BRANCH  15  22
HETATM   22  O5  UNL     1       7.616  55.504  -7.120  1.00  0.00    -0.390 OA
ATOM     23  H5  UNL     1       6.701  55.715  -7.265  1.00  0.00     0.210 HD
ENDBRANCH  15  22
BRANCH  16  24
HETATM   24  O6  UNL     1       7.949  54.520  -4.632  1.00  0.00    -0.388 OA
ATOM     25  H6  UNL     1       7.715  55.428  -4.784  1.00  0.00     0.210 HD
ENDBRANCH  16  24
ENDBRANCH  10  11
ENDBRANCH   6  10
BRANCH   7  26
HETATM   26  O7  UNL     1       5.396  51.086  -3.563  1.00  0.00    -0.390 OA
ATOM     27  H7  UNL     1       5.771  51.950  -3.435  1.00  0.00     0.210 HD
ENDBRANCH   7  26
BRANCH   8  28
HETATM   28  O8  UNL     1       4.634  48.865  -4.284  1.00  0.00    -0.392 OA
ATOM     29  H8  UNL     1       4.332  48.008  -4.560  1.00  0.00     0.210 HD
ENDBRANCH   8  28
BRANCH   9  30
HETATM   30  S1  UNL     1       2.104  49.361  -3.352  1.00  0.00     0.024 S 
HETATM   31  O9  UNL     1       2.143  47.795  -2.865  1.00  0.00    -0.258 OA
BRANCH  30  32
HETATM   32  C16 UNL     1       0.844  50.364  -2.700  1.00  0.00     0.131 C 
BRANCH  32  33
HETATM   33  C17 UNL     1       0.222  49.799  -1.439  1.00  0.00     0.168 C 
BRANCH  33  34
HETATM   34  N1  UNL     1      -1.211  50.014  -1.501  1.00  0.00    -0.252 N 
ATOM     35  H1  UNL     1      -1.680  50.465  -0.716  1.00  0.00     0.197 HD
BRANCH  34  36
HETATM   36  N2  UNL     1      -1.880  49.661  -2.488  1.00  0.00    -0.249 NA
BRANCH  36  37
HETATM   37  N3  UNL     1      -2.469  49.640  -3.565  1.00  0.00    -0.261 N 
ATOM     38  H32 UNL     1      -2.315  48.644  -3.718  1.00  0.00     0.193 HD
ATOM     39  H31 UNL     1      -2.992  49.908  -4.398  1.00  0.00     0.193 HD
ENDBRANCH  36  37
ENDBRANCH  34  36
ENDBRANCH  33  34
ENDBRANCH  32  33
ENDBRANCH  30  32
ENDBRANCH   9  30
TORSDOF 15
ENDMDL
