MODEL 1
REMARK VINA RESULT: -5.958871822      0.000      0.000
REMARK  6 active torsions:
REMARK  status: ('A' for Active; 'I' for Inactive)
REMARK    1  A    between atoms: C2_2  and  N1_3 
REMARK    2  A    between atoms: C6_7  and  C7_8 
REMARK    3  A    between atoms: C7_8  and  N2_9 
REMARK    4  A    between atoms: C8_10  and  O1_11 
REMARK    5  A    between atoms: C9_13  and  C10_14 
REMARK    6  A    between atoms: C10_14  and  C11_15 
ROOT
HETATM    1  N2  UNL     1      21.027  59.380  17.879  1.00  0.00    -0.290 N 
HETATM    2  C8  UNL     1      20.078  59.751  17.016  1.00  0.00     0.168 A 
HETATM    3  C9  UNL     1      18.794  59.201  17.067  1.00  0.00     0.063 A 
HETATM    4  N3  UNL     1      18.495  58.278  17.996  1.00  0.00    -0.338 N 
ATOM      5  H3  UNL     1      17.558  57.878  18.031  1.00  0.00     0.167 HD
HETATM    6  C15 UNL     1      19.427  57.879  18.881  1.00  0.00     0.169 A 
HETATM    7  N4  UNL     1      19.082  56.991  19.752  1.00  0.00    -0.381 N 
ATOM      8  H41 UNL     1      19.789  56.688  20.422  1.00  0.00     0.157 HD
ATOM      9  H42 UNL     1      18.151  56.577  19.803  1.00  0.00     0.157 HD
HETATM   10  C16 UNL     1      20.672  58.433  18.812  1.00  0.00     0.293 A 
HETATM   11  O2  UNL     1      21.534  58.058  19.640  1.00  0.00    -0.264 OA
ENDROOT
BRANCH   1  12
HETATM   12  C7  UNL     1      22.347  59.887  17.902  1.00  0.00     0.140 C 
BRANCH  12  13
HETATM   13  C6  UNL     1      22.596  61.197  18.579  1.00  0.00     0.022 C 
HETATM   14  C5  UNL     1      22.763  62.375  17.701  1.00  0.00     0.009 C 
HETATM   15  C4  UNL     1      23.178  63.620  18.400  1.00  0.00     0.020 C 
HETATM   16  C3  UNL     1      23.665  63.367  19.799  1.00  0.00     0.117 C 
HETATM   17  N1  UNL     1      24.380  62.159  19.975  1.00  0.00    -0.412 N 
HETATM   18  C17 UNL     1      23.784  60.967  19.494  1.00  0.00     0.123 C 
BRANCH  17  19
HETATM   19  C2  UNL     1      25.768  62.165  19.669  1.00  0.00     0.112 C 
HETATM   20  C1  UNL     1      26.207  61.160  18.647  1.00  0.00     0.026 C 
ENDBRANCH  17  19
ENDBRANCH  12  13
ENDBRANCH   1  12
BRANCH   2  21
HETATM   21  O1  UNL     1      20.378  60.683  16.051  1.00  0.00    -0.344 OA
ATOM     22  H1  UNL     1      20.291  61.606  16.259  1.00  0.00     0.219 HD
ENDBRANCH   2  21
BRANCH   3  23
HETATM   23  C10 UNL     1      17.696  59.610  16.177  1.00  0.00     0.070 C 
BRANCH  23  24
HETATM   24  C11 UNL     1      16.715  60.573  16.746  1.00  0.00    -0.046 C 
HETATM   25  C12 UNL     1      15.298  60.271  16.242  1.00  0.00     0.015 C 
HETATM   26  C13 UNL     1      17.048  61.966  16.184  1.00  0.00     0.015 C 
HETATM   27  C14 UNL     1      16.675  60.708  18.229  1.00  0.00     0.015 C 
ENDBRANCH  23  24
ENDBRANCH   3  23
TORSDOF 6
ENDMDL
MODEL 2
REMARK VINA RESULT: -5.869607108      0.814      1.056
REMARK  6 active torsions:
REMARK  status: ('A' for Active; 'I' for Inactive)
REMARK    1  A    between atoms: C2_2  and  N1_3 
REMARK    2  A    between atoms: C6_7  and  C7_8 
REMARK    3  A    between atoms: C7_8  and  N2_9 
REMARK    4  A    between atoms: C8_10  and  O1_11 
REMARK    5  A    between atoms: C9_13  and  C10_14 
REMARK    6  A    between atoms: C10_14  and  C11_15 
ROOT
HETATM    1  N2  UNL     1      21.394  59.536  17.923  1.00  0.00    -0.290 N 
HETATM    2  C8  UNL     1      20.270  59.776  17.243  1.00  0.00     0.168 A 
HETATM    3  C9  UNL     1      19.112  59.025  17.464  1.00  0.00     0.063 A 
HETATM    4  N3  UNL     1      19.116  58.036  18.372  1.00  0.00    -0.338 N 
ATOM      5  H3  UNL     1      18.271  57.488  18.531  1.00  0.00     0.167 HD
HETATM    6  C15 UNL     1      20.232  57.764  19.076  1.00  0.00     0.169 A 
HETATM    7  N4  UNL     1      20.176  56.804  19.936  1.00  0.00    -0.381 N 
ATOM      8  H41 UNL     1      21.022  56.597  20.469  1.00  0.00     0.157 HD
ATOM      9  H42 UNL     1      19.342  56.243  20.109  1.00  0.00     0.157 HD
HETATM   10  C16 UNL     1      21.348  58.514  18.844  1.00  0.00     0.293 A 
HETATM   11  O2  UNL     1      22.382  58.257  19.503  1.00  0.00    -0.264 OA
ENDROOT
BRANCH   1  12
HETATM   12  C7  UNL     1      22.605  60.248  17.768  1.00  0.00     0.140 C 
BRANCH  12  13
HETATM   13  C6  UNL     1      22.776  61.535  18.511  1.00  0.00     0.022 C 
HETATM   14  C5  UNL     1      22.931  62.757  17.693  1.00  0.00     0.009 C 
HETATM   15  C4  UNL     1      23.269  63.984  18.463  1.00  0.00     0.020 C 
HETATM   16  C3  UNL     1      23.710  63.686  19.868  1.00  0.00     0.117 C 
HETATM   17  N1  UNL     1      24.464  62.499  20.020  1.00  0.00    -0.412 N 
HETATM   18  C17 UNL     1      23.935  61.309  19.463  1.00  0.00     0.123 C 
BRANCH  17  19
HETATM   19  C2  UNL     1      25.862  62.571  19.772  1.00  0.00     0.112 C 
HETATM   20  C1  UNL     1      26.400  61.550  18.816  1.00  0.00     0.026 C 
ENDBRANCH  17  19
ENDBRANCH  12  13
ENDBRANCH   1  12
BRANCH   2  21
HETATM   21  O1  UNL     1      20.259  60.775  16.300  1.00  0.00    -0.344 OA
ATOM     22  H1  UNL     1      20.530  60.574  15.411  1.00  0.00     0.219 HD
ENDBRANCH   2  21
BRANCH   3  23
HETATM   23  C10 UNL     1      17.833  59.279  16.783  1.00  0.00     0.070 C 
BRANCH  23  24
HETATM   24  C11 UNL     1      16.682  59.626  17.659  1.00  0.00    -0.046 C 
HETATM   25  C12 UNL     1      16.332  58.459  18.591  1.00  0.00     0.015 C 
HETATM   26  C13 UNL     1      15.446  59.800  16.759  1.00  0.00     0.015 C 
HETATM   27  C14 UNL     1      16.796  60.869  18.473  1.00  0.00     0.015 C 
ENDBRANCH  23  24
ENDBRANCH   3  23
TORSDOF 6
ENDMDL
MODEL 3
REMARK VINA RESULT: -5.782336717      2.267      6.982
REMARK  6 active torsions:
REMARK  status: ('A' for Active; 'I' for Inactive)
REMARK    1  A    between atoms: C2_2  and  N1_3 
REMARK    2  A    between atoms: C6_7  and  C7_8 
REMARK    3  A    between atoms: C7_8  and  N2_9 
REMARK    4  A    between atoms: C8_10  and  O1_11 
REMARK    5  A    between atoms: C9_13  and  C10_14 
REMARK    6  A    between atoms: C10_14  and  C11_15 
ROOT
HETATM    1  N2  UNL     1      22.065  59.745  16.514  1.00  0.00    -0.290 N 
HETATM    2  C8  UNL     1      22.784  60.657  17.174  1.00  0.00     0.168 A 
HETATM    3  C9  UNL     1      24.024  61.090  16.697  1.00  0.00     0.063 A 
HETATM    4  N3  UNL     1      24.516  60.585  15.554  1.00  0.00    -0.338 N 
ATOM      5  H3  UNL     1      25.422  60.902  15.207  1.00  0.00     0.167 HD
HETATM    6  C15 UNL     1      23.820  59.663  14.862  1.00  0.00     0.169 A 
HETATM    7  N4  UNL     1      24.342  59.216  13.770  1.00  0.00    -0.381 N 
ATOM      8  H41 UNL     1      23.815  58.517  13.247  1.00  0.00     0.157 HD
ATOM      9  H42 UNL     1      25.246  59.518  13.407  1.00  0.00     0.157 HD
HETATM   10  C16 UNL     1      22.611  59.259  15.348  1.00  0.00     0.293 A 
HETATM   11  O2  UNL     1      21.968  58.403  14.699  1.00  0.00    -0.264 OA
ENDROOT
BRANCH   1  12
HETATM   12  C7  UNL     1      20.803  59.256  16.922  1.00  0.00     0.140 C 
BRANCH  12  13
HETATM   13  C6  UNL     1      19.578  59.811  16.268  1.00  0.00     0.022 C 
HETATM   14  C5  UNL     1      19.560  61.269  16.025  1.00  0.00     0.009 C 
HETATM   15  C4  UNL     1      18.261  61.804  15.535  1.00  0.00     0.020 C 
HETATM   16  C3  UNL     1      17.132  60.826  15.694  1.00  0.00     0.117 C 
HETATM   17  N1  UNL     1      17.196  60.021  16.855  1.00  0.00    -0.412 N 
HETATM   18  C17 UNL     1      18.411  59.337  17.114  1.00  0.00     0.123 C 
BRANCH  17  19
HETATM   19  C2  UNL     1      16.679  60.563  18.063  1.00  0.00     0.112 C 
HETATM   20  C1  UNL     1      16.291  59.559  19.106  1.00  0.00     0.026 C 
ENDBRANCH  17  19
ENDBRANCH  12  13
ENDBRANCH   1  12
BRANCH   2  21
HETATM   21  O1  UNL     1      22.296  61.168  18.353  1.00  0.00    -0.344 OA
ATOM     22  H1  UNL     1      22.534  62.052  18.607  1.00  0.00     0.219 HD
ENDBRANCH   2  21
BRANCH   3  23
HETATM   23  C10 UNL     1      24.833  62.128  17.353  1.00  0.00     0.070 C 
BRANCH  23  24
HETATM   24  C11 UNL     1      25.653  61.686  18.513  1.00  0.00    -0.046 C 
HETATM   25  C12 UNL     1      25.173  62.354  19.808  1.00  0.00     0.015 C 
HETATM   26  C13 UNL     1      27.083  62.210  18.301  1.00  0.00     0.015 C 
HETATM   27  C14 UNL     1      25.765  60.219  18.747  1.00  0.00     0.015 C 
ENDBRANCH  23  24
ENDBRANCH   3  23
TORSDOF 6
ENDMDL
MODEL 4
REMARK VINA RESULT: -5.771502108      0.997      1.187
REMARK  6 active torsions:
REMARK  status: ('A' for Active; 'I' for Inactive)
REMARK    1  A    between atoms: C2_2  and  N1_3 
REMARK    2  A    between atoms: C6_7  and  C7_8 
REMARK    3  A    between atoms: C7_8  and  N2_9 
REMARK    4  A    between atoms: C8_10  and  O1_11 
REMARK    5  A    between atoms: C9_13  and  C10_14 
REMARK    6  A    between atoms: C10_14  and  C11_15 
ROOT
HETATM    1  N2  UNL     1      21.244  58.878  18.046  1.00  0.00    -0.290 N 
HETATM    2  C8  UNL     1      20.218  59.361  17.342  1.00  0.00     0.168 A 
HETATM    3  C9  UNL     1      18.909  58.927  17.572  1.00  0.00     0.063 A 
HETATM    4  N3  UNL     1      18.665  58.003  18.516  1.00  0.00    -0.338 N 
ATOM      5  H3  UNL     1      17.710  57.687  18.681  1.00  0.00     0.167 HD
HETATM    6  C15 UNL     1      19.676  57.492  19.244  1.00  0.00     0.169 A 
HETATM    7  N4  UNL     1      19.381  56.609  20.138  1.00  0.00    -0.381 N 
ATOM      8  H41 UNL     1      20.146  56.222  20.690  1.00  0.00     0.157 HD
ATOM      9  H42 UNL     1      18.433  56.279  20.319  1.00  0.00     0.157 HD
HETATM   10  C16 UNL     1      20.943  57.935  19.003  1.00  0.00     0.293 A 
HETATM   11  O2  UNL     1      21.878  57.457  19.685  1.00  0.00    -0.264 OA
ENDROOT
BRANCH   1  12
HETATM   12  C7  UNL     1      22.595  59.264  17.884  1.00  0.00     0.140 C 
BRANCH  12  13
HETATM   13  C6  UNL     1      23.109  60.416  18.687  1.00  0.00     0.022 C 
HETATM   14  C5  UNL     1      22.879  61.767  18.132  1.00  0.00     0.009 C 
HETATM   15  C4  UNL     1      23.553  62.868  18.870  1.00  0.00     0.020 C 
HETATM   16  C3  UNL     1      24.597  62.371  19.830  1.00  0.00     0.117 C 
HETATM   17  N1  UNL     1      25.320  61.236  19.393  1.00  0.00    -0.412 N 
HETATM   18  C17 UNL     1      24.576  60.120  18.935  1.00  0.00     0.123 C 
BRANCH  17  19
HETATM   19  C2  UNL     1      26.439  61.455  18.545  1.00  0.00     0.112 C 
HETATM   20  C1  UNL     1      27.394  62.518  18.999  1.00  0.00     0.026 C 
ENDBRANCH  17  19
ENDBRANCH  12  13
ENDBRANCH   1  12
BRANCH   2  21
HETATM   21  O1  UNL     1      20.459  60.296  16.363  1.00  0.00    -0.344 OA
ATOM     22  H1  UNL     1      21.289  60.277  15.901  1.00  0.00     0.219 HD
ENDBRANCH   2  21
BRANCH   3  23
HETATM   23  C10 UNL     1      17.737  59.462  16.865  1.00  0.00     0.070 C 
BRANCH  23  24
HETATM   24  C11 UNL     1      16.477  59.547  17.652  1.00  0.00    -0.046 C 
HETATM   25  C12 UNL     1      15.264  59.710  16.728  1.00  0.00     0.015 C 
HETATM   26  C13 UNL     1      16.527  60.847  18.474  1.00  0.00     0.015 C 
HETATM   27  C14 UNL     1      16.200  58.443  18.613  1.00  0.00     0.015 C 
ENDBRANCH  23  24
ENDBRANCH   3  23
TORSDOF 6
ENDMDL
MODEL 5
REMARK VINA RESULT: -5.736957166      1.928      7.194
REMARK  6 active torsions:
REMARK  status: ('A' for Active; 'I' for Inactive)
REMARK    1  A    between atoms: C2_2  and  N1_3 
REMARK    2  A    between atoms: C6_7  and  C7_8 
REMARK    3  A    between atoms: C7_8  and  N2_9 
REMARK    4  A    between atoms: C8_10  and  O1_11 
REMARK    5  A    between atoms: C9_13  and  C10_14 
REMARK    6  A    between atoms: C10_14  and  C11_15 
ROOT
HETATM    1  N2  UNL     1      20.773  60.114  16.785  1.00  0.00    -0.290 N 
HETATM    2  C8  UNL     1      21.726  60.186  17.717  1.00  0.00     0.168 A 
HETATM    3  C9  UNL     1      22.767  61.114  17.623  1.00  0.00     0.063 A 
HETATM    4  N3  UNL     1      22.824  61.954  16.577  1.00  0.00    -0.338 N 
ATOM      5  H3  UNL     1      23.584  62.630  16.510  1.00  0.00     0.167 HD
HETATM    6  C15 UNL     1      21.881  61.910  15.617  1.00  0.00     0.169 A 
HETATM    7  N4  UNL     1      21.986  62.743  14.637  1.00  0.00    -0.381 N 
ATOM      8  H41 UNL     1      21.272  62.709  13.909  1.00  0.00     0.157 HD
ATOM      9  H42 UNL     1      22.739  63.425  14.550  1.00  0.00     0.157 HD
HETATM   10  C16 UNL     1      20.873  60.997  15.734  1.00  0.00     0.293 A 
HETATM   11  O2  UNL     1      19.998  60.962  14.839  1.00  0.00    -0.264 OA
ENDROOT
BRANCH   1  12
HETATM   12  C7  UNL     1      19.683  59.212  16.804  1.00  0.00     0.140 C 
BRANCH  12  13
HETATM   13  C6  UNL     1      18.550  59.483  17.742  1.00  0.00     0.022 C 
HETATM   14  C5  UNL     1      17.863  58.303  18.309  1.00  0.00     0.009 C 
HETATM   15  C4  UNL     1      16.639  58.613  19.096  1.00  0.00     0.020 C 
HETATM   16  C3  UNL     1      16.154  60.019  18.888  1.00  0.00     0.117 C 
HETATM   17  N1  UNL     1      16.325  60.524  17.577  1.00  0.00    -0.412 N 
HETATM   18  C17 UNL     1      17.612  60.411  16.993  1.00  0.00     0.123 C 
BRANCH  17  19
HETATM   19  C2  UNL     1      15.327  60.212  16.616  1.00  0.00     0.112 C 
HETATM   20  C1  UNL     1      15.329  61.066  15.384  1.00  0.00     0.026 C 
ENDBRANCH  17  19
ENDBRANCH  12  13
ENDBRANCH   1  12
BRANCH   2  21
HETATM   21  O1  UNL     1      21.685  59.320  18.783  1.00  0.00    -0.344 OA
ATOM     22  H1  UNL     1      22.169  58.503  18.734  1.00  0.00     0.219 HD
ENDBRANCH   2  21
BRANCH   3  23
HETATM   23  C10 UNL     1      23.812  61.273  18.645  1.00  0.00     0.070 C 
BRANCH  23  24
HETATM   24  C11 UNL     1      25.040  60.453  18.461  1.00  0.00    -0.046 C 
HETATM   25  C12 UNL     1      25.090  59.308  19.481  1.00  0.00     0.015 C 
HETATM   26  C13 UNL     1      26.250  61.341  18.800  1.00  0.00     0.015 C 
HETATM   27  C14 UNL     1      25.287  59.893  17.103  1.00  0.00     0.015 C 
ENDBRANCH  23  24
ENDBRANCH   3  23
TORSDOF 6
ENDMDL
