MODEL 1
REMARK VINA RESULT: -6.438443847      0.000      0.000
REMARK  5 active torsions:
REMARK  status: ('A' for Active; 'I' for Inactive)
REMARK    1  A    between atoms: N1_1  and  C1_4 
REMARK    2  A    between atoms: C2_7  and  N3_8 
REMARK    3  A    between atoms: C5_11  and  C6_12 
REMARK    4  A    between atoms: C6_12  and  C7_13 
REMARK    5  A    between atoms: C7_13  and  N4_14 
ROOT
HETATM    1  N3  UNL     1      22.172  60.222  17.346  1.00  0.00    -0.365 N 
HETATM    2  C3  UNL     1      22.649  61.213  18.303  1.00  0.00     0.125 C 
HETATM    3  C4  UNL     1      23.284  62.396  17.641  1.00  0.00     0.024 C 
HETATM    4  C5  UNL     1      23.958  62.087  16.331  1.00  0.00    -0.010 C 
HETATM    5  C12 UNL     1      24.255  60.580  16.262  1.00  0.00     0.024 C 
HETATM    6  C13 UNL     1      22.880  59.900  16.149  1.00  0.00     0.125 C 
ENDROOT
BRANCH   1   7
HETATM    7  C2  UNL     1      20.964  59.559  17.676  1.00  0.00     0.147 A 
HETATM    8  N2  UNL     1      19.770  59.970  17.145  1.00  0.00    -0.174 N 
HETATM    9  C1  UNL     1      18.789  59.190  17.597  1.00  0.00     0.684 A 
ATOM     10  H2  UNL     1      19.651  60.753  16.502  1.00  0.00     0.186 HD
HETATM   11  N6  UNL     1      19.340  58.264  18.429  1.00  0.00    -0.155 N 
HETATM   12  C14 UNL     1      20.681  58.487  18.480  1.00  0.00     0.100 A 
HETATM   13  C18 UNL     1      18.815  57.259  19.141  1.00  0.00     0.115 A 
HETATM   14  C15 UNL     1      21.524  57.716  19.238  1.00  0.00     0.034 A 
HETATM   15  C16 UNL     1      20.975  56.674  19.973  1.00  0.00     0.004 A 
HETATM   16  C17 UNL     1      19.622  56.462  19.912  1.00  0.00     0.018 A 
BRANCH   9  17
HETATM   17  N1  UNL     1      17.544  59.279  17.307  1.00  0.00    -0.234 N 
ATOM     18  H12 UNL     1      16.787  59.392  17.981  1.00  0.00     0.174 HD
ATOM     19  H11 UNL     1      17.132  59.246  16.374  1.00  0.00     0.174 HD
ENDBRANCH   9  17
ENDBRANCH   1   7
BRANCH   4  20
HETATM   20  C6  UNL     1      25.247  62.864  16.183  1.00  0.00     0.024 C 
BRANCH  20  21
HETATM   21  C7  UNL     1      25.330  63.948  17.193  1.00  0.00     0.122 C 
BRANCH  21  22
HETATM   22  N4  UNL     1      26.376  63.783  18.171  1.00  0.00    -0.390 N 
HETATM   23  C8  UNL     1      26.221  64.531  19.376  1.00  0.00     0.141 C 
HETATM   24  C9  UNL     1      25.405  63.647  20.310  1.00  0.00     0.134 C 
HETATM   25  N5  UNL     1      26.244  62.534  20.631  1.00  0.00    -0.415 N 
HETATM   26  C10 UNL     1      26.672  61.744  19.530  1.00  0.00     0.158 C 
ATOM     27  H5  UNL     1      26.518  62.321  21.590  1.00  0.00     0.153 HD
HETATM   28  C11 UNL     1      26.926  62.500  18.266  1.00  0.00     0.077 C 
ENDBRANCH  21  22
ENDBRANCH  20  21
ENDBRANCH   4  20
TORSDOF 5
ENDMDL
MODEL 2
REMARK VINA RESULT: -6.365202265      1.954      3.748
REMARK  5 active torsions:
REMARK  status: ('A' for Active; 'I' for Inactive)
REMARK    1  A    between atoms: N1_1  and  C1_4 
REMARK    2  A    between atoms: C2_7  and  N3_8 
REMARK    3  A    between atoms: C5_11  and  C6_12 
REMARK    4  A    between atoms: C6_12  and  C7_13 
REMARK    5  A    between atoms: C7_13  and  N4_14 
ROOT
HETATM    1  N3  UNL     1      20.416  59.317  17.751  1.00  0.00    -0.365 N 
HETATM    2  C3  UNL     1      20.999  60.166  16.718  1.00  0.00     0.125 C 
HETATM    3  C4  UNL     1      22.253  59.589  16.138  1.00  0.00     0.024 C 
HETATM    4  C5  UNL     1      23.051  58.748  17.097  1.00  0.00    -0.010 C 
HETATM    5  C12 UNL     1      22.648  59.107  18.537  1.00  0.00     0.024 C 
HETATM    6  C13 UNL     1      21.206  58.594  18.694  1.00  0.00     0.125 C 
ENDROOT
BRANCH   1   7
HETATM    7  C2  UNL     1      19.001  59.265  17.797  1.00  0.00     0.147 A 
HETATM    8  N2  UNL     1      18.358  58.480  18.718  1.00  0.00    -0.174 N 
HETATM    9  C1  UNL     1      17.040  58.605  18.566  1.00  0.00     0.684 A 
ATOM     10  H2  UNL     1      18.817  57.891  19.411  1.00  0.00     0.186 HD
HETATM   11  N6  UNL     1      16.816  59.474  17.543  1.00  0.00    -0.155 N 
HETATM   12  C14 UNL     1      18.022  59.884  17.066  1.00  0.00     0.100 A 
HETATM   13  C18 UNL     1      15.695  59.945  16.983  1.00  0.00     0.115 A 
HETATM   14  C15 UNL     1      18.136  60.770  16.026  1.00  0.00     0.034 A 
HETATM   15  C16 UNL     1      16.971  61.256  15.449  1.00  0.00     0.004 A 
HETATM   16  C17 UNL     1      15.763  60.833  15.940  1.00  0.00     0.018 A 
BRANCH   9  17
HETATM   17  N1  UNL     1      16.131  58.022  19.257  1.00  0.00    -0.234 N 
ATOM     18  H12 UNL     1      16.253  57.157  19.784  1.00  0.00     0.174 HD
ATOM     19  H11 UNL     1      15.165  58.329  19.376  1.00  0.00     0.174 HD
ENDBRANCH   9  17
ENDBRANCH   1   7
BRANCH   4  20
HETATM   20  C6  UNL     1      24.536  58.974  16.917  1.00  0.00     0.024 C 
BRANCH  20  21
HETATM   21  C7  UNL     1      25.132  59.570  18.139  1.00  0.00     0.122 C 
BRANCH  21  22
HETATM   22  N4  UNL     1      25.757  60.853  17.940  1.00  0.00    -0.390 N 
HETATM   23  C8  UNL     1      25.118  61.713  16.996  1.00  0.00     0.141 C 
HETATM   24  C9  UNL     1      24.083  62.500  17.789  1.00  0.00     0.134 C 
HETATM   25  N5  UNL     1      24.823  63.348  18.670  1.00  0.00    -0.415 N 
HETATM   26  C10 UNL     1      25.679  62.686  19.591  1.00  0.00     0.158 C 
ATOM     27  H5  UNL     1      24.741  64.364  18.640  1.00  0.00     0.153 HD
HETATM   28  C11 UNL     1      26.324  61.440  19.077  1.00  0.00     0.077 C 
ENDBRANCH  21  22
ENDBRANCH  20  21
ENDBRANCH   4  20
TORSDOF 5
ENDMDL
MODEL 3
REMARK VINA RESULT: -6.328994626      1.156      1.713
REMARK  5 active torsions:
REMARK  status: ('A' for Active; 'I' for Inactive)
REMARK    1  A    between atoms: N1_1  and  C1_4 
REMARK    2  A    between atoms: C2_7  and  N3_8 
REMARK    3  A    between atoms: C5_11  and  C6_12 
REMARK    4  A    between atoms: C6_12  and  C7_13 
REMARK    5  A    between atoms: C7_13  and  N4_14 
ROOT
HETATM    1  N3  UNL     1      22.603  60.126  18.071  1.00  0.00    -0.365 N 
HETATM    2  C3  UNL     1      23.648  59.395  17.362  1.00  0.00     0.125 C 
HETATM    3  C4  UNL     1      25.000  59.582  17.977  1.00  0.00     0.024 C 
HETATM    4  C5  UNL     1      25.200  60.916  18.645  1.00  0.00    -0.010 C 
HETATM    5  C12 UNL     1      24.168  61.913  18.095  1.00  0.00     0.024 C 
HETATM    6  C13 UNL     1      22.808  61.425  18.625  1.00  0.00     0.125 C 
ENDROOT
BRANCH   1   7
HETATM    7  C2  UNL     1      21.341  59.489  18.161  1.00  0.00     0.147 A 
HETATM    8  N2  UNL     1      20.254  59.988  17.492  1.00  0.00    -0.174 N 
HETATM    9  C1  UNL     1      19.194  59.215  17.727  1.00  0.00     0.684 A 
ATOM     10  H2  UNL     1      20.256  60.822  16.906  1.00  0.00     0.186 HD
HETATM   11  N6  UNL     1      19.585  58.206  18.552  1.00  0.00    -0.155 N 
HETATM   12  C14 UNL     1      20.908  58.370  18.822  1.00  0.00     0.100 A 
HETATM   13  C18 UNL     1      18.929  57.171  19.091  1.00  0.00     0.115 A 
HETATM   14  C15 UNL     1      21.603  57.508  19.630  1.00  0.00     0.034 A 
HETATM   15  C16 UNL     1      20.919  56.436  20.186  1.00  0.00     0.004 A 
HETATM   16  C17 UNL     1      19.586  56.285  19.906  1.00  0.00     0.018 A 
BRANCH   9  17
HETATM   17  N1  UNL     1      18.011  59.377  17.262  1.00  0.00    -0.234 N 
ATOM     18  H12 UNL     1      17.475  58.674  16.752  1.00  0.00     0.174 HD
ATOM     19  H11 UNL     1      17.440  60.220  17.328  1.00  0.00     0.174 HD
ENDBRANCH   9  17
ENDBRANCH   1   7
BRANCH   4  20
HETATM   20  C6  UNL     1      26.595  61.446  18.401  1.00  0.00     0.024 C 
BRANCH  20  21
HETATM   21  C7  UNL     1      26.584  62.925  18.276  1.00  0.00     0.122 C 
BRANCH  21  22
HETATM   22  N4  UNL     1      27.167  63.628  19.390  1.00  0.00    -0.390 N 
HETATM   23  C8  UNL     1      26.277  64.466  20.127  1.00  0.00     0.141 C 
HETATM   24  C9  UNL     1      25.660  63.575  21.197  1.00  0.00     0.134 C 
HETATM   25  N5  UNL     1      26.725  63.235  22.089  1.00  0.00    -0.415 N 
HETATM   26  C10 UNL     1      27.820  62.541  21.508  1.00  0.00     0.158 C 
ATOM     27  H5  UNL     1      26.700  63.476  23.079  1.00  0.00     0.153 HD
HETATM   28  C11 UNL     1      28.151  62.935  20.104  1.00  0.00     0.077 C 
ENDBRANCH  21  22
ENDBRANCH  20  21
ENDBRANCH   4  20
TORSDOF 5
ENDMDL
MODEL 4
REMARK VINA RESULT: -6.315417083      1.166      2.285
REMARK  5 active torsions:
REMARK  status: ('A' for Active; 'I' for Inactive)
REMARK    1  A    between atoms: N1_1  and  C1_4 
REMARK    2  A    between atoms: C2_7  and  N3_8 
REMARK    3  A    between atoms: C5_11  and  C6_12 
REMARK    4  A    between atoms: C6_12  and  C7_13 
REMARK    5  A    between atoms: C7_13  and  N4_14 
ROOT
HETATM    1  N3  UNL     1      21.748  59.385  17.762  1.00  0.00    -0.365 N 
HETATM    2  C3  UNL     1      22.276  60.464  18.589  1.00  0.00     0.125 C 
HETATM    3  C4  UNL     1      22.872  61.572  17.777  1.00  0.00     0.024 C 
HETATM    4  C5  UNL     1      23.473  61.131  16.470  1.00  0.00    -0.010 C 
HETATM    5  C12 UNL     1      23.767  59.623  16.534  1.00  0.00     0.024 C 
HETATM    6  C13 UNL     1      22.388  58.941  16.567  1.00  0.00     0.125 C 
ENDROOT
BRANCH   1   7
HETATM    7  C2  UNL     1      20.561  58.763  18.224  1.00  0.00     0.147 A 
HETATM    8  N2  UNL     1      20.616  57.710  19.099  1.00  0.00    -0.174 N 
HETATM    9  C1  UNL     1      19.379  57.306  19.388  1.00  0.00     0.684 A 
ATOM     10  H2  UNL     1      21.471  57.299  19.471  1.00  0.00     0.186 HD
HETATM   11  N6  UNL     1      18.510  58.096  18.701  1.00  0.00    -0.155 N 
HETATM   12  C14 UNL     1      19.233  58.996  17.982  1.00  0.00     0.100 A 
HETATM   13  C18 UNL     1      17.173  58.121  18.627  1.00  0.00     0.115 A 
HETATM   14  C15 UNL     1      18.643  59.937  17.180  1.00  0.00     0.034 A 
HETATM   15  C16 UNL     1      17.257  59.961  17.108  1.00  0.00     0.004 A 
HETATM   16  C17 UNL     1      16.541  59.047  17.837  1.00  0.00     0.018 A 
BRANCH   9  17
HETATM   17  N1  UNL     1      19.050  56.350  20.175  1.00  0.00    -0.234 N 
ATOM     18  H12 UNL     1      19.122  55.356  19.959  1.00  0.00     0.174 HD
ATOM     19  H11 UNL     1      18.670  56.440  21.118  1.00  0.00     0.174 HD
ENDBRANCH   9  17
ENDBRANCH   1   7
BRANCH   4  20
HETATM   20  C6  UNL     1      24.751  61.883  16.173  1.00  0.00     0.024 C 
BRANCH  20  21
HETATM   21  C7  UNL     1      24.780  63.181  16.894  1.00  0.00     0.122 C 
BRANCH  21  22
HETATM   22  N4  UNL     1      25.875  63.332  17.818  1.00  0.00    -0.390 N 
HETATM   23  C8  UNL     1      25.680  64.290  18.858  1.00  0.00     0.141 C 
HETATM   24  C9  UNL     1      25.011  63.533  19.998  1.00  0.00     0.134 C 
HETATM   25  N5  UNL     1      25.988  62.607  20.481  1.00  0.00    -0.415 N 
HETATM   26  C10 UNL     1      26.463  61.659  19.535  1.00  0.00     0.158 C 
ATOM     27  H5  UNL     1      26.322  62.625  21.444  1.00  0.00     0.153 HD
HETATM   28  C11 UNL     1      26.577  62.163  18.132  1.00  0.00     0.077 C 
ENDBRANCH  21  22
ENDBRANCH  20  21
ENDBRANCH   4  20
TORSDOF 5
ENDMDL
MODEL 5
REMARK VINA RESULT: -6.276796179      0.927      1.184
REMARK  5 active torsions:
REMARK  status: ('A' for Active; 'I' for Inactive)
REMARK    1  A    between atoms: N1_1  and  C1_4 
REMARK    2  A    between atoms: C2_7  and  N3_8 
REMARK    3  A    between atoms: C5_11  and  C6_12 
REMARK    4  A    between atoms: C6_12  and  C7_13 
REMARK    5  A    between atoms: C7_13  and  N4_14 
ROOT
HETATM    1  N3  UNL     1      22.257  60.183  17.422  1.00  0.00    -0.365 N 
HETATM    2  C3  UNL     1      22.725  61.168  18.389  1.00  0.00     0.125 C 
HETATM    3  C4  UNL     1      23.394  62.340  17.740  1.00  0.00     0.024 C 
HETATM    4  C5  UNL     1      24.096  62.017  16.448  1.00  0.00    -0.010 C 
HETATM    5  C12 UNL     1      24.371  60.506  16.389  1.00  0.00     0.024 C 
HETATM    6  C13 UNL     1      22.989  59.846  16.244  1.00  0.00     0.125 C 
ENDROOT
BRANCH   1   7
HETATM    7  C2  UNL     1      21.032  59.538  17.724  1.00  0.00     0.147 A 
HETATM    8  N2  UNL     1      19.856  59.974  17.171  1.00  0.00    -0.174 N 
HETATM    9  C1  UNL     1      18.852  59.207  17.599  1.00  0.00     0.684 A 
ATOM     10  H2  UNL     1      19.763  60.762  16.531  1.00  0.00     0.186 HD
HETATM   11  N6  UNL     1      19.370  58.267  18.435  1.00  0.00    -0.155 N 
HETATM   12  C14 UNL     1      20.713  58.467  18.515  1.00  0.00     0.100 A 
HETATM   13  C18 UNL     1      18.814  57.267  19.131  1.00  0.00     0.115 A 
HETATM   14  C15 UNL     1      21.527  57.676  19.284  1.00  0.00     0.034 A 
HETATM   15  C16 UNL     1      20.946  56.640  20.002  1.00  0.00     0.004 A 
HETATM   16  C17 UNL     1      19.591  56.452  19.913  1.00  0.00     0.018 A 
BRANCH   9  17
HETATM   17  N1  UNL     1      17.615  59.320  17.285  1.00  0.00    -0.234 N 
ATOM     18  H12 UNL     1      16.861  59.557  17.929  1.00  0.00     0.174 HD
ATOM     19  H11 UNL     1      17.207  59.188  16.359  1.00  0.00     0.174 HD
ENDBRANCH   9  17
ENDBRANCH   1   7
BRANCH   4  20
HETATM   20  C6  UNL     1      25.400  62.774  16.329  1.00  0.00     0.024 C 
BRANCH  20  21
HETATM   21  C7  UNL     1      25.843  63.275  17.655  1.00  0.00     0.122 C 
BRANCH  21  22
HETATM   22  N4  UNL     1      26.900  62.509  18.266  1.00  0.00    -0.390 N 
HETATM   23  C8  UNL     1      28.226  62.961  17.996  1.00  0.00     0.141 C 
HETATM   24  C9  UNL     1      28.540  63.988  19.077  1.00  0.00     0.134 C 
HETATM   25  N5  UNL     1      28.604  63.259  20.306  1.00  0.00    -0.415 N 
HETATM   26  C10 UNL     1      27.419  62.569  20.678  1.00  0.00     0.158 C 
ATOM     27  H5  UNL     1      29.447  63.236  20.879  1.00  0.00     0.153 HD
HETATM   28  C11 UNL     1      26.629  62.003  19.542  1.00  0.00     0.077 C 
ENDBRANCH  21  22
ENDBRANCH  20  21
ENDBRANCH   4  20
TORSDOF 5
ENDMDL
