MODEL 1
REMARK VINA RESULT: -9.544274854      0.000      0.000
REMARK  2 active torsions:
REMARK  status: ('A' for Active; 'I' for Inactive)
REMARK    1  A    between atoms: C5_8  and  C6_9 
REMARK    2  A    between atoms: C7_10  and  C8_11 
ROOT
HETATM    1  N1  UNL     1      -9.544   1.285  16.756  1.00  0.00    -0.102 NA
HETATM    2  C1  UNL     1      -8.272   1.330  17.417  1.00  0.00     0.047 A 
HETATM    3  C2  UNL     1      -8.043   2.195  18.475  1.00  0.00     0.029 A 
HETATM    4  C3  UNL     1      -6.818   2.236  19.109  1.00  0.00     0.032 A 
HETATM    5  C4  UNL     1      -5.772   1.414  18.711  1.00  0.00     0.043 A 
HETATM    6  N2  UNL     1      -4.573   1.441  19.318  1.00  0.00    -0.349 N 
ATOM      7  H2  UNL     1      -4.443   2.091  20.093  1.00  0.00     0.167 HD
HETATM    8  C5  UNL     1      -3.538   0.666  18.967  1.00  0.00     0.087 A 
HETATM    9  C18 UNL     1      -3.764  -0.208  17.900  1.00  0.00     0.040 A 
HETATM   10  C19 UNL     1      -4.953  -0.283  17.247  1.00  0.00     0.016 A 
HETATM   11  C20 UNL     1      -5.987   0.537  17.646  1.00  0.00    -0.008 A 
HETATM   12  C21 UNL     1      -7.223   0.524  17.037  1.00  0.00     0.040 A 
ENDROOT
BRANCH   8  13
HETATM   13  C6  UNL     1      -2.261   0.715  19.634  1.00  0.00    -0.043 C 
HETATM   14  C7  UNL     1      -1.197   0.772  20.204  1.00  0.00    -0.059 C 
BRANCH  14  15
HETATM   15  C8  UNL     1       0.058   0.859  20.893  1.00  0.00     0.029 A 
HETATM   16  C9  UNL     1       0.290   0.215  22.115  1.00  0.00     0.021 A 
HETATM   17  C10 UNL     1       1.487   0.305  22.761  1.00  0.00     0.002 A 
HETATM   18  C11 UNL     1       2.501   1.042  22.213  1.00  0.00     0.012 A 
HETATM   19  C12 UNL     1       2.295   1.686  21.007  1.00  0.00    -0.025 A 
HETATM   20  C13 UNL     1       3.288   2.430  20.435  1.00  0.00     0.012 A 
HETATM   21  C17 UNL     1       1.076   1.596  20.348  1.00  0.00    -0.007 A 
HETATM   22  C14 UNL     1       3.103   3.082  19.233  1.00  0.00     0.001 A 
HETATM   23  C15 UNL     1       1.876   2.967  18.608  1.00  0.00     0.001 A 
HETATM   24  C16 UNL     1       0.842   2.229  19.144  1.00  0.00     0.014 A 
ENDBRANCH  14  15
ENDBRANCH   8  13
TORSDOF 2
ENDMDL
MODEL 2
REMARK VINA RESULT: -9.444337628      2.977      8.805
REMARK  2 active torsions:
REMARK  status: ('A' for Active; 'I' for Inactive)
REMARK    1  A    between atoms: C5_8  and  C6_9 
REMARK    2  A    between atoms: C7_10  and  C8_11 
ROOT
HETATM    1  N1  UNL     1       4.450   3.980  22.545  1.00  0.00    -0.102 NA
HETATM    2  C1  UNL     1       3.329   3.447  21.825  1.00  0.00     0.047 A 
HETATM    3  C2  UNL     1       3.202   3.630  20.458  1.00  0.00     0.029 A 
HETATM    4  C3  UNL     1       2.123   3.116  19.768  1.00  0.00     0.032 A 
HETATM    5  C4  UNL     1       1.128   2.397  20.417  1.00  0.00     0.043 A 
HETATM    6  N2  UNL     1       0.071   1.889  19.760  1.00  0.00    -0.349 N 
ATOM      7  H2  UNL     1       0.012   2.045  18.753  1.00  0.00     0.167 HD
HETATM    8  C5  UNL     1      -0.910   1.190  20.346  1.00  0.00     0.087 A 
HETATM    9  C18 UNL     1      -0.786   1.002  21.725  1.00  0.00     0.040 A 
HETATM   10  C19 UNL     1       0.258   1.490  22.445  1.00  0.00     0.016 A 
HETATM   11  C20 UNL     1       1.243   2.203  21.794  1.00  0.00    -0.008 A 
HETATM   12  C21 UNL     1       2.333   2.732  22.450  1.00  0.00     0.040 A 
ENDROOT
BRANCH   8  13
HETATM   13  C6  UNL     1      -2.034   0.656  19.618  1.00  0.00    -0.043 C 
HETATM   14  C7  UNL     1      -2.989   0.218  19.020  1.00  0.00    -0.059 C 
BRANCH  14  15
HETATM   15  C8  UNL     1      -4.136  -0.292  18.327  1.00  0.00     0.029 A 
HETATM   16  C9  UNL     1      -4.482   0.130  17.037  1.00  0.00     0.021 A 
HETATM   17  C10 UNL     1      -5.576  -0.361  16.387  1.00  0.00     0.002 A 
HETATM   18  C11 UNL     1      -6.368  -1.293  17.000  1.00  0.00     0.012 A 
HETATM   19  C12 UNL     1      -6.046  -1.725  18.273  1.00  0.00    -0.025 A 
HETATM   20  C13 UNL     1      -6.817  -2.654  18.912  1.00  0.00     0.012 A 
HETATM   21  C17 UNL     1      -4.932  -1.225  18.937  1.00  0.00    -0.007 A 
HETATM   22  C14 UNL     1      -6.513  -3.098  20.182  1.00  0.00     0.001 A 
HETATM   23  C15 UNL     1      -5.397  -2.577  20.808  1.00  0.00     0.001 A 
HETATM   24  C16 UNL     1      -4.587  -1.637  20.208  1.00  0.00     0.014 A 
ENDBRANCH  14  15
ENDBRANCH   8  13
TORSDOF 2
ENDMDL
MODEL 3
REMARK VINA RESULT: -9.269100752      2.840      8.481
REMARK  2 active torsions:
REMARK  status: ('A' for Active; 'I' for Inactive)
REMARK    1  A    between atoms: C5_8  and  C6_9 
REMARK    2  A    between atoms: C7_10  and  C8_11 
ROOT
HETATM    1  N1  UNL     1       4.073   3.987  21.528  1.00  0.00    -0.102 NA
HETATM    2  C1  UNL     1       2.842   3.307  21.248  1.00  0.00     0.047 A 
HETATM    3  C2  UNL     1       2.003   2.892  22.270  1.00  0.00     0.029 A 
HETATM    4  C3  UNL     1       0.818   2.237  21.997  1.00  0.00     0.032 A 
HETATM    5  C4  UNL     1       0.425   1.972  20.692  1.00  0.00     0.043 A 
HETATM    6  N2  UNL     1      -0.725   1.336  20.409  1.00  0.00    -0.349 N 
ATOM      7  H2  UNL     1      -1.316   1.046  21.188  1.00  0.00     0.167 HD
HETATM    8  C5  UNL     1      -1.142   1.060  19.167  1.00  0.00     0.087 A 
HETATM    9  C18 UNL     1      -0.300   1.476  18.133  1.00  0.00     0.040 A 
HETATM   10  C19 UNL     1       0.875   2.124  18.354  1.00  0.00     0.016 A 
HETATM   11  C20 UNL     1       1.260   2.384  19.652  1.00  0.00    -0.008 A 
HETATM   12  C21 UNL     1       2.434   3.034  19.962  1.00  0.00     0.040 A 
ENDROOT
BRANCH   8  13
HETATM   13  C6  UNL     1      -2.381   0.376  18.890  1.00  0.00    -0.043 C 
HETATM   14  C7  UNL     1      -3.429  -0.181  18.661  1.00  0.00    -0.059 C 
BRANCH  14  15
HETATM   15  C8  UNL     1      -4.684  -0.820  18.392  1.00  0.00     0.029 A 
HETATM   16  C9  UNL     1      -5.317  -1.653  19.324  1.00  0.00     0.021 A 
HETATM   17  C10 UNL     1      -6.511  -2.255  19.058  1.00  0.00     0.002 A 
HETATM   18  C11 UNL     1      -7.121  -2.050  17.851  1.00  0.00     0.012 A 
HETATM   19  C12 UNL     1      -6.515  -1.232  16.916  1.00  0.00    -0.025 A 
HETATM   20  C13 UNL     1      -7.099  -1.008  15.701  1.00  0.00     0.012 A 
HETATM   21  C17 UNL     1      -5.299  -0.618  17.185  1.00  0.00    -0.007 A 
HETATM   22  C14 UNL     1      -6.511  -0.196  14.753  1.00  0.00     0.001 A 
HETATM   23  C15 UNL     1      -5.301   0.398  15.060  1.00  0.00     0.001 A 
HETATM   24  C16 UNL     1      -4.671   0.204  16.270  1.00  0.00     0.014 A 
ENDBRANCH  14  15
ENDBRANCH   8  13
TORSDOF 2
ENDMDL
MODEL 4
REMARK VINA RESULT: -9.208280341      2.734      8.693
REMARK  2 active torsions:
REMARK  status: ('A' for Active; 'I' for Inactive)
REMARK    1  A    between atoms: C5_8  and  C6_9 
REMARK    2  A    between atoms: C7_10  and  C8_11 
ROOT
HETATM    1  N1  UNL     1       4.392   1.814  20.973  1.00  0.00    -0.102 NA
HETATM    2  C1  UNL     1       3.096   1.660  20.377  1.00  0.00     0.047 A 
HETATM    3  C2  UNL     1       2.566   2.635  19.548  1.00  0.00     0.029 A 
HETATM    4  C3  UNL     1       1.319   2.484  18.977  1.00  0.00     0.032 A 
HETATM    5  C4  UNL     1       0.550   1.351  19.212  1.00  0.00     0.043 A 
HETATM    6  N2  UNL     1      -0.666   1.188  18.664  1.00  0.00    -0.349 N 
ATOM      7  H2  UNL     1      -1.022   1.928  18.059  1.00  0.00     0.167 HD
HETATM    8  C5  UNL     1      -1.439   0.112  18.863  1.00  0.00     0.087 A 
HETATM    9  C18 UNL     1      -0.909  -0.875  19.698  1.00  0.00     0.040 A 
HETATM   10  C19 UNL     1       0.313  -0.769  20.282  1.00  0.00     0.016 A 
HETATM   11  C20 UNL     1       1.071   0.359  20.045  1.00  0.00    -0.008 A 
HETATM   12  C21 UNL     1       2.319   0.545  20.598  1.00  0.00     0.040 A 
ENDROOT
BRANCH   8  13
HETATM   13  C6  UNL     1      -2.741  -0.038  18.263  1.00  0.00    -0.043 C 
HETATM   14  C7  UNL     1      -3.837  -0.145  17.763  1.00  0.00    -0.059 C 
BRANCH  14  15
HETATM   15  C8  UNL     1      -5.140  -0.248  17.175  1.00  0.00     0.029 A 
HETATM   16  C9  UNL     1      -6.293  -0.470  17.940  1.00  0.00     0.021 A 
HETATM   17  C10 UNL     1      -7.528  -0.567  17.371  1.00  0.00     0.002 A 
HETATM   18  C11 UNL     1      -7.662  -0.445  16.014  1.00  0.00     0.012 A 
HETATM   19  C12 UNL     1      -6.539  -0.225  15.240  1.00  0.00    -0.025 A 
HETATM   20  C13 UNL     1      -6.640  -0.100  13.883  1.00  0.00     0.012 A 
HETATM   21  C17 UNL     1      -5.280  -0.127  15.818  1.00  0.00    -0.007 A 
HETATM   22  C14 UNL     1      -5.531   0.119  13.091  1.00  0.00     0.001 A 
HETATM   23  C15 UNL     1      -4.296   0.211  13.705  1.00  0.00     0.001 A 
HETATM   24  C16 UNL     1      -4.141   0.092  15.069  1.00  0.00     0.014 A 
ENDBRANCH  14  15
ENDBRANCH   8  13
TORSDOF 2
ENDMDL
MODEL 5
REMARK VINA RESULT: -9.147794103      3.108      8.585
REMARK  2 active torsions:
REMARK  status: ('A' for Active; 'I' for Inactive)
REMARK    1  A    between atoms: C5_8  and  C6_9 
REMARK    2  A    between atoms: C7_10  and  C8_11 
ROOT
HETATM    1  N1  UNL     1       4.083   4.143  21.786  1.00  0.00    -0.102 NA
HETATM    2  C1  UNL     1       2.869   3.449  21.469  1.00  0.00     0.047 A 
HETATM    3  C2  UNL     1       2.038   2.964  22.466  1.00  0.00     0.029 A 
HETATM    4  C3  UNL     1       0.870   2.296  22.159  1.00  0.00     0.032 A 
HETATM    5  C4  UNL     1       0.485   2.086  20.841  1.00  0.00     0.043 A 
HETATM    6  N2  UNL     1      -0.649   1.437  20.524  1.00  0.00    -0.349 N 
ATOM      7  H2  UNL     1      -1.234   1.095  21.286  1.00  0.00     0.167 HD
HETATM    8  C5  UNL     1      -1.057   1.213  19.268  1.00  0.00     0.087 A 
HETATM    9  C18 UNL     1      -0.223   1.700  18.258  1.00  0.00     0.040 A 
HETATM   10  C19 UNL     1       0.935   2.363  18.514  1.00  0.00     0.016 A 
HETATM   11  C20 UNL     1       1.312   2.569  19.825  1.00  0.00    -0.008 A 
HETATM   12  C21 UNL     1       2.470   3.230  20.170  1.00  0.00     0.040 A 
ENDROOT
BRANCH   8  13
HETATM   13  C6  UNL     1      -2.279   0.515  18.955  1.00  0.00    -0.043 C 
HETATM   14  C7  UNL     1      -3.313  -0.057  18.701  1.00  0.00    -0.059 C 
BRANCH  14  15
HETATM   15  C8  UNL     1      -4.553  -0.717  18.412  1.00  0.00     0.029 A 
HETATM   16  C9  UNL     1      -5.280  -0.468  17.241  1.00  0.00     0.021 A 
HETATM   17  C10 UNL     1      -6.458  -1.102  16.976  1.00  0.00     0.002 A 
HETATM   18  C11 UNL     1      -6.957  -2.009  17.870  1.00  0.00     0.012 A 
HETATM   19  C12 UNL     1      -6.257  -2.271  19.032  1.00  0.00    -0.025 A 
HETATM   20  C13 UNL     1      -6.729  -3.171  19.945  1.00  0.00     0.012 A 
HETATM   21  C17 UNL     1      -5.057  -1.626  19.304  1.00  0.00    -0.007 A 
HETATM   22  C14 UNL     1      -6.046  -3.447  21.111  1.00  0.00     0.001 A 
HETATM   23  C15 UNL     1      -4.855  -2.785  21.345  1.00  0.00     0.001 A 
HETATM   24  C16 UNL     1      -4.336  -1.868  20.456  1.00  0.00     0.014 A 
ENDBRANCH  14  15
ENDBRANCH   8  13
TORSDOF 2
ENDMDL
