MODEL 1
REMARK VINA RESULT: -8.301633959      0.000      0.000
REMARK  9 active torsions:
REMARK  status: ('A' for Active; 'I' for Inactive)
REMARK    1  A    between atoms: C6_6  and  N1_8 
REMARK    2  A    between atoms: C9_13  and  C10_14 
REMARK    3  A    between atoms: C10_14  and  O1_15 
REMARK    4  A    between atoms: O1_15  and  C11_16 
REMARK    5  A    between atoms: C13_18  and  N2_19 
REMARK    6  A    between atoms: C16_25  and  O4_26 
REMARK    7  A    between atoms: O4_26  and  C17_27 
REMARK    8  A    between atoms: C17_27  and  C18_28 
REMARK    9  A    between atoms: C18_28  and  O5_29 
ROOT
HETATM    1  C10 UNL     1      45.603  21.978  19.908  1.00  0.00     0.181 C 
ENDROOT
BRANCH   1   2
HETATM    2  C9  UNL     1      44.789  20.709  19.787  1.00  0.00     0.020 C 
HETATM    3  C8  UNL     1      43.338  21.203  19.852  1.00  0.00     0.046 C 
HETATM    4  C6  UNL     1      42.328  20.256  19.344  1.00  0.00     0.124 C 
HETATM    5  C5  UNL     1      42.808  18.836  19.189  1.00  0.00     0.072 C 
HETATM    6  C7  UNL     1      41.194  20.197  20.382  1.00  0.00     0.046 C 
HETATM    7  C4  UNL     1      44.106  18.781  18.489  1.00  0.00    -0.076 C 
HETATM    8  C3  UNL     1      44.682  17.801  17.822  1.00  0.00    -0.019 C 
HETATM    9  C19 UNL     1      44.960  20.008  18.496  1.00  0.00     0.021 C 
HETATM   10  C2  UNL     1      46.012  18.222  17.283  1.00  0.00     0.005 C 
HETATM   11  C1  UNL     1      45.822  18.674  15.865  1.00  0.00     0.014 C 
HETATM   12  C20 UNL     1      46.300  19.388  18.229  1.00  0.00     0.017 C 
BRANCH   4  13
HETATM   13  N1  UNL     1      41.681  20.728  18.120  1.00  0.00    -0.070 N 
ATOM     14  H13 UNL     1      41.718  20.027  17.380  1.00  0.00     0.275 HD
ATOM     15  H12 UNL     1      40.668  20.786  18.229  1.00  0.00     0.275 HD
ATOM     16  H11 UNL     1      42.077  21.617  17.815  1.00  0.00     0.275 HD
ENDBRANCH   4  13
ENDBRANCH   1   2
BRANCH   1  17
HETATM   17  O1  UNL     1      45.082  23.140  19.458  1.00  0.00    -0.348 OA
BRANCH  17  18
HETATM   18  C11 UNL     1      45.324  24.454  19.636  1.00  0.00     0.105 A 
HETATM   19  C12 UNL     1      45.924  25.198  18.650  1.00  0.00     0.075 A 
HETATM   20  C13 UNL     1      46.175  26.568  18.833  1.00  0.00     0.107 A 
HETATM   21  C14 UNL     1      45.795  27.124  20.033  1.00  0.00     0.058 A 
HETATM   22  C15 UNL     1      45.193  26.374  21.021  1.00  0.00     0.049 A 
HETATM   23 BR1  UNL     1      44.676  27.183  22.688  1.00  0.00    -0.048 Br
HETATM   24  C16 UNL     1      44.946  25.055  20.858  1.00  0.00     0.119 A 
BRANCH  20  25
HETATM   25  N2  UNL     1      46.795  27.310  17.797  1.00  0.00    -0.116 N 
HETATM   26  O2  UNL     1      46.940  28.528  17.921  1.00  0.00    -0.532 OA
HETATM   27  O3  UNL     1      47.230  26.678  16.666  1.00  0.00    -0.532 OA
ENDBRANCH  20  25
BRANCH  24  28
HETATM   28  O4  UNL     1      44.355  24.233  21.781  1.00  0.00    -0.345 OA
BRANCH  28  29
HETATM   29  C17 UNL     1      42.997  24.040  21.982  1.00  0.00     0.201 C 
BRANCH  29  30
HETATM   30  C18 UNL     1      42.800  23.548  23.421  1.00  0.00     0.190 C 
BRANCH  30  31
HETATM   31  O5  UNL     1      43.578  24.362  24.261  1.00  0.00    -0.399 OA
ATOM     32  H5  UNL     1      44.289  23.832  24.601  1.00  0.00     0.209 HD
ENDBRANCH  30  31
ENDBRANCH  29  30
ENDBRANCH  28  29
ENDBRANCH  24  28
ENDBRANCH  17  18
ENDBRANCH   1  17
TORSDOF 9
ENDMDL
MODEL 2
REMARK VINA RESULT: -8.221239503      1.383      3.172
REMARK  9 active torsions:
REMARK  status: ('A' for Active; 'I' for Inactive)
REMARK    1  A    between atoms: C6_6  and  N1_8 
REMARK    2  A    between atoms: C9_13  and  C10_14 
REMARK    3  A    between atoms: C10_14  and  O1_15 
REMARK    4  A    between atoms: O1_15  and  C11_16 
REMARK    5  A    between atoms: C13_18  and  N2_19 
REMARK    6  A    between atoms: C16_25  and  O4_26 
REMARK    7  A    between atoms: O4_26  and  C17_27 
REMARK    8  A    between atoms: C17_27  and  C18_28 
REMARK    9  A    between atoms: C18_28  and  O5_29 
ROOT
HETATM    1  C10 UNL     1      43.097  23.571  18.386  1.00  0.00     0.181 C 
ENDROOT
BRANCH   1   2
HETATM    2  C9  UNL     1      42.903  22.071  18.409  1.00  0.00     0.020 C 
HETATM    3  C8  UNL     1      44.332  21.521  18.325  1.00  0.00     0.046 C 
HETATM    4  C6  UNL     1      44.491  20.116  18.746  1.00  0.00     0.124 C 
HETATM    5  C5  UNL     1      43.208  19.331  18.836  1.00  0.00     0.072 C 
HETATM    6  C7  UNL     1      45.334  19.409  17.671  1.00  0.00     0.046 C 
HETATM    7  C4  UNL     1      42.171  20.077  19.574  1.00  0.00    -0.076 C 
HETATM    8  C3  UNL     1      41.092  19.657  20.203  1.00  0.00    -0.019 C 
HETATM    9  C19 UNL     1      42.306  21.563  19.663  1.00  0.00     0.021 C 
HETATM   10  C2  UNL     1      40.338  20.797  20.808  1.00  0.00     0.005 C 
HETATM   11  C1  UNL     1      40.758  20.930  22.241  1.00  0.00     0.014 C 
HETATM   12  C20 UNL     1      40.878  21.934  19.938  1.00  0.00     0.017 C 
BRANCH   4  13
HETATM   13  N1  UNL     1      45.276  19.983  19.973  1.00  0.00    -0.070 N 
ATOM     14  H13 UNL     1      45.876  20.794  20.126  1.00  0.00     0.275 HD
ATOM     15  H12 UNL     1      44.691  20.065  20.804  1.00  0.00     0.275 HD
ATOM     16  H11 UNL     1      45.811  19.115  19.973  1.00  0.00     0.275 HD
ENDBRANCH   4  13
ENDBRANCH   1   2
BRANCH   1  17
HETATM   17  O1  UNL     1      44.350  24.073  18.424  1.00  0.00    -0.348 OA
BRANCH  17  18
HETATM   18  C11 UNL     1      44.941  25.193  18.888  1.00  0.00     0.105 A 
HETATM   19  C12 UNL     1      45.811  25.907  18.100  1.00  0.00     0.075 A 
HETATM   20  C13 UNL     1      46.425  27.074  18.581  1.00  0.00     0.107 A 
HETATM   21  C14 UNL     1      46.118  27.467  19.864  1.00  0.00     0.058 A 
HETATM   22  C15 UNL     1      45.244  26.748  20.652  1.00  0.00     0.049 A 
HETATM   23 BR1  UNL     1      44.838  27.324  22.442  1.00  0.00    -0.048 Br
HETATM   24  C16 UNL     1      44.647  25.622  20.202  1.00  0.00     0.119 A 
BRANCH  20  25
HETATM   25  N2  UNL     1      47.317  27.791  17.745  1.00  0.00    -0.116 N 
HETATM   26  O2  UNL     1      47.512  28.991  17.945  1.00  0.00    -0.532 OA
HETATM   27  O3  UNL     1      47.961  27.152  16.721  1.00  0.00    -0.532 OA
ENDBRANCH  20  25
BRANCH  24  28
HETATM   28  O4  UNL     1      43.768  24.846  20.911  1.00  0.00    -0.345 OA
BRANCH  28  29
HETATM   29  C17 UNL     1      44.078  23.873  21.848  1.00  0.00     0.201 C 
BRANCH  29  30
HETATM   30  C18 UNL     1      43.056  23.974  22.986  1.00  0.00     0.190 C 
BRANCH  30  31
HETATM   31  O5  UNL     1      43.745  24.365  24.146  1.00  0.00    -0.399 OA
ATOM     32  H5  UNL     1      43.861  23.594  24.688  1.00  0.00     0.209 HD
ENDBRANCH  30  31
ENDBRANCH  29  30
ENDBRANCH  28  29
ENDBRANCH  24  28
ENDBRANCH  17  18
ENDBRANCH   1  17
TORSDOF 9
ENDMDL
MODEL 3
REMARK VINA RESULT: -8.128092377      2.180      4.862
REMARK  9 active torsions:
REMARK  status: ('A' for Active; 'I' for Inactive)
REMARK    1  A    between atoms: C6_6  and  N1_8 
REMARK    2  A    between atoms: C9_13  and  C10_14 
REMARK    3  A    between atoms: C10_14  and  O1_15 
REMARK    4  A    between atoms: O1_15  and  C11_16 
REMARK    5  A    between atoms: C13_18  and  N2_19 
REMARK    6  A    between atoms: C16_25  and  O4_26 
REMARK    7  A    between atoms: O4_26  and  C17_27 
REMARK    8  A    between atoms: C17_27  and  C18_28 
REMARK    9  A    between atoms: C18_28  and  O5_29 
ROOT
HETATM    1  C10 UNL     1      45.758  21.656  19.413  1.00  0.00     0.181 C 
ENDROOT
BRANCH   1   2
HETATM    2  C9  UNL     1      45.088  20.485  18.730  1.00  0.00     0.020 C 
HETATM    3  C8  UNL     1      46.021  19.307  19.034  1.00  0.00     0.046 C 
HETATM    4  C6  UNL     1      45.424  17.970  18.861  1.00  0.00     0.124 C 
HETATM    5  C5  UNL     1      44.141  17.945  18.071  1.00  0.00     0.072 C 
HETATM    6  C7  UNL     1      46.422  17.124  18.053  1.00  0.00     0.046 C 
HETATM    7  C4  UNL     1      43.199  18.979  18.540  1.00  0.00    -0.076 C 
HETATM    8  C3  UNL     1      41.890  19.069  18.422  1.00  0.00    -0.019 C 
HETATM    9  C19 UNL     1      43.758  20.150  19.284  1.00  0.00     0.021 C 
HETATM   10  C2  UNL     1      41.371  20.315  19.066  1.00  0.00     0.005 C 
HETATM   11  C1  UNL     1      40.923  19.973  20.456  1.00  0.00     0.014 C 
HETATM   12  C20 UNL     1      42.656  21.145  19.060  1.00  0.00     0.017 C 
BRANCH   4  13
HETATM   13  N1  UNL     1      45.275  17.252  20.127  1.00  0.00    -0.070 N 
ATOM     14  H13 UNL     1      45.157  16.250  19.979  1.00  0.00     0.275 HD
ATOM     15  H12 UNL     1      46.150  17.230  20.650  1.00  0.00     0.275 HD
ATOM     16  H11 UNL     1      44.514  17.643  20.682  1.00  0.00     0.275 HD
ENDBRANCH   4  13
ENDBRANCH   1   2
BRANCH   1  17
HETATM   17  O1  UNL     1      45.136  22.855  19.426  1.00  0.00    -0.348 OA
BRANCH  17  18
HETATM   18  C11 UNL     1      44.789  23.766  20.358  1.00  0.00     0.105 A 
HETATM   19  C12 UNL     1      44.140  23.383  21.506  1.00  0.00     0.075 A 
HETATM   20  C13 UNL     1      43.780  24.330  22.479  1.00  0.00     0.107 A 
HETATM   21  C14 UNL     1      44.104  25.645  22.231  1.00  0.00     0.058 A 
HETATM   22  C15 UNL     1      44.756  26.025  21.077  1.00  0.00     0.049 A 
HETATM   23 BR1  UNL     1      45.193  27.871  20.761  1.00  0.00    -0.048 Br
HETATM   24  C16 UNL     1      45.107  25.124  20.132  1.00  0.00     0.119 A 
BRANCH  20  25
HETATM   25  N2  UNL     1      43.111  23.907  23.654  1.00  0.00    -0.116 N 
HETATM   26  O2  UNL     1      42.102  23.207  23.566  1.00  0.00    -0.532 OA
HETATM   27  O3  UNL     1      43.587  24.274  24.883  1.00  0.00    -0.532 OA
ENDBRANCH  20  25
BRANCH  24  28
HETATM   28  O4  UNL     1      45.755  25.409  18.959  1.00  0.00    -0.345 OA
BRANCH  28  29
HETATM   29  C17 UNL     1      47.084  25.768  18.801  1.00  0.00     0.201 C 
BRANCH  29  30
HETATM   30  C18 UNL     1      47.210  26.538  17.481  1.00  0.00     0.190 C 
BRANCH  30  31
HETATM   31  O5  UNL     1      46.313  27.617  17.529  1.00  0.00    -0.399 OA
ATOM     32  H5  UNL     1      45.481  27.318  17.180  1.00  0.00     0.209 HD
ENDBRANCH  30  31
ENDBRANCH  29  30
ENDBRANCH  28  29
ENDBRANCH  24  28
ENDBRANCH  17  18
ENDBRANCH   1  17
TORSDOF 9
ENDMDL
MODEL 4
REMARK VINA RESULT: -8.090820007      1.167      3.011
REMARK  9 active torsions:
REMARK  status: ('A' for Active; 'I' for Inactive)
REMARK    1  A    between atoms: C6_6  and  N1_8 
REMARK    2  A    between atoms: C9_13  and  C10_14 
REMARK    3  A    between atoms: C10_14  and  O1_15 
REMARK    4  A    between atoms: O1_15  and  C11_16 
REMARK    5  A    between atoms: C13_18  and  N2_19 
REMARK    6  A    between atoms: C16_25  and  O4_26 
REMARK    7  A    between atoms: O4_26  and  C17_27 
REMARK    8  A    between atoms: C17_27  and  C18_28 
REMARK    9  A    between atoms: C18_28  and  O5_29 
ROOT
HETATM    1  C10 UNL     1      44.902  22.367  19.140  1.00  0.00     0.181 C 
ENDROOT
BRANCH   1   2
HETATM    2  C9  UNL     1      43.961  21.259  18.725  1.00  0.00     0.020 C 
HETATM    3  C8  UNL     1      44.890  20.061  18.501  1.00  0.00     0.046 C 
HETATM    4  C6  UNL     1      44.227  18.743  18.498  1.00  0.00     0.124 C 
HETATM    5  C5  UNL     1      42.729  18.785  18.342  1.00  0.00     0.072 C 
HETATM    6  C7  UNL     1      44.748  17.971  17.274  1.00  0.00     0.046 C 
HETATM    7  C4  UNL     1      42.121  19.774  19.253  1.00  0.00    -0.076 C 
HETATM    8  C3  UNL     1      40.893  19.871  19.721  1.00  0.00    -0.019 C 
HETATM    9  C19 UNL     1      42.988  20.876  19.771  1.00  0.00     0.021 C 
HETATM   10  C2  UNL     1      40.749  21.056  20.622  1.00  0.00     0.005 C 
HETATM   11  C1  UNL     1      40.932  20.594  22.038  1.00  0.00     0.014 C 
HETATM   12  C20 UNL     1      41.935  21.885  20.126  1.00  0.00     0.017 C 
BRANCH   4  13
HETATM   13  N1  UNL     1      44.614  17.917  19.643  1.00  0.00    -0.070 N 
ATOM     14  H13 UNL     1      45.106  18.463  20.351  1.00  0.00     0.275 HD
ATOM     15  H12 UNL     1      43.803  17.640  20.196  1.00  0.00     0.275 HD
ATOM     16  H11 UNL     1      45.160  17.109  19.344  1.00  0.00     0.275 HD
ENDBRANCH   4  13
ENDBRANCH   1   2
BRANCH   1  17
HETATM   17  O1  UNL     1      44.567  23.649  18.879  1.00  0.00    -0.348 OA
BRANCH  17  18
HETATM   18  C11 UNL     1      45.036  24.870  19.210  1.00  0.00     0.105 A 
HETATM   19  C12 UNL     1      45.847  25.567  18.349  1.00  0.00     0.075 A 
HETATM   20  C13 UNL     1      46.334  26.840  18.690  1.00  0.00     0.107 A 
HETATM   21  C14 UNL     1      45.964  27.349  19.914  1.00  0.00     0.058 A 
HETATM   22  C15 UNL     1      45.151  26.646  20.776  1.00  0.00     0.049 A 
HETATM   23 BR1  UNL     1      44.654  27.387  22.481  1.00  0.00    -0.048 Br
HETATM   24  C16 UNL     1      44.675  25.420  20.460  1.00  0.00     0.119 A 
BRANCH  20  25
HETATM   25  N2  UNL     1      47.168  27.537  17.782  1.00  0.00    -0.116 N 
HETATM   26  O2  UNL     1      47.668  26.939  16.827  1.00  0.00    -0.532 OA
HETATM   27  O3  UNL     1      47.418  28.870  17.964  1.00  0.00    -0.532 OA
ENDBRANCH  20  25
BRANCH  24  28
HETATM   28  O4  UNL     1      43.863  24.650  21.251  1.00  0.00    -0.345 OA
BRANCH  28  29
HETATM   29  C17 UNL     1      44.233  23.914  22.365  1.00  0.00     0.201 C 
BRANCH  29  30
HETATM   30  C18 UNL     1      43.092  24.000  23.385  1.00  0.00     0.190 C 
BRANCH  30  31
HETATM   31  O5  UNL     1      43.633  24.466  24.594  1.00  0.00    -0.399 OA
ATOM     32  H5  UNL     1      43.732  23.720  25.174  1.00  0.00     0.209 HD
ENDBRANCH  30  31
ENDBRANCH  29  30
ENDBRANCH  28  29
ENDBRANCH  24  28
ENDBRANCH  17  18
ENDBRANCH   1  17
TORSDOF 9
ENDMDL
MODEL 5
REMARK VINA RESULT: -7.719884813      1.836      4.072
REMARK  9 active torsions:
REMARK  status: ('A' for Active; 'I' for Inactive)
REMARK    1  A    between atoms: C6_6  and  N1_8 
REMARK    2  A    between atoms: C9_13  and  C10_14 
REMARK    3  A    between atoms: C10_14  and  O1_15 
REMARK    4  A    between atoms: O1_15  and  C11_16 
REMARK    5  A    between atoms: C13_18  and  N2_19 
REMARK    6  A    between atoms: C16_25  and  O4_26 
REMARK    7  A    between atoms: O4_26  and  C17_27 
REMARK    8  A    between atoms: C17_27  and  C18_28 
REMARK    9  A    between atoms: C18_28  and  O5_29 
ROOT
HETATM    1  C10 UNL     1      45.222  21.901  19.186  1.00  0.00     0.181 C 
ENDROOT
BRANCH   1   2
HETATM    2  C9  UNL     1      44.566  20.547  19.338  1.00  0.00     0.020 C 
HETATM    3  C8  UNL     1      43.069  20.875  19.386  1.00  0.00     0.046 C 
HETATM    4  C6  UNL     1      42.167  19.741  19.108  1.00  0.00     0.124 C 
HETATM    5  C5  UNL     1      42.813  18.382  19.188  1.00  0.00     0.072 C 
HETATM    6  C7  UNL     1      41.079  19.746  20.196  1.00  0.00     0.046 C 
HETATM    7  C4  UNL     1      44.086  18.347  18.444  1.00  0.00    -0.076 C 
HETATM    8  C3  UNL     1      44.758  17.334  17.936  1.00  0.00    -0.019 C 
HETATM    9  C19 UNL     1      44.784  19.644  18.187  1.00  0.00     0.021 C 
HETATM   10  C2  UNL     1      46.011  17.797  17.263  1.00  0.00     0.005 C 
HETATM   11  C1  UNL     1      45.727  17.955  15.799  1.00  0.00     0.014 C 
HETATM   12  C20 UNL     1      46.182  19.144  17.968  1.00  0.00     0.017 C 
BRANCH   4  13
HETATM   13  N1  UNL     1      41.432  19.902  17.854  1.00  0.00    -0.070 N 
ATOM     14  H13 UNL     1      40.910  19.059  17.614  1.00  0.00     0.275 HD
ATOM     15  H12 UNL     1      40.648  20.546  17.958  1.00  0.00     0.275 HD
ATOM     16  H11 UNL     1      42.055  20.186  17.098  1.00  0.00     0.275 HD
ENDBRANCH   4  13
ENDBRANCH   1   2
BRANCH   1  17
HETATM   17  O1  UNL     1      44.499  23.015  19.433  1.00  0.00    -0.348 OA
BRANCH  17  18
HETATM   18  C11 UNL     1      44.354  23.880  20.458  1.00  0.00     0.105 A 
HETATM   19  C12 UNL     1      43.813  23.469  21.652  1.00  0.00     0.075 A 
HETATM   20  C13 UNL     1      43.664  24.367  22.721  1.00  0.00     0.107 A 
HETATM   21  C14 UNL     1      44.080  25.664  22.519  1.00  0.00     0.058 A 
HETATM   22  C15 UNL     1      44.622  26.072  21.319  1.00  0.00     0.049 A 
HETATM   23 BR1  UNL     1      45.193  27.892  21.070  1.00  0.00    -0.048 Br
HETATM   24  C16 UNL     1      44.771  25.218  20.281  1.00  0.00     0.119 A 
BRANCH  20  25
HETATM   25  N2  UNL     1      43.103  23.916  23.941  1.00  0.00    -0.116 N 
HETATM   26  O2  UNL     1      42.094  23.210  23.927  1.00  0.00    -0.532 OA
HETATM   27  O3  UNL     1      43.683  24.262  25.131  1.00  0.00    -0.532 OA
ENDBRANCH  20  25
BRANCH  24  28
HETATM   28  O4  UNL     1      45.298  25.534  19.057  1.00  0.00    -0.345 OA
BRANCH  28  29
HETATM   29  C17 UNL     1      46.635  25.717  18.742  1.00  0.00     0.201 C 
BRANCH  29  30
HETATM   30  C18 UNL     1      46.705  26.529  17.443  1.00  0.00     0.190 C 
BRANCH  30  31
HETATM   31  O5  UNL     1      46.265  27.832  17.729  1.00  0.00    -0.399 OA
ATOM     32  H5  UNL     1      45.466  27.983  17.237  1.00  0.00     0.209 HD
ENDBRANCH  30  31
ENDBRANCH  29  30
ENDBRANCH  28  29
ENDBRANCH  24  28
ENDBRANCH  17  18
ENDBRANCH   1  17
TORSDOF 9
ENDMDL
