MODEL 1
REMARK VINA RESULT: -8.262976699      0.000      0.000
REMARK  9 active torsions:
REMARK  status: ('A' for Active; 'I' for Inactive)
REMARK    1  A    between atoms: C2_2  and  C3_3 
REMARK    2  A    between atoms: C3_3  and  C4_4 
REMARK    3  A    between atoms: C10_11  and  C11_12 
REMARK    4  A    between atoms: C11_12  and  C12_13 
REMARK    5  A    between atoms: C12_13  and  C13_14 
REMARK    6  A    between atoms: C13_14  and  O1_15 
REMARK    7  A    between atoms: C13_14  and  C14_17 
REMARK    8  A    between atoms: C15_19  and  C16_20 
REMARK    9  A    between atoms: C16_20  and  O2_21 
ROOT
HETATM    1  C13 UNL     1      46.860  18.610  16.457  1.00  0.00     0.067 C 
ENDROOT
BRANCH   1   2
HETATM    2  C12 UNL     1      45.864  19.642  16.903  1.00  0.00     0.071 C 
BRANCH   2   3
HETATM    3  C11 UNL     1      45.677  19.733  18.396  1.00  0.00     0.048 C 
BRANCH   3   4
HETATM    4  C10 UNL     1      44.300  20.158  18.749  1.00  0.00    -0.024 A 
HETATM    5  C9  UNL     1      43.277  19.250  18.742  1.00  0.00     0.012 A 
HETATM    6  C8  UNL     1      41.972  19.626  19.071  1.00  0.00     0.025 A 
HETATM    7  C7  UNL     1      41.795  20.950  19.396  1.00  0.00     0.043 A 
HETATM    8  C6  UNL     1      42.809  21.888  19.412  1.00  0.00    -0.000 A 
HETATM    9 CL1  UNL     1      40.182  21.486  19.818  1.00  0.00    -0.084 Cl
HETATM   10  C5  UNL     1      42.878  23.329  19.716  1.00  0.00     0.075 C 
HETATM   11  C22 UNL     1      44.080  21.474  19.080  1.00  0.00     0.083 A 
HETATM   12  C4  UNL     1      44.188  23.761  19.156  1.00  0.00     0.133 C 
HETATM   13  O5  UNL     1      44.963  22.575  19.157  1.00  0.00    -0.344 OA
BRANCH  12  14
HETATM   14  C3  UNL     1      44.857  24.865  19.888  1.00  0.00     0.032 C 
BRANCH  14  15
HETATM   15  C2  UNL     1      45.379  25.970  19.022  1.00  0.00    -0.002 C 
HETATM   16  C1  UNL     1      46.887  25.733  18.872  1.00  0.00     0.005 C 
ENDBRANCH  14  15
ENDBRANCH  12  14
ENDBRANCH   3   4
ENDBRANCH   2   3
ENDBRANCH   1   2
BRANCH   1  17
HETATM   17  O1  UNL     1      47.921  19.251  15.876  1.00  0.00    -0.363 OA
ATOM     18  H1  UNL     1      48.105  18.834  15.043  1.00  0.00     0.217 HD
ENDBRANCH   1  17
BRANCH   1  19
HETATM   19  C14 UNL     1      46.344  17.387  15.834  1.00  0.00     0.058 C 
HETATM   20  N1  UNL     1      46.717  16.942  14.609  1.00  0.00    -0.329 N 
HETATM   21  C15 UNL     1      47.822  16.893  13.862  1.00  0.00     0.258 C 
HETATM   22  C18 UNL     1      45.766  15.926  14.176  1.00  0.00     0.250 C 
HETATM   23  O3  UNL     1      47.269  16.439  12.585  1.00  0.00    -0.291 OA
HETATM   24  C17 UNL     1      46.419  15.411  12.982  1.00  0.00     0.294 C 
HETATM   25  O4  UNL     1      46.282  14.302  12.407  1.00  0.00    -0.262 OA
HETATM   26  S1  UNL     1      45.949  14.841  15.653  1.00  0.00    -0.118 SA
HETATM   27  C19 UNL     1      46.116  16.246  16.831  1.00  0.00     0.048 C 
HETATM   28  C20 UNL     1      47.118  16.069  17.870  1.00  0.00     0.033 C 
HETATM   29  C21 UNL     1      44.743  16.343  17.502  1.00  0.00     0.033 C 
BRANCH  21  30
HETATM   30  C16 UNL     1      48.931  15.914  14.056  1.00  0.00     0.218 C 
BRANCH  30  31
HETATM   31  O2  UNL     1      49.625  16.009  15.250  1.00  0.00    -0.397 OA
ATOM     32  H2  UNL     1      49.115  16.265  16.010  1.00  0.00     0.209 HD
ENDBRANCH  30  31
ENDBRANCH  21  30
ENDBRANCH   1  19
TORSDOF 9
ENDMDL
MODEL 2
REMARK VINA RESULT: -8.011526018      1.854      2.718
REMARK  9 active torsions:
REMARK  status: ('A' for Active; 'I' for Inactive)
REMARK    1  A    between atoms: C2_2  and  C3_3 
REMARK    2  A    between atoms: C3_3  and  C4_4 
REMARK    3  A    between atoms: C10_11  and  C11_12 
REMARK    4  A    between atoms: C11_12  and  C12_13 
REMARK    5  A    between atoms: C12_13  and  C13_14 
REMARK    6  A    between atoms: C13_14  and  O1_15 
REMARK    7  A    between atoms: C13_14  and  C14_17 
REMARK    8  A    between atoms: C15_19  and  C16_20 
REMARK    9  A    between atoms: C16_20  and  O2_21 
ROOT
HETATM    1  C13 UNL     1      46.031  16.464  17.274  1.00  0.00     0.067 C 
ENDROOT
BRANCH   1   2
HETATM    2  C12 UNL     1      46.300  17.247  18.529  1.00  0.00     0.071 C 
BRANCH   2   3
HETATM    3  C11 UNL     1      46.063  18.731  18.408  1.00  0.00     0.048 C 
BRANCH   3   4
HETATM    4  C10 UNL     1      44.671  19.093  18.770  1.00  0.00    -0.024 A 
HETATM    5  C9  UNL     1      43.689  18.140  18.768  1.00  0.00     0.012 A 
HETATM    6  C8  UNL     1      42.371  18.456  19.105  1.00  0.00     0.025 A 
HETATM    7  C7  UNL     1      42.137  19.771  19.431  1.00  0.00     0.043 A 
HETATM    8  C6  UNL     1      43.108  20.754  19.441  1.00  0.00    -0.000 A 
HETATM    9 CL1  UNL     1      40.504  20.234  19.862  1.00  0.00    -0.084 Cl
HETATM   10  C5  UNL     1      43.113  22.196  19.745  1.00  0.00     0.075 C 
HETATM   11  C22 UNL     1      44.394  20.398  19.102  1.00  0.00     0.083 A 
HETATM   12  C4  UNL     1      44.399  22.687  19.177  1.00  0.00     0.133 C 
HETATM   13  O5  UNL     1      45.227  21.537  19.174  1.00  0.00    -0.344 OA
BRANCH  12  14
HETATM   14  C3  UNL     1      45.022  23.820  19.906  1.00  0.00     0.032 C 
BRANCH  14  15
HETATM   15  C2  UNL     1      45.225  25.059  19.088  1.00  0.00    -0.002 C 
HETATM   16  C1  UNL     1      46.718  25.404  19.181  1.00  0.00     0.005 C 
ENDBRANCH  14  15
ENDBRANCH  12  14
ENDBRANCH   3   4
ENDBRANCH   2   3
ENDBRANCH   1   2
BRANCH   1  17
HETATM   17  O1  UNL     1      45.324  15.341  17.606  1.00  0.00    -0.363 OA
ATOM     18  H1  UNL     1      45.923  14.709  17.986  1.00  0.00     0.217 HD
ENDBRANCH   1  17
BRANCH   1  19
HETATM   19  C14 UNL     1      47.114  16.356  16.292  1.00  0.00     0.058 C 
HETATM   20  N1  UNL     1      47.684  15.185  15.914  1.00  0.00    -0.329 N 
HETATM   21  C15 UNL     1      47.310  13.924  15.689  1.00  0.00     0.258 C 
HETATM   22  C18 UNL     1      48.927  15.479  15.214  1.00  0.00     0.250 C 
HETATM   23  O3  UNL     1      48.613  13.276  15.532  1.00  0.00    -0.291 OA
HETATM   24  C17 UNL     1      49.284  14.166  14.698  1.00  0.00     0.294 C 
HETATM   25  O4  UNL     1      50.022  13.858  13.728  1.00  0.00    -0.262 OA
HETATM   26  S1  UNL     1      48.183  16.597  13.952  1.00  0.00    -0.118 SA
HETATM   27  C19 UNL     1      46.983  17.348  15.131  1.00  0.00     0.048 C 
HETATM   28  C20 UNL     1      45.648  17.569  14.601  1.00  0.00     0.033 C 
HETATM   29  C21 UNL     1      47.592  18.709  15.476  1.00  0.00     0.033 C 
BRANCH  21  30
HETATM   30  C16 UNL     1      46.609  13.456  14.458  1.00  0.00     0.218 C 
BRANCH  30  31
HETATM   31  O2  UNL     1      45.289  13.850  14.322  1.00  0.00    -0.397 OA
ATOM     32  H2  UNL     1      44.773  13.368  13.687  1.00  0.00     0.209 HD
ENDBRANCH  30  31
ENDBRANCH  21  30
ENDBRANCH   1  19
TORSDOF 9
ENDMDL
MODEL 3
REMARK VINA RESULT: -7.883599903      3.523      5.711
REMARK  9 active torsions:
REMARK  status: ('A' for Active; 'I' for Inactive)
REMARK    1  A    between atoms: C2_2  and  C3_3 
REMARK    2  A    between atoms: C3_3  and  C4_4 
REMARK    3  A    between atoms: C10_11  and  C11_12 
REMARK    4  A    between atoms: C11_12  and  C12_13 
REMARK    5  A    between atoms: C12_13  and  C13_14 
REMARK    6  A    between atoms: C13_14  and  O1_15 
REMARK    7  A    between atoms: C13_14  and  C14_17 
REMARK    8  A    between atoms: C15_19  and  C16_20 
REMARK    9  A    between atoms: C16_20  and  O2_21 
ROOT
HETATM    1  C13 UNL     1      42.303  21.486  18.319  1.00  0.00     0.067 C 
ENDROOT
BRANCH   1   2
HETATM    2  C12 UNL     1      42.828  22.459  19.336  1.00  0.00     0.071 C 
BRANCH   2   3
HETATM    3  C11 UNL     1      43.829  23.451  18.800  1.00  0.00     0.048 C 
BRANCH   3   4
HETATM    4  C10 UNL     1      44.159  24.491  19.805  1.00  0.00    -0.024 A 
HETATM    5  C9  UNL     1      43.609  24.438  21.057  1.00  0.00     0.012 A 
HETATM    6  C8  UNL     1      43.905  25.406  22.021  1.00  0.00     0.025 A 
HETATM    7  C7  UNL     1      44.772  26.396  21.626  1.00  0.00     0.043 A 
HETATM    8  C6  UNL     1      45.342  26.476  20.369  1.00  0.00    -0.000 A 
HETATM    9 CL1  UNL     1      45.184  27.642  22.787  1.00  0.00    -0.084 Cl
HETATM   10  C5  UNL     1      46.275  27.411  19.716  1.00  0.00     0.075 C 
HETATM   11  C22 UNL     1      45.022  25.501  19.451  1.00  0.00     0.083 A 
HETATM   12  C4  UNL     1      46.143  27.108  18.264  1.00  0.00     0.133 C 
HETATM   13  O5  UNL     1      45.702  25.761  18.240  1.00  0.00    -0.344 OA
BRANCH  12  14
HETATM   14  C3  UNL     1      47.376  27.305  17.462  1.00  0.00     0.032 C 
BRANCH  14  15
HETATM   15  C2  UNL     1      48.113  28.579  17.743  1.00  0.00    -0.002 C 
HETATM   16  C1  UNL     1      49.382  28.550  16.881  1.00  0.00     0.005 C 
ENDBRANCH  14  15
ENDBRANCH  12  14
ENDBRANCH   3   4
ENDBRANCH   2   3
ENDBRANCH   1   2
BRANCH   1  17
HETATM   17  O1  UNL     1      40.955  21.680  18.186  1.00  0.00    -0.363 OA
ATOM     18  H1  UNL     1      40.813  22.411  17.596  1.00  0.00     0.217 HD
ENDBRANCH   1  17
BRANCH   1  19
HETATM   19  C14 UNL     1      42.821  20.114  18.357  1.00  0.00     0.058 C 
HETATM   20  N1  UNL     1      44.107  19.779  18.091  1.00  0.00    -0.329 N 
HETATM   21  C15 UNL     1      45.327  20.279  18.293  1.00  0.00     0.258 C 
HETATM   22  C18 UNL     1      44.176  18.339  17.880  1.00  0.00     0.250 C 
HETATM   23  O3  UNL     1      46.134  19.368  17.481  1.00  0.00    -0.291 OA
HETATM   24  C17 UNL     1      45.615  18.124  17.830  1.00  0.00     0.294 C 
HETATM   25  O4  UNL     1      46.279  17.079  18.045  1.00  0.00    -0.262 OA
HETATM   26  S1  UNL     1      43.409  17.867  19.487  1.00  0.00    -0.118 SA
HETATM   27  C19 UNL     1      42.211  19.266  19.480  1.00  0.00     0.048 C 
HETATM   28  C20 UNL     1      42.010  19.918  20.763  1.00  0.00     0.033 C 
HETATM   29  C21 UNL     1      40.886  18.628  19.053  1.00  0.00     0.033 C 
BRANCH  21  30
HETATM   30  C16 UNL     1      46.059  20.225  19.592  1.00  0.00     0.218 C 
BRANCH  30  31
HETATM   31  O2  UNL     1      45.534  20.993  20.619  1.00  0.00    -0.397 OA
ATOM     32  H2  UNL     1      45.420  21.917  20.432  1.00  0.00     0.209 HD
ENDBRANCH  30  31
ENDBRANCH  21  30
ENDBRANCH   1  19
TORSDOF 9
ENDMDL
MODEL 4
REMARK VINA RESULT: -7.598089398      5.787     10.037
REMARK  9 active torsions:
REMARK  status: ('A' for Active; 'I' for Inactive)
REMARK    1  A    between atoms: C2_2  and  C3_3 
REMARK    2  A    between atoms: C3_3  and  C4_4 
REMARK    3  A    between atoms: C10_11  and  C11_12 
REMARK    4  A    between atoms: C11_12  and  C12_13 
REMARK    5  A    between atoms: C12_13  and  C13_14 
REMARK    6  A    between atoms: C13_14  and  O1_15 
REMARK    7  A    between atoms: C13_14  and  C14_17 
REMARK    8  A    between atoms: C15_19  and  C16_20 
REMARK    9  A    between atoms: C16_20  and  O2_21 
ROOT
HETATM    1  C13 UNL     1      39.602  20.217  20.987  1.00  0.00     0.067 C 
ENDROOT
BRANCH   1   2
HETATM    2  C12 UNL     1      41.047  20.379  20.608  1.00  0.00     0.071 C 
BRANCH   2   3
HETATM    3  C11 UNL     1      41.282  21.176  19.350  1.00  0.00     0.048 C 
BRANCH   3   4
HETATM    4  C10 UNL     1      42.472  22.053  19.474  1.00  0.00    -0.024 A 
HETATM    5  C9  UNL     1      42.320  23.411  19.551  1.00  0.00     0.012 A 
HETATM    6  C8  UNL     1      43.426  24.258  19.668  1.00  0.00     0.025 A 
HETATM    7  C7  UNL     1      44.652  23.638  19.699  1.00  0.00     0.043 A 
HETATM    8  C6  UNL     1      44.835  22.271  19.623  1.00  0.00    -0.000 A 
HETATM    9 CL1  UNL     1      46.079  24.644  19.844  1.00  0.00    -0.084 Cl
HETATM   10  C5  UNL     1      46.013  21.385  19.634  1.00  0.00     0.075 C 
HETATM   11  C22 UNL     1      43.718  21.474  19.508  1.00  0.00     0.083 A 
HETATM   12  C4  UNL     1      45.497  20.083  19.128  1.00  0.00     0.133 C 
HETATM   13  O5  UNL     1      44.116  20.120  19.445  1.00  0.00    -0.344 OA
BRANCH  12  14
HETATM   14  C3  UNL     1      46.165  18.879  19.682  1.00  0.00     0.032 C 
BRANCH  14  15
HETATM   15  C2  UNL     1      46.224  17.706  18.752  1.00  0.00    -0.002 C 
HETATM   16  C1  UNL     1      46.605  18.261  17.372  1.00  0.00     0.005 C 
ENDBRANCH  14  15
ENDBRANCH  12  14
ENDBRANCH   3   4
ENDBRANCH   2   3
ENDBRANCH   1   2
BRANCH   1  17
HETATM   17  O1  UNL     1      38.908  19.792  19.887  1.00  0.00    -0.363 OA
ATOM     18  H1  UNL     1      38.508  18.955  20.087  1.00  0.00     0.217 HD
ENDBRANCH   1  17
BRANCH   1  19
HETATM   19  C14 UNL     1      39.004  21.241  21.850  1.00  0.00     0.058 C 
HETATM   20  N1  UNL     1      37.697  21.598  21.813  1.00  0.00    -0.329 N 
HETATM   21  C15 UNL     1      36.511  21.014  21.630  1.00  0.00     0.258 C 
HETATM   22  C18 UNL     1      37.539  22.854  22.535  1.00  0.00     0.250 C 
HETATM   23  O3  UNL     1      35.641  22.187  21.532  1.00  0.00    -0.291 OA
HETATM   24  C17 UNL     1      36.090  22.975  22.589  1.00  0.00     0.294 C 
HETATM   25  O4  UNL     1      35.367  23.626  23.385  1.00  0.00    -0.262 OA
HETATM   26  S1  UNL     1      38.297  22.273  24.110  1.00  0.00    -0.118 SA
HETATM   27  C19 UNL     1      39.575  21.246  23.273  1.00  0.00     0.048 C 
HETATM   28  C20 UNL     1      39.831  19.952  23.884  1.00  0.00     0.033 C 
HETATM   29  C21 UNL     1      40.855  22.081  23.367  1.00  0.00     0.033 C 
BRANCH  21  30
HETATM   30  C16 UNL     1      35.793  20.214  22.665  1.00  0.00     0.218 C 
BRANCH  30  31
HETATM   31  O2  UNL     1      36.378  19.008  23.015  1.00  0.00    -0.397 OA
ATOM     32  H2  UNL     1      37.255  18.858  22.684  1.00  0.00     0.209 HD
ENDBRANCH  30  31
ENDBRANCH  21  30
ENDBRANCH   1  19
TORSDOF 9
ENDMDL
MODEL 5
REMARK VINA RESULT: -7.596305838      1.706      2.385
REMARK  9 active torsions:
REMARK  status: ('A' for Active; 'I' for Inactive)
REMARK    1  A    between atoms: C2_2  and  C3_3 
REMARK    2  A    between atoms: C3_3  and  C4_4 
REMARK    3  A    between atoms: C10_11  and  C11_12 
REMARK    4  A    between atoms: C11_12  and  C12_13 
REMARK    5  A    between atoms: C12_13  and  C13_14 
REMARK    6  A    between atoms: C13_14  and  O1_15 
REMARK    7  A    between atoms: C13_14  and  C14_17 
REMARK    8  A    between atoms: C15_19  and  C16_20 
REMARK    9  A    between atoms: C16_20  and  O2_21 
ROOT
HETATM    1  C13 UNL     1      46.455  16.935  15.982  1.00  0.00     0.067 C 
ENDROOT
BRANCH   1   2
HETATM    2  C12 UNL     1      46.084  18.388  16.078  1.00  0.00     0.071 C 
BRANCH   2   3
HETATM    3  C11 UNL     1      46.217  18.984  17.456  1.00  0.00     0.048 C 
BRANCH   3   4
HETATM    4  C10 UNL     1      44.893  19.199  18.089  1.00  0.00    -0.024 A 
HETATM    5  C9  UNL     1      43.970  18.189  18.115  1.00  0.00     0.012 A 
HETATM    6  C8  UNL     1      42.717  18.367  18.706  1.00  0.00     0.025 A 
HETATM    7  C7  UNL     1      42.483  19.609  19.248  1.00  0.00     0.043 A 
HETATM    8  C6  UNL     1      43.395  20.646  19.236  1.00  0.00    -0.000 A 
HETATM    9 CL1  UNL     1      40.929  19.898  20.003  1.00  0.00    -0.084 Cl
HETATM   10  C5  UNL     1      43.387  22.033  19.736  1.00  0.00     0.075 C 
HETATM   11  C22 UNL     1      44.618  20.426  18.643  1.00  0.00     0.083 A 
HETATM   12  C4  UNL     1      44.532  22.681  19.038  1.00  0.00     0.133 C 
HETATM   13  O5  UNL     1      45.399  21.601  18.736  1.00  0.00    -0.344 OA
BRANCH  12  14
HETATM   14  C3  UNL     1      45.219  23.749  19.806  1.00  0.00     0.032 C 
BRANCH  14  15
HETATM   15  C2  UNL     1      45.275  25.081  19.122  1.00  0.00    -0.002 C 
HETATM   16  C1  UNL     1      46.748  25.511  19.120  1.00  0.00     0.005 C 
ENDBRANCH  14  15
ENDBRANCH  12  14
ENDBRANCH   3   4
ENDBRANCH   2   3
ENDBRANCH   1   2
BRANCH   1  17
HETATM   17  O1  UNL     1      47.075  16.568  17.146  1.00  0.00    -0.363 OA
ATOM     18  H1  UNL     1      47.608  17.295  17.445  1.00  0.00     0.217 HD
ENDBRANCH   1  17
BRANCH   1  19
HETATM   19  C14 UNL     1      46.996  16.452  14.708  1.00  0.00     0.058 C 
HETATM   20  N1  UNL     1      48.291  16.102  14.515  1.00  0.00    -0.329 N 
HETATM   21  C15 UNL     1      49.272  15.504  15.195  1.00  0.00     0.258 C 
HETATM   22  C18 UNL     1      48.539  16.013  13.082  1.00  0.00     0.250 C 
HETATM   23  O3  UNL     1      50.407  15.741  14.302  1.00  0.00    -0.291 OA
HETATM   24  C17 UNL     1      49.871  15.429  13.055  1.00  0.00     0.294 C 
HETATM   25  O4  UNL     1      50.447  14.782  12.144  1.00  0.00    -0.262 OA
HETATM   26  S1  UNL     1      47.190  14.810  12.723  1.00  0.00    -0.118 SA
HETATM   27  C19 UNL     1      46.022  15.552  13.938  1.00  0.00     0.048 C 
HETATM   28  C20 UNL     1      45.249  14.600  14.717  1.00  0.00     0.033 C 
HETATM   29  C21 UNL     1      45.052  16.370  13.081  1.00  0.00     0.033 C 
BRANCH  21  30
HETATM   30  C16 UNL     1      49.379  14.031  15.406  1.00  0.00     0.218 C 
BRANCH  30  31
HETATM   31  O2  UNL     1      48.326  13.434  16.079  1.00  0.00    -0.397 OA
ATOM     32  H2  UNL     1      48.518  13.111  16.950  1.00  0.00     0.209 HD
ENDBRANCH  30  31
ENDBRANCH  21  30
ENDBRANCH   1  19
TORSDOF 9
ENDMDL
