MODEL 1
REMARK VINA RESULT: -6.503631477      0.000      0.000
REMARK  2 active torsions:
REMARK  status: ('A' for Active; 'I' for Inactive)
REMARK    1  A    between atoms: C6_7  and  N2_8 
REMARK    2  A    between atoms: C7_9  and  N3_10 
ROOT
HETATM    1  C1  UNL     1      -1.365   0.960  -8.945  1.00  0.00     0.311 C 
HETATM    2  N1  UNL     1      -0.278   0.066  -8.664  1.00  0.00     0.102 N 
HETATM    3  C2  UNL     1       0.854   0.714  -8.126  1.00  0.00     0.155 C 
HETATM    4  C3  UNL     1       0.934   2.162  -8.643  1.00  0.00     0.049 C 
HETATM    5  C4  UNL     1       2.185   0.138  -8.470  1.00  0.00     0.049 C 
HETATM    6  C5  UNL     1       0.652   0.875  -6.615  1.00  0.00     0.067 C 
HETATM    7  C6  UNL     1       0.600  -0.516  -6.042  1.00  0.00     0.115 C 
HETATM    8  C9  UNL     1      -0.611  -1.209  -6.560  1.00  0.00     0.067 C 
HETATM    9  C10 UNL     1      -0.751  -1.119  -8.060  1.00  0.00     0.155 C 
HETATM   10  C11 UNL     1      -2.250  -1.245  -8.327  1.00  0.00     0.049 C 
HETATM   11  C12 UNL     1      -0.202  -2.390  -8.732  1.00  0.00     0.049 C 
ENDROOT
BRANCH   7  12
HETATM   12  N2  UNL     1       0.722  -0.607  -4.627  1.00  0.00    -0.150 N 
HETATM   13  C7  UNL     1       1.549  -1.311  -3.843  1.00  0.00     0.695 A 
HETATM   14  N4  UNL     1       1.297  -1.081  -2.523  1.00  0.00    -0.130 N 
HETATM   15  N5  UNL     1       0.303  -0.224  -2.485  1.00  0.00    -0.261 N 
ATOM     16  H4  UNL     1       1.783  -1.491  -1.726  1.00  0.00     0.205 HD
HETATM   17  C8  UNL     1      -0.053   0.071  -3.722  1.00  0.00     0.208 A 
ATOM     18  H5  UNL     1      -0.125   0.152  -1.638  1.00  0.00     0.190 HD
HETATM   19  S1  UNL     1      -1.253   1.101  -4.186  1.00  0.00    -0.038 SA
BRANCH  13  20
HETATM   20  N3  UNL     1       2.471  -2.107  -4.197  1.00  0.00    -0.233 N 
ATOM     21  H32 UNL     1       2.573  -2.384  -5.173  1.00  0.00     0.174 HD
ATOM     22  H31 UNL     1       3.180  -2.547  -3.611  1.00  0.00     0.174 HD
ENDBRANCH  13  20
ENDBRANCH   7  12
TORSDOF 2
ENDMDL
MODEL 2
REMARK VINA RESULT: -6.497190846      1.634      3.451
REMARK  2 active torsions:
REMARK  status: ('A' for Active; 'I' for Inactive)
REMARK    1  A    between atoms: C6_7  and  N2_8 
REMARK    2  A    between atoms: C7_9  and  N3_10 
ROOT
HETATM    1  C1  UNL     1       1.387  -0.915  -8.961  1.00  0.00     0.311 C 
HETATM    2  N1  UNL     1       0.288  -0.036  -8.677  1.00  0.00     0.102 N 
HETATM    3  C2  UNL     1      -0.835  -0.702  -8.142  1.00  0.00     0.155 C 
HETATM    4  C3  UNL     1      -0.897  -2.148  -8.666  1.00  0.00     0.049 C 
HETATM    5  C4  UNL     1      -2.174  -0.142  -8.483  1.00  0.00     0.049 C 
HETATM    6  C5  UNL     1      -0.631  -0.869  -6.631  1.00  0.00     0.067 C 
HETATM    7  C6  UNL     1      -0.597   0.520  -6.051  1.00  0.00     0.115 C 
HETATM    8  C9  UNL     1       0.605   1.231  -6.565  1.00  0.00     0.067 C 
HETATM    9  C10 UNL     1       0.746   1.151  -8.066  1.00  0.00     0.155 C 
HETATM   10  C11 UNL     1       2.244   1.298  -8.332  1.00  0.00     0.049 C 
HETATM   11  C12 UNL     1       0.181   2.418  -8.731  1.00  0.00     0.049 C 
ENDROOT
BRANCH   7  12
HETATM   12  N2  UNL     1      -0.720   0.602  -4.636  1.00  0.00    -0.150 N 
HETATM   13  C7  UNL     1      -1.549   1.300  -3.848  1.00  0.00     0.695 A 
HETATM   14  N4  UNL     1      -1.297   1.062  -2.529  1.00  0.00    -0.130 N 
HETATM   15  N5  UNL     1      -0.302   0.207  -2.496  1.00  0.00    -0.261 N 
ATOM     16  H4  UNL     1      -1.784   1.466  -1.730  1.00  0.00     0.205 HD
HETATM   17  C8  UNL     1       0.055  -0.080  -3.734  1.00  0.00     0.208 A 
ATOM     18  H5  UNL     1       0.126  -0.174  -1.651  1.00  0.00     0.190 HD
HETATM   19  S1  UNL     1       1.257  -1.106  -4.204  1.00  0.00    -0.038 SA
BRANCH  13  20
HETATM   20  N3  UNL     1      -2.471   2.096  -4.198  1.00  0.00    -0.233 N 
ATOM     21  H32 UNL     1      -3.336   1.743  -4.609  1.00  0.00     0.174 HD
ATOM     22  H31 UNL     1      -2.483   3.114  -4.127  1.00  0.00     0.174 HD
ENDBRANCH  13  20
ENDBRANCH   7  12
TORSDOF 2
ENDMDL
MODEL 3
REMARK VINA RESULT: -6.453110987      1.324      1.855
REMARK  2 active torsions:
REMARK  status: ('A' for Active; 'I' for Inactive)
REMARK    1  A    between atoms: C6_7  and  N2_8 
REMARK    2  A    between atoms: C7_9  and  N3_10 
ROOT
HETATM    1  C1  UNL     1      -1.365   0.715  -9.179  1.00  0.00     0.311 C 
HETATM    2  N1  UNL     1      -0.256  -0.076  -8.726  1.00  0.00     0.102 N 
HETATM    3  C2  UNL     1       0.779   0.690  -8.149  1.00  0.00     0.155 C 
HETATM    4  C3  UNL     1       0.819   2.093  -8.781  1.00  0.00     0.049 C 
HETATM    5  C4  UNL     1       2.169   0.182  -8.323  1.00  0.00     0.049 C 
HETATM    6  C5  UNL     1       0.427   0.960  -6.681  1.00  0.00     0.067 C 
HETATM    7  C6  UNL     1       0.406  -0.381  -5.996  1.00  0.00     0.115 C 
HETATM    8  C9  UNL     1      -0.706  -1.195  -6.556  1.00  0.00     0.067 C 
HETATM    9  C10 UNL     1      -0.710  -1.238  -8.065  1.00  0.00     0.155 C 
HETATM   10  C11 UNL     1      -2.168  -1.487  -8.451  1.00  0.00     0.049 C 
HETATM   11  C12 UNL     1      -0.024  -2.517  -8.572  1.00  0.00     0.049 C 
ENDROOT
BRANCH   7  12
HETATM   12  N2  UNL     1       0.400  -0.346  -4.573  1.00  0.00    -0.150 N 
HETATM   13  C7  UNL     1      -0.393   0.285  -3.697  1.00  0.00     0.695 A 
HETATM   14  N4  UNL     1      -0.019   0.023  -2.412  1.00  0.00    -0.130 N 
HETATM   15  N5  UNL     1       1.017  -0.780  -2.490  1.00  0.00    -0.261 N 
ATOM     16  H4  UNL     1      -0.456   0.378  -1.562  1.00  0.00     0.205 HD
HETATM   17  C8  UNL     1       1.281  -1.012  -3.762  1.00  0.00     0.208 A 
ATOM     18  H5  UNL     1       1.533  -1.162  -1.697  1.00  0.00     0.190 HD
HETATM   19  S1  UNL     1       2.488  -1.960  -4.364  1.00  0.00    -0.038 SA
BRANCH  13  20
HETATM   20  N3  UNL     1      -1.380   1.042  -3.942  1.00  0.00    -0.233 N 
ATOM     21  H32 UNL     1      -1.937   0.915  -4.787  1.00  0.00     0.174 HD
ATOM     22  H31 UNL     1      -1.730   1.819  -3.382  1.00  0.00     0.174 HD
ENDBRANCH  13  20
ENDBRANCH   7  12
TORSDOF 2
ENDMDL
MODEL 4
REMARK VINA RESULT: -6.442923397      1.082      2.856
REMARK  2 active torsions:
REMARK  status: ('A' for Active; 'I' for Inactive)
REMARK    1  A    between atoms: C6_7  and  N2_8 
REMARK    2  A    between atoms: C7_9  and  N3_10 
ROOT
HETATM    1  C1  UNL     1       1.237  -0.930  -9.077  1.00  0.00     0.311 C 
HETATM    2  N1  UNL     1       0.191  -0.046  -8.648  1.00  0.00     0.102 N 
HETATM    3  C2  UNL     1      -0.900  -0.717  -8.055  1.00  0.00     0.155 C 
HETATM    4  C3  UNL     1      -1.045  -2.128  -8.653  1.00  0.00     0.049 C 
HETATM    5  C4  UNL     1      -2.247  -0.109  -8.245  1.00  0.00     0.049 C 
HETATM    6  C5  UNL     1      -0.571  -0.977  -6.580  1.00  0.00     0.067 C 
HETATM    7  C6  UNL     1      -0.449   0.375  -5.928  1.00  0.00     0.115 C 
HETATM    8  C9  UNL     1       0.722   1.088  -6.504  1.00  0.00     0.067 C 
HETATM    9  C10 UNL     1       0.731   1.094  -8.013  1.00  0.00     0.155 C 
HETATM   10  C11 UNL     1       2.204   1.223  -8.401  1.00  0.00     0.049 C 
HETATM   11  C12 UNL     1       0.145   2.409  -8.553  1.00  0.00     0.049 C 
ENDROOT
BRANCH   7  12
HETATM   12  N2  UNL     1      -0.448   0.375  -4.504  1.00  0.00    -0.150 N 
HETATM   13  C7  UNL     1       0.326  -0.255  -3.610  1.00  0.00     0.695 A 
HETATM   14  N4  UNL     1      -0.044   0.048  -2.333  1.00  0.00    -0.130 N 
HETATM   15  N5  UNL     1      -1.058   0.875  -2.434  1.00  0.00    -0.261 N 
ATOM     16  H4  UNL     1       0.382  -0.298  -1.474  1.00  0.00     0.205 HD
HETATM   17  C8  UNL     1      -1.313   1.083  -3.713  1.00  0.00     0.208 A 
ATOM     18  H5  UNL     1      -1.566   1.289  -1.652  1.00  0.00     0.190 HD
HETATM   19  S1  UNL     1      -2.494   2.047  -4.341  1.00  0.00    -0.038 SA
BRANCH  13  20
HETATM   20  N3  UNL     1       1.294  -1.043  -3.834  1.00  0.00    -0.233 N 
ATOM     21  H32 UNL     1       1.746  -1.067  -4.749  1.00  0.00     0.174 HD
ATOM     22  H31 UNL     1       1.724  -1.708  -3.192  1.00  0.00     0.174 HD
ENDBRANCH  13  20
ENDBRANCH   7  12
TORSDOF 2
ENDMDL
MODEL 5
REMARK VINA RESULT: -6.082004386      0.688      2.518
REMARK  2 active torsions:
REMARK  status: ('A' for Active; 'I' for Inactive)
REMARK    1  A    between atoms: C6_7  and  N2_8 
REMARK    2  A    between atoms: C7_9  and  N3_10 
ROOT
HETATM    1  C1  UNL     1       1.311  -0.147  -9.491  1.00  0.00     0.311 C 
HETATM    2  N1  UNL     1       0.084  -0.108  -8.747  1.00  0.00     0.102 N 
HETATM    3  C2  UNL     1      -0.249  -1.344  -8.152  1.00  0.00     0.155 C 
HETATM    4  C3  UNL     1       0.305  -2.507  -8.996  1.00  0.00     0.049 C 
HETATM    5  C4  UNL     1      -1.700  -1.658  -8.022  1.00  0.00     0.049 C 
HETATM    6  C5  UNL     1       0.505  -1.465  -6.823  1.00  0.00     0.067 C 
HETATM    7  C6  UNL     1      -0.021  -0.368  -5.935  1.00  0.00     0.115 C 
HETATM    8  C9  UNL     1       0.355   0.949  -6.517  1.00  0.00     0.067 C 
HETATM    9  C10 UNL     1       0.004   1.074  -7.979  1.00  0.00     0.155 C 
HETATM   10  C11 UNL     1       0.995   2.094  -8.540  1.00  0.00     0.049 C 
HETATM   11  C12 UNL     1      -1.337   1.807  -8.154  1.00  0.00     0.049 C 
ENDROOT
BRANCH   7  12
HETATM   12  N2  UNL     1       0.315  -0.476  -4.556  1.00  0.00    -0.150 N 
HETATM   13  C7  UNL     1       1.314  -1.108  -3.925  1.00  0.00     0.695 A 
HETATM   14  N4  UNL     1       1.236  -0.933  -2.575  1.00  0.00    -0.130 N 
HETATM   15  N5  UNL     1       0.179  -0.185  -2.364  1.00  0.00    -0.261 N 
ATOM     16  H4  UNL     1       1.872  -1.309  -1.871  1.00  0.00     0.205 HD
HETATM   17  C8  UNL     1      -0.381   0.099  -3.526  1.00  0.00     0.208 A 
ATOM     18  H5  UNL     1      -0.155   0.127  -1.452  1.00  0.00     0.190 HD
HETATM   19  S1  UNL     1      -1.732   1.011  -3.775  1.00  0.00    -0.038 SA
BRANCH  13  20
HETATM   20  N3  UNL     1       2.247  -1.797  -4.436  1.00  0.00    -0.233 N 
ATOM     21  H32 UNL     1       3.110  -1.970  -3.920  1.00  0.00     0.174 HD
ATOM     22  H31 UNL     1       2.272  -2.238  -5.356  1.00  0.00     0.174 HD
ENDBRANCH  13  20
ENDBRANCH   7  12
TORSDOF 2
ENDMDL
