MODEL 1
REMARK VINA RESULT: -6.230025664      0.000      0.000
REMARK  3 active torsions:
REMARK  status: ('A' for Active; 'I' for Inactive)
REMARK    1  A    between atoms: C3_4  and  C4_5 
REMARK    2  A    between atoms: N1_10  and  O2_11 
REMARK    3  A    between atoms: C12_18  and  O3_19 
ROOT
HETATM    1  C1  UNL     1      -1.571  -0.800  -8.621  1.00  0.00     0.040 C 
HETATM    2  C2  UNL     1      -0.061  -0.881  -8.753  1.00  0.00     0.128 C 
HETATM    3  O1  UNL     1       0.532  -0.937  -7.525  1.00  0.00    -0.361 OA
HETATM    4  C3  UNL     1       0.094   0.059  -6.686  1.00  0.00     0.224 C 
HETATM    5  N2  UNL     1       0.261   1.388  -7.172  1.00  0.00    -0.370 N 
ATOM      6  H2  UNL     1       0.453   2.166  -6.540  1.00  0.00     0.158 HD
HETATM    7  C12 UNL     1       0.151   1.582  -8.574  1.00  0.00     0.221 C 
HETATM    8  C13 UNL     1       0.397   0.394  -9.429  1.00  0.00     0.059 C 
HETATM    9  C14 UNL     1      -0.401   0.549 -10.706  1.00  0.00     0.017 C 
ENDROOT
BRANCH   4  10
HETATM   10  C4  UNL     1       0.669  -0.026  -5.307  1.00  0.00     0.060 C 
HETATM   11  C5  UNL     1       1.214  -1.406  -4.999  1.00  0.00     0.038 C 
HETATM   12  C6  UNL     1       1.278  -1.313  -3.467  1.00  0.00     0.032 C 
HETATM   13  C7  UNL     1       2.545  -0.632  -3.023  1.00  0.00     0.034 C 
HETATM   14  C8  UNL     1       1.294  -2.736  -2.948  1.00  0.00     0.034 C 
HETATM   15  N1  UNL     1       0.095  -0.610  -3.149  1.00  0.00    -0.182 NA
HETATM   16  C9  UNL     1      -0.212   0.345  -4.194  1.00  0.00     0.040 C 
HETATM   17  C10 UNL     1      -1.684   0.278  -4.444  1.00  0.00     0.035 C 
HETATM   18  C11 UNL     1       0.091   1.745  -3.660  1.00  0.00     0.035 C 
BRANCH  15  19
HETATM   19  O2  UNL     1       0.008  -0.118  -1.921  1.00  0.00    -0.312 OA
ATOM     20  H2  UNL     1      -0.697   0.497  -1.759  1.00  0.00     0.237 HD
ENDBRANCH  15  19
ENDBRANCH   4  10
BRANCH   7  21
HETATM   21  O3  UNL     1       1.104   2.564  -8.938  1.00  0.00    -0.377 OA
ATOM     22  H3  UNL     1       0.859   3.369  -8.496  1.00  0.00     0.212 HD
ENDBRANCH   7  21
TORSDOF 3
ENDMDL
MODEL 2
REMARK VINA RESULT: -6.211052858      1.538      3.177
REMARK  3 active torsions:
REMARK  status: ('A' for Active; 'I' for Inactive)
REMARK    1  A    between atoms: C3_4  and  C4_5 
REMARK    2  A    between atoms: N1_10  and  O2_11 
REMARK    3  A    between atoms: C12_18  and  O3_19 
ROOT
HETATM    1  C1  UNL     1       1.295   1.035  -8.800  1.00  0.00     0.040 C 
HETATM    2  C2  UNL     1      -0.219   0.957  -8.882  1.00  0.00     0.128 C 
HETATM    3  O1  UNL     1      -0.775   0.975  -7.636  1.00  0.00    -0.361 OA
HETATM    4  C3  UNL     1      -0.209   0.045  -6.797  1.00  0.00     0.224 C 
HETATM    5  N2  UNL     1      -0.253  -1.303  -7.257  1.00  0.00    -0.370 N 
ATOM      6  H2  UNL     1      -0.342  -2.085  -6.607  1.00  0.00     0.158 HD
HETATM    7  C12 UNL     1      -0.168  -1.510  -8.659  1.00  0.00     0.221 C 
HETATM    8  C13 UNL     1      -0.563  -0.370  -9.523  1.00  0.00     0.059 C 
HETATM    9  C14 UNL     1       0.205  -0.465 -10.823  1.00  0.00     0.017 C 
ENDROOT
BRANCH   4  10
HETATM   10  C4  UNL     1      -0.745   0.095  -5.401  1.00  0.00     0.060 C 
HETATM   11  C5  UNL     1      -1.276   1.468  -5.041  1.00  0.00     0.038 C 
HETATM   12  C6  UNL     1      -1.298   1.335  -3.511  1.00  0.00     0.032 C 
HETATM   13  C7  UNL     1      -2.555   0.647  -3.050  1.00  0.00     0.034 C 
HETATM   14  C8  UNL     1      -1.293   2.744  -2.955  1.00  0.00     0.034 C 
HETATM   15  N1  UNL     1      -0.109   0.620  -3.245  1.00  0.00    -0.182 NA
HETATM   16  C9  UNL     1       0.165  -0.308  -4.323  1.00  0.00     0.040 C 
HETATM   17  C10 UNL     1       1.630  -0.240  -4.612  1.00  0.00     0.035 C 
HETATM   18  C11 UNL     1      -0.129  -1.720  -3.818  1.00  0.00     0.035 C 
BRANCH  15  19
HETATM   19  O2  UNL     1       0.010   0.096  -2.033  1.00  0.00    -0.312 OA
ATOM     20  H2  UNL     1       0.135   0.706  -1.317  1.00  0.00     0.237 HD
ENDBRANCH  15  19
ENDBRANCH   4  10
BRANCH   7  21
HETATM   21  O3  UNL     1      -1.025  -2.592  -8.976  1.00  0.00    -0.377 OA
ATOM     22  H3  UNL     1      -1.906  -2.242  -9.040  1.00  0.00     0.212 HD
ENDBRANCH   7  21
TORSDOF 3
ENDMDL
MODEL 3
REMARK VINA RESULT: -5.870105619      1.059      1.152
REMARK  3 active torsions:
REMARK  status: ('A' for Active; 'I' for Inactive)
REMARK    1  A    between atoms: C3_4  and  C4_5 
REMARK    2  A    between atoms: N1_10  and  O2_11 
REMARK    3  A    between atoms: C12_18  and  O3_19 
ROOT
HETATM    1  C1  UNL     1      -1.801   0.558  -8.525  1.00  0.00     0.040 C 
HETATM    2  C2  UNL     1      -1.180  -0.813  -8.330  1.00  0.00     0.128 C 
HETATM    3  O1  UNL     1      -0.692  -0.951  -7.063  1.00  0.00    -0.361 OA
HETATM    4  C3  UNL     1       0.126   0.093  -6.701  1.00  0.00     0.224 C 
HETATM    5  N2  UNL     1       1.241   0.323  -7.556  1.00  0.00    -0.370 N 
ATOM      6  H2  UNL     1       2.129   0.672  -7.193  1.00  0.00     0.158 HD
HETATM    7  C12 UNL     1       1.064   0.045  -8.938  1.00  0.00     0.221 C 
HETATM    8  C13 UNL     1      -0.012  -0.915  -9.287  1.00  0.00     0.059 C 
HETATM    9  C14 UNL     1      -0.522  -0.578 -10.672  1.00  0.00     0.017 C 
ENDROOT
BRANCH   4  10
HETATM   10  C4  UNL     1       0.612   0.008  -5.288  1.00  0.00     0.060 C 
HETATM   11  C5  UNL     1       1.103  -1.381  -4.935  1.00  0.00     0.038 C 
HETATM   12  C6  UNL     1       1.075  -1.275  -3.403  1.00  0.00     0.032 C 
HETATM   13  C7  UNL     1       2.328  -0.620  -2.886  1.00  0.00     0.034 C 
HETATM   14  C8  UNL     1       1.023  -2.693  -2.872  1.00  0.00     0.034 C 
HETATM   15  N1  UNL     1      -0.109  -0.542  -3.165  1.00  0.00    -0.182 NA
HETATM   16  C9  UNL     1      -0.328   0.410  -4.235  1.00  0.00     0.040 C 
HETATM   17  C10 UNL     1      -1.782   0.376  -4.576  1.00  0.00     0.035 C 
HETATM   18  C11 UNL     1      -0.024   1.807  -3.694  1.00  0.00     0.035 C 
BRANCH  15  19
HETATM   19  O2  UNL     1      -0.260  -0.036  -1.949  1.00  0.00    -0.312 OA
ATOM     20  H2  UNL     1      -0.867   0.689  -1.863  1.00  0.00     0.237 HD
ENDBRANCH  15  19
ENDBRANCH   4  10
BRANCH   7  21
HETATM   21  O3  UNL     1       2.282  -0.498  -9.415  1.00  0.00    -0.377 OA
ATOM     22  H3  UNL     1       2.223  -0.529 -10.363  1.00  0.00     0.212 HD
ENDBRANCH   7  21
TORSDOF 3
ENDMDL
MODEL 4
REMARK VINA RESULT: -5.870008372      1.567      2.912
REMARK  3 active torsions:
REMARK  status: ('A' for Active; 'I' for Inactive)
REMARK    1  A    between atoms: C3_4  and  C4_5 
REMARK    2  A    between atoms: N1_10  and  O2_11 
REMARK    3  A    between atoms: C12_18  and  O3_19 
ROOT
HETATM    1  C1  UNL     1       1.803  -0.499  -8.561  1.00  0.00     0.040 C 
HETATM    2  C2  UNL     1       1.164   0.863  -8.356  1.00  0.00     0.128 C 
HETATM    3  O1  UNL     1       0.680   0.987  -7.086  1.00  0.00    -0.361 OA
HETATM    4  C3  UNL     1      -0.122  -0.070  -6.727  1.00  0.00     0.224 C 
HETATM    5  N2  UNL     1      -1.238  -0.311  -7.579  1.00  0.00    -0.370 N 
ATOM      6  H2  UNL     1      -2.119  -0.674  -7.214  1.00  0.00     0.158 HD
HETATM    7  C12 UNL     1      -1.070  -0.023  -8.960  1.00  0.00     0.221 C 
HETATM    8  C13 UNL     1      -0.008   0.953  -9.308  1.00  0.00     0.059 C 
HETATM    9  C14 UNL     1       0.501   0.631 -10.697  1.00  0.00     0.017 C 
ENDROOT
BRANCH   4  10
HETATM   10  C4  UNL     1      -0.604   0.001  -5.312  1.00  0.00     0.060 C 
HETATM   11  C5  UNL     1      -1.095   1.386  -4.943  1.00  0.00     0.038 C 
HETATM   12  C6  UNL     1      -1.061   1.265  -3.412  1.00  0.00     0.032 C 
HETATM   13  C7  UNL     1      -2.312   0.604  -2.898  1.00  0.00     0.034 C 
HETATM   14  C8  UNL     1      -1.009   2.678  -2.868  1.00  0.00     0.034 C 
HETATM   15  N1  UNL     1       0.123   0.529  -3.186  1.00  0.00    -0.182 NA
HETATM   16  C9  UNL     1       0.339  -0.411  -4.265  1.00  0.00     0.040 C 
HETATM   17  C10 UNL     1       1.792  -0.373  -4.610  1.00  0.00     0.035 C 
HETATM   18  C11 UNL     1       0.037  -1.814  -3.738  1.00  0.00     0.035 C 
BRANCH  15  19
HETATM   19  O2  UNL     1       0.279   0.011  -1.975  1.00  0.00    -0.312 OA
ATOM     20  H2  UNL     1      -0.373  -0.621  -1.697  1.00  0.00     0.237 HD
ENDBRANCH  15  19
ENDBRANCH   4  10
BRANCH   7  21
HETATM   21  O3  UNL     1      -2.296   0.506  -9.429  1.00  0.00    -0.377 OA
ATOM     22  H3  UNL     1      -2.336   0.337 -10.363  1.00  0.00     0.212 HD
ENDBRANCH   7  21
TORSDOF 3
ENDMDL
MODEL 5
REMARK VINA RESULT: -5.533482264      1.833      5.829
REMARK  3 active torsions:
REMARK  status: ('A' for Active; 'I' for Inactive)
REMARK    1  A    between atoms: C3_4  and  C4_5 
REMARK    2  A    between atoms: N1_10  and  O2_11 
REMARK    3  A    between atoms: C12_18  and  O3_19 
ROOT
HETATM    1  C1  UNL     1      -1.554  -0.116  -3.577  1.00  0.00     0.040 C 
HETATM    2  C2  UNL     1      -0.286   0.715  -3.658  1.00  0.00     0.128 C 
HETATM    3  O1  UNL     1       0.066   0.940  -4.957  1.00  0.00    -0.361 OA
HETATM    4  C3  UNL     1       0.104  -0.217  -5.697  1.00  0.00     0.224 C 
HETATM    5  N2  UNL     1       0.968  -1.235  -5.199  1.00  0.00    -0.370 N 
ATOM      6  H2  UNL     1       1.458  -1.872  -5.828  1.00  0.00     0.158 HD
HETATM    7  C12 UNL     1       1.118  -1.323  -3.790  1.00  0.00     0.221 C 
HETATM    8  C13 UNL     1       0.819  -0.094  -3.014  1.00  0.00     0.059 C 
HETATM    9  C14 UNL     1       0.347  -0.501  -1.635  1.00  0.00     0.017 C 
ENDROOT
BRANCH   4  10
HETATM   10  C4  UNL     1       0.411   0.009  -7.144  1.00  0.00     0.060 C 
HETATM   11  C5  UNL     1       0.223   1.458  -7.549  1.00  0.00     0.038 C 
HETATM   12  C6  UNL     1       0.142   1.284  -9.073  1.00  0.00     0.032 C 
HETATM   13  C7  UNL     1       1.519   1.216  -9.679  1.00  0.00     0.034 C 
HETATM   14  C8  UNL     1      -0.557   2.514  -9.612  1.00  0.00     0.034 C 
HETATM   15  N1  UNL     1      -0.615   0.099  -9.210  1.00  0.00    -0.182 NA
HETATM   16  C9  UNL     1      -0.326  -0.806  -8.117  1.00  0.00     0.040 C 
HETATM   17  C10 UNL     1      -1.624  -1.392  -7.664  1.00  0.00     0.035 C 
HETATM   18  C11 UNL     1       0.521  -1.954  -8.665  1.00  0.00     0.035 C 
BRANCH  15  19
HETATM   19  O2  UNL     1      -0.610  -0.474 -10.405  1.00  0.00    -0.312 OA
ATOM     20  H2  UNL     1      -1.059  -1.308 -10.479  1.00  0.00     0.237 HD
ENDBRANCH  15  19
ENDBRANCH   4  10
BRANCH   7  21
HETATM   21  O3  UNL     1       2.468  -1.664  -3.533  1.00  0.00    -0.377 OA
ATOM     22  H3  UNL     1       2.514  -2.612  -3.487  1.00  0.00     0.212 HD
ENDBRANCH   7  21
TORSDOF 3
ENDMDL
