MODEL 1
REMARK VINA RESULT: -5.946257659      0.000      0.000
REMARK  4 active torsions:
REMARK  status: ('A' for Active; 'I' for Inactive)
REMARK    1  A    between atoms: C2_2  and  N1_3 
REMARK    2  A    between atoms: N1_3  and  C3_5 
REMARK    3  A    between atoms: C3_5  and  N2_7 
REMARK       I    between atoms: C4_9  and  N4_11 
REMARK    4  A    between atoms: C6_16  and  C7_17 
ROOT
HETATM    1  N2  UNL     1       1.133  35.815  40.327  1.00  0.00    -0.307 N 
ATOM      2  H2  UNL     1       1.853  35.355  40.885  1.00  0.00     0.171 HD
HETATM    3  C4  UNL     1       0.998  37.088  40.406  1.00  0.00     0.196 C 
HETATM    4  N3  UNL     1      -0.008  37.703  39.622  1.00  0.00    -0.063 NA
HETATM    5  N4  UNL     1       1.813  37.891  41.241  1.00  0.00    -0.311 N 
ATOM      6  H4  UNL     1       1.857  37.687  42.239  1.00  0.00     0.170 HD
HETATM    7  C5  UNL     1       2.495  38.870  40.770  1.00  0.00     0.145 C 
HETATM    8  N5  UNL     1       3.389  39.866  41.241  1.00  0.00    -0.357 N 
ATOM      9  H5  UNL     1       4.171  39.878  41.895  1.00  0.00     0.162 HD
HETATM   10  C6  UNL     1       2.749  40.842  40.426  1.00  0.00     0.153 C 
HETATM   11  S2  UNL     1       2.679  39.546  39.133  1.00  0.00    -0.069 SA
ENDROOT
BRANCH   1  12
HETATM   12  C3  UNL     1       0.314  35.038  39.491  1.00  0.00     0.174 C 
HETATM   13  S1  UNL     1       0.899  34.513  38.051  1.00  0.00    -0.041 SA
BRANCH  12  14
HETATM   14  N1  UNL     1      -0.998  34.716  39.894  1.00  0.00    -0.367 N 
ATOM     15  H1  UNL     1      -1.186  34.465  40.864  1.00  0.00     0.161 HD
BRANCH  14  16
HETATM   16  C2  UNL     1      -2.072  34.740  38.941  1.00  0.00     0.117 C 
HETATM   17  C1  UNL     1      -3.383  34.752  39.686  1.00  0.00     0.026 C 
ENDBRANCH  14  16
ENDBRANCH  12  14
ENDBRANCH   1  12
BRANCH  10  18
HETATM   18  C7  UNL     1       3.550  42.001  39.952  1.00  0.00     0.032 C 
HETATM   19  C8  UNL     1       2.762  43.263  39.755  1.00  0.00     0.008 C 
ENDBRANCH  10  18
TORSDOF 4
ENDMDL
MODEL 2
REMARK VINA RESULT: -5.851089563      3.372      7.121
REMARK  4 active torsions:
REMARK  status: ('A' for Active; 'I' for Inactive)
REMARK    1  A    between atoms: C2_2  and  N1_3 
REMARK    2  A    between atoms: N1_3  and  C3_5 
REMARK    3  A    between atoms: C3_5  and  N2_7 
REMARK       I    between atoms: C4_9  and  N4_11 
REMARK    4  A    between atoms: C6_16  and  C7_17 
ROOT
HETATM    1  N2  UNL     1       0.991  39.899  39.352  1.00  0.00    -0.307 N 
ATOM      2  H2  UNL     1       1.774  39.445  38.879  1.00  0.00     0.171 HD
HETATM    3  C4  UNL     1      -0.155  39.927  38.776  1.00  0.00     0.196 C 
HETATM    4  N3  UNL     1      -1.225  40.563  39.452  1.00  0.00    -0.063 NA
HETATM    5  N4  UNL     1      -0.384  39.351  37.503  1.00  0.00    -0.311 N 
ATOM      6  H4  UNL     1       0.184  39.650  36.711  1.00  0.00     0.170 HD
HETATM    7  C5  UNL     1      -1.292  38.461  37.324  1.00  0.00     0.145 C 
HETATM    8  N5  UNL     1      -1.814  37.674  36.266  1.00  0.00    -0.357 N 
ATOM      9  H5  UNL     1      -1.406  37.147  35.493  1.00  0.00     0.162 HD
HETATM   10  C6  UNL     1      -3.139  37.919  36.722  1.00  0.00     0.153 C 
HETATM   11  S2  UNL     1      -2.473  37.695  38.414  1.00  0.00    -0.069 SA
ENDROOT
BRANCH   1  12
HETATM   12  C3  UNL     1       1.196  40.476  40.615  1.00  0.00     0.174 C 
HETATM   13  S1  UNL     1       1.498  39.507  41.905  1.00  0.00    -0.041 SA
BRANCH  12  14
HETATM   14  N1  UNL     1       1.142  41.877  40.766  1.00  0.00    -0.367 N 
ATOM     15  H1  UNL     1       0.325  42.311  41.195  1.00  0.00     0.161 HD
BRANCH  14  16
HETATM   16  C2  UNL     1       2.234  42.694  40.317  1.00  0.00     0.117 C 
HETATM   17  C1  UNL     1       1.856  43.331  39.004  1.00  0.00     0.026 C 
ENDBRANCH  14  16
ENDBRANCH  12  14
ENDBRANCH   1  12
BRANCH  10  18
HETATM   18  C7  UNL     1      -4.184  36.900  36.439  1.00  0.00     0.032 C 
HETATM   19  C8  UNL     1      -4.900  37.089  35.135  1.00  0.00     0.008 C 
ENDBRANCH  10  18
TORSDOF 4
ENDMDL
MODEL 3
REMARK VINA RESULT: -5.839421124      2.270      6.577
REMARK  4 active torsions:
REMARK  status: ('A' for Active; 'I' for Inactive)
REMARK    1  A    between atoms: C2_2  and  N1_3 
REMARK    2  A    between atoms: N1_3  and  C3_5 
REMARK    3  A    between atoms: C3_5  and  N2_7 
REMARK       I    between atoms: C4_9  and  N4_11 
REMARK    4  A    between atoms: C6_16  and  C7_17 
ROOT
HETATM    1  N2  UNL     1       1.274  37.487  38.418  1.00  0.00    -0.307 N 
ATOM      2  H2  UNL     1       0.954  37.951  37.567  1.00  0.00     0.171 HD
HETATM    3  C4  UNL     1       0.414  37.152  39.308  1.00  0.00     0.196 C 
HETATM    4  N3  UNL     1       0.883  36.511  40.480  1.00  0.00    -0.063 NA
HETATM    5  N4  UNL     1      -0.973  37.398  39.160  1.00  0.00    -0.311 N 
ATOM      6  H4  UNL     1      -1.295  38.352  38.998  1.00  0.00     0.170 HD
HETATM    7  C5  UNL     1      -1.832  36.448  39.227  1.00  0.00     0.145 C 
HETATM    8  N5  UNL     1      -3.238  36.278  39.136  1.00  0.00    -0.357 N 
ATOM      9  H5  UNL     1      -3.969  36.647  38.527  1.00  0.00     0.162 HD
HETATM   10  C6  UNL     1      -3.213  35.383  40.242  1.00  0.00     0.153 C 
HETATM   11  S2  UNL     1      -1.687  34.694  39.501  1.00  0.00    -0.069 SA
ENDROOT
BRANCH   1  12
HETATM   12  C3  UNL     1       2.645  37.232  38.584  1.00  0.00     0.174 C 
HETATM   13  S1  UNL     1       3.399  36.183  37.573  1.00  0.00    -0.041 SA
BRANCH  12  14
HETATM   14  N1  UNL     1       3.360  37.877  39.615  1.00  0.00    -0.367 N 
ATOM     15  H1  UNL     1       3.934  37.330  40.256  1.00  0.00     0.161 HD
BRANCH  14  16
HETATM   16  C2  UNL     1       3.283  39.304  39.763  1.00  0.00     0.117 C 
HETATM   17  C1  UNL     1       2.822  39.622  41.163  1.00  0.00     0.026 C 
ENDBRANCH  14  16
ENDBRANCH  12  14
ENDBRANCH   1  12
BRANCH  10  18
HETATM   18  C7  UNL     1      -4.264  34.335  40.327  1.00  0.00     0.032 C 
HETATM   19  C8  UNL     1      -4.722  34.024  41.722  1.00  0.00     0.008 C 
ENDBRANCH  10  18
TORSDOF 4
ENDMDL
MODEL 4
REMARK VINA RESULT: -5.802866270      1.696      6.764
REMARK  4 active torsions:
REMARK  status: ('A' for Active; 'I' for Inactive)
REMARK    1  A    between atoms: C2_2  and  N1_3 
REMARK    2  A    between atoms: N1_3  and  C3_5 
REMARK    3  A    between atoms: C3_5  and  N2_7 
REMARK       I    between atoms: C4_9  and  N4_11 
REMARK    4  A    between atoms: C6_16  and  C7_17 
ROOT
HETATM    1  N2  UNL     1       2.314  38.482  41.083  1.00  0.00    -0.307 N 
ATOM      2  H2  UNL     1       2.574  37.919  41.893  1.00  0.00     0.171 HD
HETATM    3  C4  UNL     1       1.752  37.913  40.080  1.00  0.00     0.196 C 
HETATM    4  N3  UNL     1       1.402  38.715  38.967  1.00  0.00    -0.063 NA
HETATM    5  N4  UNL     1       1.473  36.525  40.049  1.00  0.00    -0.311 N 
ATOM      6  H4  UNL     1       2.234  35.860  40.187  1.00  0.00     0.170 HD
HETATM    7  C5  UNL     1       0.284  36.085  39.851  1.00  0.00     0.145 C 
HETATM    8  N5  UNL     1      -0.385  34.837  39.752  1.00  0.00    -0.357 N 
ATOM      9  H5  UNL     1      -0.345  33.958  40.268  1.00  0.00     0.162 HD
HETATM   10  C6  UNL     1      -1.135  35.315  38.642  1.00  0.00     0.153 C 
HETATM   11  S2  UNL     1      -1.278  36.891  39.564  1.00  0.00    -0.069 SA
ENDROOT
BRANCH   1  12
HETATM   12  C3  UNL     1       2.580  39.861  41.093  1.00  0.00     0.174 C 
HETATM   13  S1  UNL     1       1.775  40.830  42.143  1.00  0.00    -0.041 SA
BRANCH  12  14
HETATM   14  N1  UNL     1       3.534  40.400  40.204  1.00  0.00    -0.367 N 
ATOM     15  H1  UNL     1       4.261  39.801  39.814  1.00  0.00     0.161 HD
BRANCH  14  16
HETATM   16  C2  UNL     1       3.483  41.790  39.847  1.00  0.00     0.117 C 
HETATM   17  C1  UNL     1       4.614  42.089  38.896  1.00  0.00     0.026 C 
ENDBRANCH  14  16
ENDBRANCH  12  14
ENDBRANCH   1  12
BRANCH  10  18
HETATM   18  C7  UNL     1      -2.483  34.736  38.398  1.00  0.00     0.032 C 
HETATM   19  C8  UNL     1      -3.035  34.998  37.027  1.00  0.00     0.008 C 
ENDBRANCH  10  18
TORSDOF 4
ENDMDL
MODEL 5
REMARK VINA RESULT: -5.772781644      2.521      6.472
REMARK  4 active torsions:
REMARK  status: ('A' for Active; 'I' for Inactive)
REMARK    1  A    between atoms: C2_2  and  N1_3 
REMARK    2  A    between atoms: N1_3  and  C3_5 
REMARK    3  A    between atoms: C3_5  and  N2_7 
REMARK       I    between atoms: C4_9  and  N4_11 
REMARK    4  A    between atoms: C6_16  and  C7_17 
ROOT
HETATM    1  N2  UNL     1      -0.142  40.025  39.877  1.00  0.00    -0.307 N 
ATOM      2  H2  UNL     1      -0.868  39.873  40.578  1.00  0.00     0.171 HD
HETATM    3  C4  UNL     1       0.763  39.132  39.711  1.00  0.00     0.196 C 
HETATM    4  N3  UNL     1       1.761  39.368  38.734  1.00  0.00    -0.063 NA
HETATM    5  N4  UNL     1       0.799  37.933  40.463  1.00  0.00    -0.311 N 
ATOM      6  H4  UNL     1       0.829  37.983  41.481  1.00  0.00     0.170 HD
HETATM    7  C5  UNL     1       0.795  36.784  39.891  1.00  0.00     0.145 C 
HETATM    8  N5  UNL     1       0.820  35.414  40.259  1.00  0.00    -0.357 N 
ATOM      9  H5  UNL     1       0.357  34.853  40.975  1.00  0.00     0.162 HD
HETATM   10  C6  UNL     1       1.756  35.141  39.223  1.00  0.00     0.153 C 
HETATM   11  S2  UNL     1       0.761  36.276  38.185  1.00  0.00    -0.069 SA
ENDROOT
BRANCH   1  12
HETATM   12  C3  UNL     1      -0.159  41.208  39.120  1.00  0.00     0.174 C 
HETATM   13  S1  UNL     1      -1.366  41.454  38.036  1.00  0.00    -0.041 SA
BRANCH  12  14
HETATM   14  N1  UNL     1       0.856  42.171  39.296  1.00  0.00    -0.367 N 
ATOM     15  H1  UNL     1       1.249  42.333  40.223  1.00  0.00     0.161 HD
BRANCH  14  16
HETATM   16  C2  UNL     1       1.339  42.924  38.172  1.00  0.00     0.117 C 
HETATM   17  C1  UNL     1       2.841  42.813  38.122  1.00  0.00     0.026 C 
ENDBRANCH  14  16
ENDBRANCH  12  14
ENDBRANCH   1  12
BRANCH  10  18
HETATM   18  C7  UNL     1       1.773  33.779  38.627  1.00  0.00     0.032 C 
HETATM   19  C8  UNL     1       3.109  33.347  38.098  1.00  0.00     0.008 C 
ENDBRANCH  10  18
TORSDOF 4
ENDMDL
