MODEL 1
REMARK VINA RESULT: -7.621610750      0.000      0.000
REMARK  14 active torsions:
REMARK  status: ('A' for Active; 'I' for Inactive)
REMARK    1  A    between atoms: C2_2  and  C3_3 
REMARK    2  A    between atoms: C3_3  and  C5_5 
REMARK    3  A    between atoms: C6_9  and  N2_10 
REMARK    4  A    between atoms: N2_10  and  C7_11 
REMARK    5  A    between atoms: C8_13  and  C9_14 
REMARK    6  A    between atoms: C9_14  and  N3_16 
REMARK    7  A    between atoms: N3_16  and  C11_18 
REMARK    8  A    between atoms: C11_18  and  C12_19 
REMARK    9  A    between atoms: C11_18  and  C13_22 
REMARK   10  A    between atoms: C12_19  and  O3_20 
REMARK   11  A    between atoms: C13_22  and  O4_23 
REMARK   12  A    between atoms: C13_22  and  O5_25 
REMARK   13  A    between atoms: O5_25  and  C14_26 
REMARK   14  A    between atoms: C18_31  and  N4_32 
ROOT
HETATM    1  C7  UNL     1      24.599  40.891  23.912  1.00  0.00     0.268 A 
HETATM    2  O2  UNL     1      24.315  39.937  24.715  1.00  0.00    -0.279 OA
HETATM    3  C8  UNL     1      23.188  39.511  24.956  1.00  0.00     0.085 A 
HETATM    4  C17 UNL     1      22.127  40.131  24.273  1.00  0.00     0.089 A 
HETATM    5  S1  UNL     1      22.989  41.287  23.365  1.00  0.00    -0.040 SA
ENDROOT
BRANCH   3   6
HETATM    6  C9  UNL     1      22.874  38.408  25.920  1.00  0.00     0.131 C 
HETATM    7  C10 UNL     1      23.703  38.597  27.217  1.00  0.00     0.039 C 
BRANCH   6   8
HETATM    8  N3  UNL     1      23.214  37.091  25.470  1.00  0.00    -0.401 N 
ATOM      9  H3  UNL     1      22.525  36.512  24.990  1.00  0.00     0.154 HD
BRANCH   8  10
HETATM   10  C11 UNL     1      24.518  36.609  25.702  1.00  0.00     0.156 C 
BRANCH  10  11
HETATM   11  C12 UNL     1      25.328  36.387  24.410  1.00  0.00     0.193 C 
BRANCH  11  12
HETATM   12  O3  UNL     1      26.197  35.303  24.588  1.00  0.00    -0.399 OA
ATOM     13  H3  UNL     1      27.094  35.598  24.487  1.00  0.00     0.209 HD
ENDBRANCH  11  12
ENDBRANCH  10  11
BRANCH  10  14
HETATM   14  C13 UNL     1      24.367  35.158  26.155  1.00  0.00     0.281 C 
BRANCH  14  15
HETATM   15  O4  UNL     1      24.702  34.952  27.437  1.00  0.00    -0.369 OA
ATOM     16  H4  UNL     1      23.970  35.002  28.039  1.00  0.00     0.212 HD
ENDBRANCH  14  15
BRANCH  14  17
HETATM   17  O5  UNL     1      23.956  34.123  25.514  1.00  0.00    -0.355 OA
BRANCH  17  18
HETATM   18  C14 UNL     1      22.931  33.609  24.770  1.00  0.00     0.116 C 
HETATM   19  C15 UNL     1      21.707  34.498  24.659  1.00  0.00     0.039 C 
HETATM   20  C16 UNL     1      22.473  32.327  25.476  1.00  0.00     0.039 C 
ENDBRANCH  17  18
ENDBRANCH  14  17
ENDBRANCH  10  14
ENDBRANCH   8  10
ENDBRANCH   6   8
ENDBRANCH   3   6
BRANCH   1  21
HETATM   21  N2  UNL     1      25.692  41.348  23.653  1.00  0.00    -0.351 NA
BRANCH  21  22
HETATM   22  C6  UNL     1      26.855  41.839  23.387  1.00  0.00     0.232 A 
HETATM   23  N1  UNL     1      27.260  42.911  22.685  1.00  0.00    -0.231 N 
HETATM   24  O1  UNL     1      28.524  43.046  22.639  1.00  0.00    -0.233 OA
ATOM     25  H1  UNL     1      26.614  43.557  22.231  1.00  0.00     0.197 HD
HETATM   26  C5  UNL     1      29.123  42.045  23.344  1.00  0.00     0.132 A 
HETATM   27  C18 UNL     1      28.112  41.304  23.792  1.00  0.00     0.125 A 
BRANCH  26  28
HETATM   28  C3  UNL     1      30.584  41.955  23.502  1.00  0.00    -0.046 C 
HETATM   29  C4  UNL     1      31.109  42.227  24.848  1.00  0.00     0.046 C 
BRANCH  28  30
HETATM   30  C2  UNL     1      31.202  40.780  22.809  1.00  0.00     0.032 C 
HETATM   31  C1  UNL     1      30.846  40.416  21.436  1.00  0.00     0.010 C 
ENDBRANCH  28  30
ENDBRANCH  26  28
BRANCH  27  32
HETATM   32  N4  UNL     1      28.190  40.044  24.455  1.00  0.00    -0.388 N 
HETATM   33  C19 UNL     1      28.119  38.832  23.595  1.00  0.00     0.146 C 
ATOM     34  H4  UNL     1      28.289  39.978  25.468  1.00  0.00     0.159 HD
ENDBRANCH  27  32
ENDBRANCH  21  22
ENDBRANCH   1  21
TORSDOF 14
ENDMDL
MODEL 2
REMARK VINA RESULT: -7.401218315      4.953      9.204
REMARK  14 active torsions:
REMARK  status: ('A' for Active; 'I' for Inactive)
REMARK    1  A    between atoms: C2_2  and  C3_3 
REMARK    2  A    between atoms: C3_3  and  C5_5 
REMARK    3  A    between atoms: C6_9  and  N2_10 
REMARK    4  A    between atoms: N2_10  and  C7_11 
REMARK    5  A    between atoms: C8_13  and  C9_14 
REMARK    6  A    between atoms: C9_14  and  N3_16 
REMARK    7  A    between atoms: N3_16  and  C11_18 
REMARK    8  A    between atoms: C11_18  and  C12_19 
REMARK    9  A    between atoms: C11_18  and  C13_22 
REMARK   10  A    between atoms: C12_19  and  O3_20 
REMARK   11  A    between atoms: C13_22  and  O4_23 
REMARK   12  A    between atoms: C13_22  and  O5_25 
REMARK   13  A    between atoms: O5_25  and  C14_26 
REMARK   14  A    between atoms: C18_31  and  N4_32 
ROOT
HETATM    1  C7  UNL     1      20.627  39.647  26.428  1.00  0.00     0.268 A 
HETATM    2  O2  UNL     1      20.976  38.647  25.711  1.00  0.00    -0.279 OA
HETATM    3  C8  UNL     1      22.087  38.119  25.704  1.00  0.00     0.085 A 
HETATM    4  C17 UNL     1      23.044  38.669  26.574  1.00  0.00     0.089 A 
HETATM    5  S1  UNL     1      22.128  39.923  27.276  1.00  0.00    -0.040 SA
ENDROOT
BRANCH   3   6
HETATM    6  C9  UNL     1      22.483  36.963  24.837  1.00  0.00     0.131 C 
HETATM    7  C10 UNL     1      21.514  36.858  23.632  1.00  0.00     0.039 C 
BRANCH   6   8
HETATM    8  N3  UNL     1      22.409  35.678  25.466  1.00  0.00    -0.401 N 
ATOM      9  H3  UNL     1      21.778  35.520  26.251  1.00  0.00     0.154 HD
BRANCH   8  10
HETATM   10  C11 UNL     1      23.224  34.636  24.980  1.00  0.00     0.156 C 
BRANCH  10  11
HETATM   11  C12 UNL     1      22.986  33.289  25.690  1.00  0.00     0.193 C 
BRANCH  11  12
HETATM   12  O3  UNL     1      22.837  32.279  24.731  1.00  0.00    -0.399 OA
ATOM     13  H3  UNL     1      23.680  32.094  24.335  1.00  0.00     0.209 HD
ENDBRANCH  11  12
ENDBRANCH  10  11
BRANCH  10  14
HETATM   14  C13 UNL     1      24.640  34.932  25.472  1.00  0.00     0.281 C 
BRANCH  14  15
HETATM   15  O4  UNL     1      24.780  34.856  26.803  1.00  0.00    -0.369 OA
ATOM     16  H4  UNL     1      25.667  34.672  27.087  1.00  0.00     0.212 HD
ENDBRANCH  14  15
BRANCH  14  17
HETATM   17  O5  UNL     1      25.707  35.223  24.816  1.00  0.00    -0.355 OA
BRANCH  17  18
HETATM   18  C14 UNL     1      26.240  36.052  23.869  1.00  0.00     0.116 C 
HETATM   19  C15 UNL     1      27.601  35.638  23.343  1.00  0.00     0.039 C 
HETATM   20  C16 UNL     1      26.432  37.419  24.539  1.00  0.00     0.039 C 
ENDBRANCH  17  18
ENDBRANCH  14  17
ENDBRANCH  10  14
ENDBRANCH   8  10
ENDBRANCH   6   8
ENDBRANCH   3   6
BRANCH   1  21
HETATM   21  N2  UNL     1      19.550  40.201  26.460  1.00  0.00    -0.351 NA
BRANCH  21  22
HETATM   22  C6  UNL     1      18.406  40.796  26.505  1.00  0.00     0.232 A 
HETATM   23  N1  UNL     1      18.022  42.066  26.290  1.00  0.00    -0.231 N 
HETATM   24  O1  UNL     1      16.776  42.261  26.460  1.00  0.00    -0.233 OA
ATOM     25  H1  UNL     1      18.669  42.805  26.015  1.00  0.00     0.197 HD
HETATM   26  C5  UNL     1      16.167  41.092  26.809  1.00  0.00     0.132 A 
HETATM   27  C18 UNL     1      17.157  40.202  26.847  1.00  0.00     0.125 A 
BRANCH  26  28
HETATM   28  C3  UNL     1      14.716  40.995  27.038  1.00  0.00    -0.046 C 
HETATM   29  C4  UNL     1      14.210  41.623  28.267  1.00  0.00     0.046 C 
BRANCH  28  30
HETATM   30  C2  UNL     1      13.887  41.241  25.815  1.00  0.00     0.032 C 
HETATM   31  C1  UNL     1      12.424  41.274  25.865  1.00  0.00     0.010 C 
ENDBRANCH  28  30
ENDBRANCH  26  28
BRANCH  27  32
HETATM   32  N4  UNL     1      17.091  38.856  27.312  1.00  0.00    -0.388 N 
HETATM   33  C19 UNL     1      16.629  38.655  28.713  1.00  0.00     0.146 C 
ATOM     34  H4  UNL     1      17.348  38.069  26.715  1.00  0.00     0.159 HD
ENDBRANCH  27  32
ENDBRANCH  21  22
ENDBRANCH   1  21
TORSDOF 14
ENDMDL
MODEL 3
REMARK VINA RESULT: -7.384970720      1.133      2.186
REMARK  14 active torsions:
REMARK  status: ('A' for Active; 'I' for Inactive)
REMARK    1  A    between atoms: C2_2  and  C3_3 
REMARK    2  A    between atoms: C3_3  and  C5_5 
REMARK    3  A    between atoms: C6_9  and  N2_10 
REMARK    4  A    between atoms: N2_10  and  C7_11 
REMARK    5  A    between atoms: C8_13  and  C9_14 
REMARK    6  A    between atoms: C9_14  and  N3_16 
REMARK    7  A    between atoms: N3_16  and  C11_18 
REMARK    8  A    between atoms: C11_18  and  C12_19 
REMARK    9  A    between atoms: C11_18  and  C13_22 
REMARK   10  A    between atoms: C12_19  and  O3_20 
REMARK   11  A    between atoms: C13_22  and  O4_23 
REMARK   12  A    between atoms: C13_22  and  O5_25 
REMARK   13  A    between atoms: O5_25  and  C14_26 
REMARK   14  A    between atoms: C18_31  and  N4_32 
ROOT
HETATM    1  C7  UNL     1      24.529  40.966  23.947  1.00  0.00     0.268 A 
HETATM    2  O2  UNL     1      24.213  40.195  24.917  1.00  0.00    -0.279 OA
HETATM    3  C8  UNL     1      23.084  39.774  25.163  1.00  0.00     0.085 A 
HETATM    4  C17 UNL     1      22.063  40.176  24.285  1.00  0.00     0.089 A 
HETATM    5  S1  UNL     1      22.957  41.152  23.211  1.00  0.00    -0.040 SA
ENDROOT
BRANCH   3   6
HETATM    6  C9  UNL     1      22.730  38.891  26.321  1.00  0.00     0.131 C 
HETATM    7  C10 UNL     1      22.719  39.724  27.628  1.00  0.00     0.039 C 
BRANCH   6   8
HETATM    8  N3  UNL     1      23.658  37.830  26.583  1.00  0.00    -0.401 N 
ATOM      9  H3  UNL     1      24.170  37.795  27.465  1.00  0.00     0.154 HD
BRANCH   8  10
HETATM   10  C11 UNL     1      23.849  36.837  25.602  1.00  0.00     0.156 C 
BRANCH  10  11
HETATM   11  C12 UNL     1      23.821  35.404  26.167  1.00  0.00     0.193 C 
BRANCH  11  12
HETATM   12  O3  UNL     1      24.988  35.174  26.907  1.00  0.00    -0.399 OA
ATOM     13  H3  UNL     1      25.536  34.550  26.445  1.00  0.00     0.209 HD
ENDBRANCH  11  12
ENDBRANCH  10  11
BRANCH  10  14
HETATM   14  C13 UNL     1      25.319  36.916  25.191  1.00  0.00     0.281 C 
BRANCH  14  15
HETATM   15  O4  UNL     1      25.998  37.904  25.791  1.00  0.00    -0.369 OA
ATOM     16  H4  UNL     1      25.471  38.433  26.378  1.00  0.00     0.212 HD
ENDBRANCH  14  15
BRANCH  14  17
HETATM   17  O5  UNL     1      26.000  36.182  24.385  1.00  0.00    -0.355 OA
BRANCH  17  18
HETATM   18  C14 UNL     1      26.723  36.178  23.226  1.00  0.00     0.116 C 
HETATM   19  C15 UNL     1      25.973  35.693  22.000  1.00  0.00     0.039 C 
HETATM   20  C16 UNL     1      27.888  35.202  23.436  1.00  0.00     0.039 C 
ENDBRANCH  17  18
ENDBRANCH  14  17
ENDBRANCH  10  14
ENDBRANCH   8  10
ENDBRANCH   6   8
ENDBRANCH   3   6
BRANCH   1  21
HETATM   21  N2  UNL     1      25.623  41.411  23.674  1.00  0.00    -0.351 NA
BRANCH  21  22
HETATM   22  C6  UNL     1      26.790  41.885  23.395  1.00  0.00     0.232 A 
HETATM   23  N1  UNL     1      27.206  42.909  22.630  1.00  0.00    -0.231 N 
HETATM   24  O1  UNL     1      28.471  43.042  22.595  1.00  0.00    -0.233 OA
ATOM     25  H1  UNL     1      26.567  43.522  22.124  1.00  0.00     0.197 HD
HETATM   26  C5  UNL     1      29.059  42.091  23.375  1.00  0.00     0.132 A 
HETATM   27  C18 UNL     1      28.041  41.380  23.855  1.00  0.00     0.125 A 
BRANCH  26  28
HETATM   28  C3  UNL     1      30.517  42.014  23.562  1.00  0.00    -0.046 C 
HETATM   29  C4  UNL     1      31.009  42.247  24.928  1.00  0.00     0.046 C 
BRANCH  28  30
HETATM   30  C2  UNL     1      31.165  40.871  22.844  1.00  0.00     0.032 C 
HETATM   31  C1  UNL     1      30.820  40.529  21.462  1.00  0.00     0.010 C 
ENDBRANCH  28  30
ENDBRANCH  26  28
BRANCH  27  32
HETATM   32  N4  UNL     1      28.108  40.167  24.601  1.00  0.00    -0.388 N 
HETATM   33  C19 UNL     1      28.401  38.926  23.833  1.00  0.00     0.146 C 
ATOM     34  H4  UNL     1      27.964  40.151  25.611  1.00  0.00     0.159 HD
ENDBRANCH  27  32
ENDBRANCH  21  22
ENDBRANCH   1  21
TORSDOF 14
ENDMDL
MODEL 4
REMARK VINA RESULT: -7.302659240      5.116      9.445
REMARK  14 active torsions:
REMARK  status: ('A' for Active; 'I' for Inactive)
REMARK    1  A    between atoms: C2_2  and  C3_3 
REMARK    2  A    between atoms: C3_3  and  C5_5 
REMARK    3  A    between atoms: C6_9  and  N2_10 
REMARK    4  A    between atoms: N2_10  and  C7_11 
REMARK    5  A    between atoms: C8_13  and  C9_14 
REMARK    6  A    between atoms: C9_14  and  N3_16 
REMARK    7  A    between atoms: N3_16  and  C11_18 
REMARK    8  A    between atoms: C11_18  and  C12_19 
REMARK    9  A    between atoms: C11_18  and  C13_22 
REMARK   10  A    between atoms: C12_19  and  O3_20 
REMARK   11  A    between atoms: C13_22  and  O4_23 
REMARK   12  A    between atoms: C13_22  and  O5_25 
REMARK   13  A    between atoms: O5_25  and  C14_26 
REMARK   14  A    between atoms: C18_31  and  N4_32 
ROOT
HETATM    1  C7  UNL     1      20.355  39.955  26.547  1.00  0.00     0.268 A 
HETATM    2  O2  UNL     1      20.821  39.042  25.783  1.00  0.00    -0.279 OA
HETATM    3  C8  UNL     1      21.956  38.571  25.834  1.00  0.00     0.085 A 
HETATM    4  C17 UNL     1      22.800  39.084  26.834  1.00  0.00     0.089 A 
HETATM    5  S1  UNL     1      21.757  40.224  27.552  1.00  0.00    -0.040 SA
ENDROOT
BRANCH   3   6
HETATM    6  C9  UNL     1      22.492  37.518  24.912  1.00  0.00     0.131 C 
HETATM    7  C10 UNL     1      21.449  36.381  24.756  1.00  0.00     0.039 C 
BRANCH   6   8
HETATM    8  N3  UNL     1      23.676  36.854  25.370  1.00  0.00    -0.401 N 
ATOM      9  H3  UNL     1      24.238  37.254  26.121  1.00  0.00     0.154 HD
BRANCH   8  10
HETATM   10  C11 UNL     1      24.051  35.638  24.764  1.00  0.00     0.156 C 
BRANCH  10  11
HETATM   11  C12 UNL     1      24.243  34.486  25.769  1.00  0.00     0.193 C 
BRANCH  11  12
HETATM   12  O3  UNL     1      24.910  34.966  26.903  1.00  0.00    -0.399 OA
ATOM     13  H3  UNL     1      25.689  34.443  27.055  1.00  0.00     0.209 HD
ENDBRANCH  11  12
ENDBRANCH  10  11
BRANCH  10  14
HETATM   14  C13 UNL     1      25.497  35.814  24.305  1.00  0.00     0.281 C 
BRANCH  14  15
HETATM   15  O4  UNL     1      25.794  35.154  23.177  1.00  0.00    -0.369 OA
ATOM     16  H4  UNL     1      26.720  34.972  23.069  1.00  0.00     0.212 HD
ENDBRANCH  14  15
BRANCH  14  17
HETATM   17  O5  UNL     1      26.456  36.502  24.815  1.00  0.00    -0.355 OA
BRANCH  17  18
HETATM   18  C14 UNL     1      27.116  37.698  24.767  1.00  0.00     0.116 C 
HETATM   19  C15 UNL     1      26.240  38.925  24.943  1.00  0.00     0.039 C 
HETATM   20  C16 UNL     1      27.732  37.805  23.366  1.00  0.00     0.039 C 
ENDBRANCH  17  18
ENDBRANCH  14  17
ENDBRANCH  10  14
ENDBRANCH   8  10
ENDBRANCH   6   8
ENDBRANCH   3   6
BRANCH   1  21
HETATM   21  N2  UNL     1      19.250  40.452  26.526  1.00  0.00    -0.351 NA
BRANCH  21  22
HETATM   22  C6  UNL     1      18.071  40.977  26.514  1.00  0.00     0.232 A 
HETATM   23  N1  UNL     1      17.623  42.221  26.277  1.00  0.00    -0.231 N 
HETATM   24  O1  UNL     1      16.360  42.341  26.386  1.00  0.00    -0.233 OA
ATOM     25  H1  UNL     1      18.237  42.998  26.032  1.00  0.00     0.197 HD
HETATM   26  C5  UNL     1      15.807  41.137  26.708  1.00  0.00     0.132 A 
HETATM   27  C18 UNL     1      16.845  40.309  26.796  1.00  0.00     0.125 A 
BRANCH  26  28
HETATM   28  C3  UNL     1      14.355  40.953  26.866  1.00  0.00    -0.046 C 
HETATM   29  C4  UNL     1      13.749  41.567  28.057  1.00  0.00     0.046 C 
BRANCH  28  30
HETATM   30  C2  UNL     1      13.576  41.128  25.599  1.00  0.00     0.032 C 
HETATM   31  C1  UNL     1      12.112  41.165  25.590  1.00  0.00     0.010 C 
ENDBRANCH  28  30
ENDBRANCH  26  28
BRANCH  27  32
HETATM   32  N4  UNL     1      16.838  38.961  27.261  1.00  0.00    -0.388 N 
HETATM   33  C19 UNL     1      16.482  38.750  28.691  1.00  0.00     0.146 C 
ATOM     34  H4  UNL     1      17.066  38.180  26.645  1.00  0.00     0.159 HD
ENDBRANCH  27  32
ENDBRANCH  21  22
ENDBRANCH   1  21
TORSDOF 14
ENDMDL
MODEL 5
REMARK VINA RESULT: -7.291204467      2.568      6.210
REMARK  14 active torsions:
REMARK  status: ('A' for Active; 'I' for Inactive)
REMARK    1  A    between atoms: C2_2  and  C3_3 
REMARK    2  A    between atoms: C3_3  and  C5_5 
REMARK    3  A    between atoms: C6_9  and  N2_10 
REMARK    4  A    between atoms: N2_10  and  C7_11 
REMARK    5  A    between atoms: C8_13  and  C9_14 
REMARK    6  A    between atoms: C9_14  and  N3_16 
REMARK    7  A    between atoms: N3_16  and  C11_18 
REMARK    8  A    between atoms: C11_18  and  C12_19 
REMARK    9  A    between atoms: C11_18  and  C13_22 
REMARK   10  A    between atoms: C12_19  and  O3_20 
REMARK   11  A    between atoms: C13_22  and  O4_23 
REMARK   12  A    between atoms: C13_22  and  O5_25 
REMARK   13  A    between atoms: O5_25  and  C14_26 
REMARK   14  A    between atoms: C18_31  and  N4_32 
ROOT
HETATM    1  C7  UNL     1      25.063  40.649  24.167  1.00  0.00     0.268 A 
HETATM    2  O2  UNL     1      25.485  39.483  24.478  1.00  0.00    -0.279 OA
HETATM    3  C8  UNL     1      26.653  39.102  24.422  1.00  0.00     0.085 A 
HETATM    4  C17 UNL     1      27.597  40.047  23.987  1.00  0.00     0.089 A 
HETATM    5  S1  UNL     1      26.578  41.385  23.709  1.00  0.00    -0.040 SA
ENDROOT
BRANCH   3   6
HETATM    6  C9  UNL     1      27.124  37.721  24.766  1.00  0.00     0.131 C 
HETATM    7  C10 UNL     1      27.280  36.885  23.470  1.00  0.00     0.039 C 
BRANCH   6   8
HETATM    8  N3  UNL     1      26.224  36.956  25.577  1.00  0.00    -0.401 N 
ATOM      9  H3  UNL     1      26.457  36.737  26.546  1.00  0.00     0.154 HD
BRANCH   8  10
HETATM   10  C11 UNL     1      25.012  36.511  25.012  1.00  0.00     0.156 C 
BRANCH  10  11
HETATM   11  C12 UNL     1      23.785  37.315  25.483  1.00  0.00     0.193 C 
BRANCH  11  12
HETATM   12  O3  UNL     1      24.044  37.860  26.747  1.00  0.00    -0.399 OA
ATOM     13  H3  UNL     1      23.267  38.305  27.063  1.00  0.00     0.209 HD
ENDBRANCH  11  12
ENDBRANCH  10  11
BRANCH  10  14
HETATM   14  C13 UNL     1      24.699  35.168  25.669  1.00  0.00     0.281 C 
BRANCH  14  15
HETATM   15  O4  UNL     1      25.125  35.071  26.937  1.00  0.00    -0.369 OA
ATOM     16  H4  UNL     1      25.687  34.322  27.098  1.00  0.00     0.212 HD
ENDBRANCH  14  15
BRANCH  14  17
HETATM   17  O5  UNL     1      24.084  34.137  25.208  1.00  0.00    -0.355 OA
BRANCH  17  18
HETATM   18  C14 UNL     1      22.918  33.695  24.650  1.00  0.00     0.116 C 
HETATM   19  C15 UNL     1      21.772  34.689  24.679  1.00  0.00     0.039 C 
HETATM   20  C16 UNL     1      22.463  32.486  25.477  1.00  0.00     0.039 C 
ENDBRANCH  17  18
ENDBRANCH  14  17
ENDBRANCH  10  14
ENDBRANCH   8  10
ENDBRANCH   6   8
ENDBRANCH   3   6
BRANCH   1  21
HETATM   21  N2  UNL     1      23.924  41.062  24.198  1.00  0.00    -0.351 NA
BRANCH  21  22
HETATM   22  C6  UNL     1      22.713  41.507  24.221  1.00  0.00     0.232 A 
HETATM   23  N1  UNL     1      22.096  42.522  23.592  1.00  0.00    -0.231 N 
HETATM   24  O1  UNL     1      20.870  42.651  23.906  1.00  0.00    -0.233 OA
ATOM     25  H1  UNL     1      22.568  43.133  22.924  1.00  0.00     0.197 HD
HETATM   26  C5  UNL     1      20.519  41.689  24.806  1.00  0.00     0.132 A 
HETATM   27  C18 UNL     1      21.639  40.998  25.006  1.00  0.00     0.125 A 
BRANCH  26  28
HETATM   28  C3  UNL     1      19.149  41.559  25.329  1.00  0.00    -0.046 C 
HETATM   29  C4  UNL     1      19.028  41.168  26.741  1.00  0.00     0.046 C 
BRANCH  28  30
HETATM   30  C2  UNL     1      18.224  42.655  24.896  1.00  0.00     0.032 C 
HETATM   31  C1  UNL     1      17.146  42.422  23.932  1.00  0.00     0.010 C 
ENDBRANCH  28  30
ENDBRANCH  26  28
BRANCH  27  32
HETATM   32  N4  UNL     1      21.864  39.978  25.976  1.00  0.00    -0.388 N 
HETATM   33  C19 UNL     1      22.365  40.420  27.306  1.00  0.00     0.146 C 
ATOM     34  H4  UNL     1      21.689  38.994  25.769  1.00  0.00     0.159 HD
ENDBRANCH  27  32
ENDBRANCH  21  22
ENDBRANCH   1  21
TORSDOF 14
ENDMDL
