MODEL 1
REMARK VINA RESULT: -8.140436627      0.000      0.000
REMARK  13 active torsions:
REMARK  status: ('A' for Active; 'I' for Inactive)
REMARK    1  A    between atoms: C2_2  and  C3_3 
REMARK    2  A    between atoms: C3_3  and  O1_5 
REMARK    3  A    between atoms: C3_3  and  C5_7 
REMARK    4  A    between atoms: C5_7  and  O2_9 
REMARK    5  A    between atoms: O2_9  and  C7_10 
REMARK    6  A    between atoms: C7_10  and  C8_11 
REMARK    7  A    between atoms: C8_11  and  C9_12 
REMARK    8  A    between atoms: C9_12  and  C10_13 
REMARK    9  A    between atoms: C10_13  and  C11_14 
REMARK   10  A    between atoms: C11_14  and  N1_15 
REMARK   11  A    between atoms: C13_22  and  C14_23 
REMARK   12  A    between atoms: C14_23  and  O3_24 
REMARK   13  A    between atoms: C20_33  and  N5_34 
ROOT
HETATM    1  N1  UNL     1      25.617  36.288  24.549  1.00  0.00    -0.261 N 
HETATM    2  N2  UNL     1      25.219  37.039  25.556  1.00  0.00    -0.238 N 
ATOM      3  H2  UNL     1      24.533  36.695  26.227  1.00  0.00     0.208 HD
HETATM    4  N3  UNL     1      25.741  38.269  25.672  1.00  0.00    -0.277 N 
ATOM      5  H3  UNL     1      25.453  38.875  26.440  1.00  0.00     0.189 HD
HETATM    6  C12 UNL     1      26.661  38.711  24.760  1.00  0.00     0.122 A 
HETATM    7  S1  UNL     1      27.576  40.160  24.511  1.00  0.00    -0.052 SA
HETATM    8  C13 UNL     1      28.418  39.684  23.105  1.00  0.00     0.088 A 
HETATM    9  N4  UNL     1      27.970  38.474  22.902  1.00  0.00    -0.346 N 
ATOM     10  H4  UNL     1      28.312  37.935  22.106  1.00  0.00     0.166 HD
HETATM   11  C19 UNL     1      27.092  37.951  23.706  1.00  0.00     0.114 A 
HETATM   12  C20 UNL     1      26.515  36.673  23.630  1.00  0.00     0.147 A 
ENDROOT
BRANCH   1  13
HETATM   13  C11 UNL     1      25.023  34.937  24.402  1.00  0.00     0.152 C 
BRANCH  13  14
HETATM   14  C10 UNL     1      24.140  34.655  25.606  1.00  0.00     0.022 C 
BRANCH  14  15
HETATM   15  C9  UNL     1      22.733  34.456  25.100  1.00  0.00     0.004 C 
BRANCH  15  16
HETATM   16  C8  UNL     1      22.332  35.627  24.241  1.00  0.00     0.026 C 
BRANCH  16  17
HETATM   17  C7  UNL     1      21.331  36.513  24.963  1.00  0.00     0.168 C 
BRANCH  17  18
HETATM   18  O2  UNL     1      22.074  37.453  25.652  1.00  0.00    -0.383 OA
BRANCH  18  19
HETATM   19  C5  UNL     1      21.520  38.723  25.590  1.00  0.00     0.151 C 
HETATM   20  C6  UNL     1      21.576  39.232  24.189  1.00  0.00     0.042 C 
BRANCH  19  21
HETATM   21  C3  UNL     1      22.332  39.573  26.573  1.00  0.00     0.079 C 
HETATM   22  C4  UNL     1      22.923  40.711  25.746  1.00  0.00     0.048 C 
BRANCH  21  23
HETATM   23  C2  UNL     1      21.358  40.113  27.595  1.00  0.00     0.035 C 
HETATM   24  C1  UNL     1      20.031  40.476  26.942  1.00  0.00     0.008 C 
ENDBRANCH  21  23
BRANCH  21  25
HETATM   25  O1  UNL     1      23.394  38.893  27.124  1.00  0.00    -0.388 OA
ATOM     26  H1  UNL     1      23.934  38.443  26.484  1.00  0.00     0.210 HD
ENDBRANCH  21  25
ENDBRANCH  19  21
ENDBRANCH  18  19
ENDBRANCH  17  18
ENDBRANCH  16  17
ENDBRANCH  15  16
ENDBRANCH  14  15
ENDBRANCH  13  14
ENDBRANCH   1  13
BRANCH  12  27
HETATM   27  N5  UNL     1      26.859  35.848  22.679  1.00  0.00    -0.382 N 
ATOM     28  H52 UNL     1      27.251  36.199  21.805  1.00  0.00     0.157 HD
ATOM     29  H51 UNL     1      26.746  34.843  22.819  1.00  0.00     0.157 HD
ENDBRANCH  12  27
BRANCH   8  30
HETATM   30  C14 UNL     1      29.416  40.410  22.276  1.00  0.00     0.106 C 
HETATM   31  C15 UNL     1      29.006  41.815  21.968  1.00  0.00     0.045 C 
HETATM   32  C16 UNL     1      30.164  42.697  22.397  1.00  0.00     0.004 C 
HETATM   33  C17 UNL     1      31.346  41.752  22.540  1.00  0.00     0.004 C 
HETATM   34  C18 UNL     1      30.692  40.527  23.096  1.00  0.00     0.045 C 
BRANCH  30  35
HETATM   35  O3  UNL     1      29.699  39.689  21.131  1.00  0.00    -0.383 OA
ATOM     36  H3  UNL     1      30.346  39.019  21.318  1.00  0.00     0.211 HD
ENDBRANCH  30  35
ENDBRANCH   8  30
TORSDOF 13
ENDMDL
MODEL 2
REMARK VINA RESULT: -7.989679984      1.575      2.177
REMARK  13 active torsions:
REMARK  status: ('A' for Active; 'I' for Inactive)
REMARK    1  A    between atoms: C2_2  and  C3_3 
REMARK    2  A    between atoms: C3_3  and  O1_5 
REMARK    3  A    between atoms: C3_3  and  C5_7 
REMARK    4  A    between atoms: C5_7  and  O2_9 
REMARK    5  A    between atoms: O2_9  and  C7_10 
REMARK    6  A    between atoms: C7_10  and  C8_11 
REMARK    7  A    between atoms: C8_11  and  C9_12 
REMARK    8  A    between atoms: C9_12  and  C10_13 
REMARK    9  A    between atoms: C10_13  and  C11_14 
REMARK   10  A    between atoms: C11_14  and  N1_15 
REMARK   11  A    between atoms: C13_22  and  C14_23 
REMARK   12  A    between atoms: C14_23  and  O3_24 
REMARK   13  A    between atoms: C20_33  and  N5_34 
ROOT
HETATM    1  N1  UNL     1      25.242  35.984  25.342  1.00  0.00    -0.261 N 
HETATM    2  N2  UNL     1      26.003  35.204  24.603  1.00  0.00    -0.238 N 
ATOM      3  H2  UNL     1      25.881  34.192  24.609  1.00  0.00     0.208 HD
HETATM    4  N3  UNL     1      26.946  35.780  23.841  1.00  0.00    -0.277 N 
ATOM      5  H3  UNL     1      27.553  35.203  23.258  1.00  0.00     0.189 HD
HETATM    6  C12 UNL     1      27.094  37.140  23.846  1.00  0.00     0.122 A 
HETATM    7  S1  UNL     1      28.125  38.287  23.060  1.00  0.00    -0.052 SA
HETATM    8  C13 UNL     1      27.489  39.711  23.753  1.00  0.00     0.088 A 
HETATM    9  N4  UNL     1      26.544  39.251  24.530  1.00  0.00    -0.346 N 
ATOM     10  H4  UNL     1      25.983  39.899  25.082  1.00  0.00     0.166 HD
HETATM   11  C19 UNL     1      26.315  37.973  24.604  1.00  0.00     0.114 A 
HETATM   12  C20 UNL     1      25.345  37.321  25.382  1.00  0.00     0.147 A 
ENDROOT
BRANCH   1  13
HETATM   13  C11 UNL     1      24.215  35.349  26.205  1.00  0.00     0.152 C 
BRANCH  13  14
HETATM   14  C10 UNL     1      23.489  34.283  25.403  1.00  0.00     0.022 C 
BRANCH  14  15
HETATM   15  C9  UNL     1      22.695  34.986  24.329  1.00  0.00     0.004 C 
BRANCH  15  16
HETATM   16  C8  UNL     1      21.732  35.956  24.963  1.00  0.00     0.026 C 
BRANCH  16  17
HETATM   17  C7  UNL     1      21.559  37.192  24.098  1.00  0.00     0.168 C 
BRANCH  17  18
HETATM   18  O2  UNL     1      22.049  38.252  24.837  1.00  0.00    -0.383 OA
BRANCH  18  19
HETATM   19  C5  UNL     1      21.375  39.438  24.585  1.00  0.00     0.151 C 
HETATM   20  C6  UNL     1      21.214  39.626  23.114  1.00  0.00     0.042 C 
BRANCH  19  21
HETATM   21  C3  UNL     1      22.217  40.536  25.244  1.00  0.00     0.079 C 
HETATM   22  C4  UNL     1      21.677  41.855  24.699  1.00  0.00     0.048 C 
BRANCH  21  23
HETATM   23  C2  UNL     1      21.974  40.441  26.733  1.00  0.00     0.035 C 
HETATM   24  C1  UNL     1      20.482  40.436  27.041  1.00  0.00     0.008 C 
ENDBRANCH  21  23
BRANCH  21  25
HETATM   25  O1  UNL     1      23.546  40.479  24.894  1.00  0.00    -0.388 OA
ATOM     26  H1  UNL     1      23.778  39.702  24.398  1.00  0.00     0.210 HD
ENDBRANCH  21  25
ENDBRANCH  19  21
ENDBRANCH  18  19
ENDBRANCH  17  18
ENDBRANCH  16  17
ENDBRANCH  15  16
ENDBRANCH  14  15
ENDBRANCH  13  14
ENDBRANCH   1  13
BRANCH  12  27
HETATM   27  N5  UNL     1      24.528  38.008  26.135  1.00  0.00    -0.382 N 
ATOM     28  H52 UNL     1      23.917  37.536  26.801  1.00  0.00     0.157 HD
ATOM     29  H51 UNL     1      24.514  39.026  26.063  1.00  0.00     0.157 HD
ENDBRANCH  12  27
BRANCH   8  30
HETATM   30  C14 UNL     1      27.865  41.138  23.566  1.00  0.00     0.106 C 
HETATM   31  C15 UNL     1      29.248  41.443  24.047  1.00  0.00     0.045 C 
HETATM   32  C16 UNL     1      29.959  42.112  22.885  1.00  0.00     0.004 C 
HETATM   33  C17 UNL     1      28.850  42.544  21.940  1.00  0.00     0.004 C 
HETATM   34  C18 UNL     1      27.881  41.412  22.070  1.00  0.00     0.045 C 
BRANCH  30  35
HETATM   35  O3  UNL     1      26.919  41.959  24.150  1.00  0.00    -0.383 OA
ATOM     36  H3  UNL     1      26.093  41.888  23.686  1.00  0.00     0.211 HD
ENDBRANCH  30  35
ENDBRANCH   8  30
TORSDOF 13
ENDMDL
MODEL 3
REMARK VINA RESULT: -7.790518212      2.466      3.667
REMARK  13 active torsions:
REMARK  status: ('A' for Active; 'I' for Inactive)
REMARK    1  A    between atoms: C2_2  and  C3_3 
REMARK    2  A    between atoms: C3_3  and  O1_5 
REMARK    3  A    between atoms: C3_3  and  C5_7 
REMARK    4  A    between atoms: C5_7  and  O2_9 
REMARK    5  A    between atoms: O2_9  and  C7_10 
REMARK    6  A    between atoms: C7_10  and  C8_11 
REMARK    7  A    between atoms: C8_11  and  C9_12 
REMARK    8  A    between atoms: C9_12  and  C10_13 
REMARK    9  A    between atoms: C10_13  and  C11_14 
REMARK   10  A    between atoms: C11_14  and  N1_15 
REMARK   11  A    between atoms: C13_22  and  C14_23 
REMARK   12  A    between atoms: C14_23  and  O3_24 
REMARK   13  A    between atoms: C20_33  and  N5_34 
ROOT
HETATM    1  N1  UNL     1      24.274  37.809  25.750  1.00  0.00    -0.261 N 
HETATM    2  N2  UNL     1      24.911  36.656  25.755  1.00  0.00    -0.238 N 
ATOM      3  H2  UNL     1      24.464  35.811  26.112  1.00  0.00     0.208 HD
HETATM    4  N3  UNL     1      26.164  36.624  25.277  1.00  0.00    -0.277 N 
ATOM      5  H3  UNL     1      26.684  35.746  25.267  1.00  0.00     0.189 HD
HETATM    6  C12 UNL     1      26.745  37.768  24.802  1.00  0.00     0.122 A 
HETATM    7  S1  UNL     1      28.273  38.200  24.113  1.00  0.00    -0.052 SA
HETATM    8  C13 UNL     1      27.975  39.861  23.865  1.00  0.00     0.088 A 
HETATM    9  N4  UNL     1      26.754  40.000  24.310  1.00  0.00    -0.346 N 
ATOM     10  H4  UNL     1      26.307  40.917  24.283  1.00  0.00     0.166 HD
HETATM   11  C19 UNL     1      26.105  38.978  24.785  1.00  0.00     0.114 A 
HETATM   12  C20 UNL     1      24.797  38.958  25.296  1.00  0.00     0.147 A 
ENDROOT
BRANCH   1  13
HETATM   13  C11 UNL     1      22.898  37.853  26.302  1.00  0.00     0.152 C 
BRANCH  13  14
HETATM   14  C10 UNL     1      21.928  37.350  25.246  1.00  0.00     0.022 C 
BRANCH  14  15
HETATM   15  C9  UNL     1      21.009  38.492  24.893  1.00  0.00     0.004 C 
BRANCH  15  16
HETATM   16  C8  UNL     1      20.711  39.305  26.126  1.00  0.00     0.026 C 
BRANCH  16  17
HETATM   17  C7  UNL     1      20.360  40.737  25.761  1.00  0.00     0.168 C 
BRANCH  17  18
HETATM   18  O2  UNL     1      21.211  41.092  24.732  1.00  0.00    -0.383 OA
BRANCH  18  19
HETATM   19  C5  UNL     1      20.860  42.295  24.138  1.00  0.00     0.151 C 
HETATM   20  C6  UNL     1      19.442  42.625  24.463  1.00  0.00     0.042 C 
BRANCH  19  21
HETATM   21  C3  UNL     1      21.104  42.098  22.637  1.00  0.00     0.079 C 
HETATM   22  C4  UNL     1      22.533  41.578  22.515  1.00  0.00     0.048 C 
BRANCH  21  23
HETATM   23  C2  UNL     1      20.119  41.053  22.166  1.00  0.00     0.035 C 
HETATM   24  C1  UNL     1      20.823  39.962  21.369  1.00  0.00     0.008 C 
ENDBRANCH  21  23
BRANCH  21  25
HETATM   25  O1  UNL     1      21.049  43.273  21.924  1.00  0.00    -0.388 OA
ATOM     26  H1  UNL     1      20.786  44.024  22.443  1.00  0.00     0.210 HD
ENDBRANCH  21  25
ENDBRANCH  19  21
ENDBRANCH  18  19
ENDBRANCH  17  18
ENDBRANCH  16  17
ENDBRANCH  15  16
ENDBRANCH  14  15
ENDBRANCH  13  14
ENDBRANCH   1  13
BRANCH  12  27
HETATM   27  N5  UNL     1      24.077  40.047  25.317  1.00  0.00    -0.382 N 
ATOM     28  H52 UNL     1      23.322  40.155  25.994  1.00  0.00     0.157 HD
ATOM     29  H51 UNL     1      24.282  40.799  24.660  1.00  0.00     0.157 HD
ENDBRANCH  12  27
BRANCH   8  30
HETATM   30  C14 UNL     1      28.837  40.932  23.297  1.00  0.00     0.106 C 
HETATM   31  C15 UNL     1      30.243  40.480  23.056  1.00  0.00     0.045 C 
HETATM   32  C16 UNL     1      30.549  40.809  21.606  1.00  0.00     0.004 C 
HETATM   33  C17 UNL     1      29.477  41.805  21.194  1.00  0.00     0.004 C 
HETATM   34  C18 UNL     1      28.280  41.286  21.926  1.00  0.00     0.045 C 
BRANCH  30  35
HETATM   35  O3  UNL     1      28.783  42.060  24.094  1.00  0.00    -0.383 OA
ATOM     36  H3  UNL     1      28.069  42.622  23.817  1.00  0.00     0.211 HD
ENDBRANCH  30  35
ENDBRANCH   8  30
TORSDOF 13
ENDMDL
MODEL 4
REMARK VINA RESULT: -7.719545521      2.509      3.754
REMARK  13 active torsions:
REMARK  status: ('A' for Active; 'I' for Inactive)
REMARK    1  A    between atoms: C2_2  and  C3_3 
REMARK    2  A    between atoms: C3_3  and  O1_5 
REMARK    3  A    between atoms: C3_3  and  C5_7 
REMARK    4  A    between atoms: C5_7  and  O2_9 
REMARK    5  A    between atoms: O2_9  and  C7_10 
REMARK    6  A    between atoms: C7_10  and  C8_11 
REMARK    7  A    between atoms: C8_11  and  C9_12 
REMARK    8  A    between atoms: C9_12  and  C10_13 
REMARK    9  A    between atoms: C10_13  and  C11_14 
REMARK   10  A    between atoms: C11_14  and  N1_15 
REMARK   11  A    between atoms: C13_22  and  C14_23 
REMARK   12  A    between atoms: C14_23  and  O3_24 
REMARK   13  A    between atoms: C20_33  and  N5_34 
ROOT
HETATM    1  N1  UNL     1      24.257  38.018  25.836  1.00  0.00    -0.261 N 
HETATM    2  N2  UNL     1      24.850  36.842  25.851  1.00  0.00    -0.238 N 
ATOM      3  H2  UNL     1      24.375  36.019  26.222  1.00  0.00     0.208 HD
HETATM    4  N3  UNL     1      26.097  36.758  25.363  1.00  0.00    -0.277 N 
ATOM      5  H3  UNL     1      26.584  35.861  25.361  1.00  0.00     0.189 HD
HETATM    6  C12 UNL     1      26.716  37.873  24.869  1.00  0.00     0.122 A 
HETATM    7  S1  UNL     1      28.254  38.239  24.163  1.00  0.00    -0.052 SA
HETATM    8  C13 UNL     1      28.016  39.907  23.897  1.00  0.00     0.088 A 
HETATM    9  N4  UNL     1      26.805  40.097  24.348  1.00  0.00    -0.346 N 
ATOM     10  H4  UNL     1      26.392  41.029  24.313  1.00  0.00     0.166 HD
HETATM   11  C19 UNL     1      26.122  39.106  24.841  1.00  0.00     0.114 A 
HETATM   12  C20 UNL     1      24.818  39.141  25.362  1.00  0.00     0.147 A 
ENDROOT
BRANCH   1  13
HETATM   13  C11 UNL     1      22.887  38.121  26.397  1.00  0.00     0.152 C 
BRANCH  13  14
HETATM   14  C10 UNL     1      21.912  37.460  25.438  1.00  0.00     0.022 C 
BRANCH  14  15
HETATM   15  C9  UNL     1      20.959  38.526  24.955  1.00  0.00     0.004 C 
BRANCH  15  16
HETATM   16  C8  UNL     1      20.747  39.548  26.042  1.00  0.00     0.026 C 
BRANCH  16  17
HETATM   17  C7  UNL     1      20.475  40.920  25.451  1.00  0.00     0.168 C 
BRANCH  17  18
HETATM   18  O2  UNL     1      21.604  41.260  24.729  1.00  0.00    -0.383 OA
BRANCH  18  19
HETATM   19  C5  UNL     1      21.368  42.274  23.813  1.00  0.00     0.151 C 
HETATM   20  C6  UNL     1      19.905  42.389  23.550  1.00  0.00     0.042 C 
BRANCH  19  21
HETATM   21  C3  UNL     1      22.177  41.896  22.566  1.00  0.00     0.079 C 
HETATM   22  C4  UNL     1      21.521  40.633  22.016  1.00  0.00     0.048 C 
BRANCH  21  23
HETATM   23  C2  UNL     1      22.030  43.037  21.586  1.00  0.00     0.035 C 
HETATM   24  C1  UNL     1      21.997  42.522  20.153  1.00  0.00     0.008 C 
ENDBRANCH  21  23
BRANCH  21  25
HETATM   25  O1  UNL     1      23.483  41.572  22.850  1.00  0.00    -0.388 OA
ATOM     26  H1  UNL     1      23.576  40.822  23.426  1.00  0.00     0.210 HD
ENDBRANCH  21  25
ENDBRANCH  19  21
ENDBRANCH  18  19
ENDBRANCH  17  18
ENDBRANCH  16  17
ENDBRANCH  15  16
ENDBRANCH  14  15
ENDBRANCH  13  14
ENDBRANCH   1  13
BRANCH  12  27
HETATM   27  N5  UNL     1      24.139  40.256  25.375  1.00  0.00    -0.382 N 
ATOM     28  H52 UNL     1      24.522  41.090  25.820  1.00  0.00     0.157 HD
ATOM     29  H51 UNL     1      23.225  40.294  24.923  1.00  0.00     0.157 HD
ENDBRANCH  12  27
BRANCH   8  30
HETATM   30  C14 UNL     1      28.912  40.938  23.308  1.00  0.00     0.106 C 
HETATM   31  C15 UNL     1      30.301  40.434  23.073  1.00  0.00     0.045 C 
HETATM   32  C16 UNL     1      30.615  40.727  21.617  1.00  0.00     0.004 C 
HETATM   33  C17 UNL     1      29.577  41.752  21.189  1.00  0.00     0.004 C 
HETATM   34  C18 UNL     1      28.364  41.286  21.932  1.00  0.00     0.045 C 
BRANCH  30  35
HETATM   35  O3  UNL     1      28.899  42.081  24.085  1.00  0.00    -0.383 OA
ATOM     36  H3  UNL     1      29.727  42.540  24.006  1.00  0.00     0.211 HD
ENDBRANCH  30  35
ENDBRANCH   8  30
TORSDOF 13
ENDMDL
MODEL 5
REMARK VINA RESULT: -7.623919050      3.089      4.715
REMARK  13 active torsions:
REMARK  status: ('A' for Active; 'I' for Inactive)
REMARK    1  A    between atoms: C2_2  and  C3_3 
REMARK    2  A    between atoms: C3_3  and  O1_5 
REMARK    3  A    between atoms: C3_3  and  C5_7 
REMARK    4  A    between atoms: C5_7  and  O2_9 
REMARK    5  A    between atoms: O2_9  and  C7_10 
REMARK    6  A    between atoms: C7_10  and  C8_11 
REMARK    7  A    between atoms: C8_11  and  C9_12 
REMARK    8  A    between atoms: C9_12  and  C10_13 
REMARK    9  A    between atoms: C10_13  and  C11_14 
REMARK   10  A    between atoms: C11_14  and  N1_15 
REMARK   11  A    between atoms: C13_22  and  C14_23 
REMARK   12  A    between atoms: C14_23  and  O3_24 
REMARK   13  A    between atoms: C20_33  and  N5_34 
ROOT
HETATM    1  N1  UNL     1      23.573  39.209  25.556  1.00  0.00    -0.261 N 
HETATM    2  N2  UNL     1      24.066  38.088  26.042  1.00  0.00    -0.238 N 
ATOM      3  H2  UNL     1      23.487  37.456  26.594  1.00  0.00     0.208 HD
HETATM    4  N3  UNL     1      25.352  37.802  25.788  1.00  0.00    -0.277 N 
ATOM      5  H3  UNL     1      25.764  36.942  26.151  1.00  0.00     0.189 HD
HETATM    6  C12 UNL     1      26.112  38.663  25.044  1.00  0.00     0.122 A 
HETATM    7  S1  UNL     1      27.747  38.716  24.479  1.00  0.00    -0.052 SA
HETATM    8  C13 UNL     1      27.674  40.202  23.644  1.00  0.00     0.088 A 
HETATM    9  N4  UNL     1      26.436  40.574  23.834  1.00  0.00    -0.346 N 
ATOM     10  H4  UNL     1      26.105  41.453  23.435  1.00  0.00     0.166 HD
HETATM   11  C19 UNL     1      25.624  39.833  24.527  1.00  0.00     0.114 A 
HETATM   12  C20 UNL     1      24.274  40.085  24.821  1.00  0.00     0.147 A 
ENDROOT
BRANCH   1  13
HETATM   13  C11 UNL     1      22.158  39.541  25.855  1.00  0.00     0.152 C 
BRANCH  13  14
HETATM   14  C10 UNL     1      22.039  39.908  27.324  1.00  0.00     0.022 C 
BRANCH  14  15
HETATM   15  C9  UNL     1      20.612  40.327  27.573  1.00  0.00     0.004 C 
BRANCH  15  16
HETATM   16  C8  UNL     1      19.857  40.359  26.269  1.00  0.00     0.026 C 
BRANCH  16  17
HETATM   17  C7  UNL     1      18.437  40.856  26.476  1.00  0.00     0.168 C 
BRANCH  17  18
HETATM   18  O2  UNL     1      17.752  39.823  27.089  1.00  0.00    -0.383 OA
BRANCH  18  19
HETATM   19  C5  UNL     1      16.411  39.788  26.739  1.00  0.00     0.151 C 
HETATM   20  C6  UNL     1      15.725  41.014  27.239  1.00  0.00     0.042 C 
BRANCH  19  21
HETATM   21  C3  UNL     1      15.860  38.496  27.354  1.00  0.00     0.079 C 
HETATM   22  C4  UNL     1      16.364  38.476  28.794  1.00  0.00     0.048 C 
BRANCH  21  23
HETATM   23  C2  UNL     1      14.353  38.604  27.323  1.00  0.00     0.035 C 
HETATM   24  C1  UNL     1      13.786  37.932  26.079  1.00  0.00     0.008 C 
ENDBRANCH  21  23
BRANCH  21  25
HETATM   25  O1  UNL     1      16.349  37.361  26.749  1.00  0.00    -0.388 OA
ATOM     26  H1  UNL     1      16.307  36.587  27.298  1.00  0.00     0.210 HD
ENDBRANCH  21  25
ENDBRANCH  19  21
ENDBRANCH  18  19
ENDBRANCH  17  18
ENDBRANCH  16  17
ENDBRANCH  15  16
ENDBRANCH  14  15
ENDBRANCH  13  14
ENDBRANCH   1  13
BRANCH  12  27
HETATM   27  N5  UNL     1      23.688  41.161  24.369  1.00  0.00    -0.382 N 
ATOM     28  H52 UNL     1      24.221  42.019  24.223  1.00  0.00     0.157 HD
ATOM     29  H51 UNL     1      22.693  41.137  24.148  1.00  0.00     0.157 HD
ENDBRANCH  12  27
BRANCH   8  30
HETATM   30  C14 UNL     1      28.713  40.942  22.879  1.00  0.00     0.106 C 
HETATM   31  C15 UNL     1      29.854  41.396  23.734  1.00  0.00     0.045 C 
HETATM   32  C16 UNL     1      31.114  40.879  23.065  1.00  0.00     0.004 C 
HETATM   33  C17 UNL     1      30.690  40.520  21.650  1.00  0.00     0.004 C 
HETATM   34  C18 UNL     1      29.315  39.971  21.874  1.00  0.00     0.045 C 
BRANCH  30  35
HETATM   35  O3  UNL     1      28.137  41.988  22.183  1.00  0.00    -0.383 OA
ATOM     36  H3  UNL     1      28.393  41.952  21.269  1.00  0.00     0.211 HD
ENDBRANCH  30  35
ENDBRANCH   8  30
TORSDOF 13
ENDMDL
