MODEL 1
REMARK VINA RESULT: -7.420808366      0.000      0.000
REMARK  8 active torsions:
REMARK  status: ('A' for Active; 'I' for Inactive)
REMARK    1  A    between atoms: C2_2  and  N1_3 
REMARK    2  A    between atoms: N1_3  and  C3_4 
REMARK    3  A    between atoms: N1_3  and  C5_6 
REMARK    4  A    between atoms: C9_10  and  N2_11 
REMARK    5  A    between atoms: N2_11  and  C10_13 
REMARK    6  A    between atoms: C10_13  and  C11_14 
REMARK    7  A    between atoms: C11_14  and  N3_15 
REMARK    8  A    between atoms: C13_22  and  N7_23 
ROOT
HETATM    1  C5  UNL     1      47.971  31.638  42.485  1.00  0.00     0.326 A 
HETATM    2  C6  UNL     1      48.213  32.947  41.922  1.00  0.00     0.085 A 
HETATM    3  C7  UNL     1      48.488  32.913  40.471  1.00  0.00    -0.004 A 
HETATM    4  C8  UNL     1      48.517  31.822  39.728  1.00  0.00     0.049 A 
HETATM    5  C9  UNL     1      48.783  31.867  38.365  1.00  0.00     0.130 A 
HETATM    6  N6  UNL     1      48.804  30.719  37.639  1.00  0.00    -0.176 N 
ATOM      7  H6  UNL     1      49.000  30.761  36.640  1.00  0.00     0.186 HD
HETATM    8  C13 UNL     1      48.569  29.529  38.220  1.00  0.00     0.680 A 
HETATM    9  N8  UNL     1      48.317  29.523  39.528  1.00  0.00    -0.176 N 
ATOM     10  H8  UNL     1      48.140  28.619  39.966  1.00  0.00     0.186 HD
HETATM   11  C15 UNL     1      48.278  30.619  40.326  1.00  0.00     0.132 A 
HETATM   12  N9  UNL     1      48.035  30.561  41.561  1.00  0.00    -0.345 N 
ATOM     13  H9  UNL     1      47.865  29.630  41.943  1.00  0.00     0.163 HD
ENDROOT
BRANCH   5  14
HETATM   14  N2  UNL     1      48.998  33.003  37.842  1.00  0.00    -0.373 N 
ATOM     15  H2  UNL     1      48.474  33.782  38.239  1.00  0.00     0.161 HD
BRANCH  14  16
HETATM   16  C10 UNL     1      49.878  33.329  36.771  1.00  0.00     0.141 C 
BRANCH  16  17
HETATM   17  C11 UNL     1      49.963  34.826  36.528  1.00  0.00     0.141 C 
BRANCH  17  18
HETATM   18  N3  UNL     1      51.162  35.393  37.067  1.00  0.00    -0.365 N 
HETATM   19  C12 UNL     1      51.390  35.742  38.266  1.00  0.00     0.197 C 
HETATM   20  N4  UNL     1      50.480  35.642  39.347  1.00  0.00    -0.067 NA
HETATM   21  N5  UNL     1      52.682  36.285  38.560  1.00  0.00    -0.067 NA
ATOM     22  H3  UNL     1      51.928  35.532  36.408  1.00  0.00     0.161 HD
ENDBRANCH  17  18
ENDBRANCH  16  17
ENDBRANCH  14  16
ENDBRANCH   5  14
BRANCH   8  23
HETATM   23  N7  UNL     1      48.593  28.451  37.507  1.00  0.00    -0.230 N 
HETATM   24  C14 UNL     1      49.383  27.294  37.864  1.00  0.00     0.165 C 
ATOM     25  H7  UNL     1      48.030  28.415  36.657  1.00  0.00     0.177 HD
ENDBRANCH   8  23
BRANCH   1  26
HETATM   26  N1  UNL     1      48.682  31.222  43.688  1.00  0.00     0.110 N 
BRANCH  26  27
HETATM   27  C2  UNL     1      48.167  31.610  44.935  1.00  0.00     0.270 C 
HETATM   28  C1  UNL     1      48.993  31.218  46.117  1.00  0.00     0.037 C 
ENDBRANCH  26  27
BRANCH  26  29
HETATM   29  C3  UNL     1      49.995  31.931  43.501  1.00  0.00     0.270 C 
HETATM   30  C4  UNL     1      51.056  30.989  43.035  1.00  0.00     0.037 C 
ENDBRANCH  26  29
ENDBRANCH   1  26
TORSDOF 8
ENDMDL
MODEL 2
REMARK VINA RESULT: -7.017134912      1.641      2.414
REMARK  8 active torsions:
REMARK  status: ('A' for Active; 'I' for Inactive)
REMARK    1  A    between atoms: C2_2  and  N1_3 
REMARK    2  A    between atoms: N1_3  and  C3_4 
REMARK    3  A    between atoms: N1_3  and  C5_6 
REMARK    4  A    between atoms: C9_10  and  N2_11 
REMARK    5  A    between atoms: N2_11  and  C10_13 
REMARK    6  A    between atoms: C10_13  and  C11_14 
REMARK    7  A    between atoms: C11_14  and  N3_15 
REMARK    8  A    between atoms: C13_22  and  N7_23 
ROOT
HETATM    1  C5  UNL     1      48.118  31.621  44.699  1.00  0.00     0.326 A 
HETATM    2  C6  UNL     1      48.521  32.983  44.435  1.00  0.00     0.085 A 
HETATM    3  C7  UNL     1      48.745  33.254  42.999  1.00  0.00    -0.004 A 
HETATM    4  C8  UNL     1      48.602  32.371  42.028  1.00  0.00     0.049 A 
HETATM    5  C9  UNL     1      48.831  32.699  40.698  1.00  0.00     0.130 A 
HETATM    6  N6  UNL     1      48.672  31.759  39.730  1.00  0.00    -0.176 N 
ATOM      7  H6  UNL     1      48.842  32.007  38.756  1.00  0.00     0.186 HD
HETATM    8  C13 UNL     1      48.293  30.506  40.039  1.00  0.00     0.680 A 
HETATM    9  N8  UNL     1      48.082  30.227  41.324  1.00  0.00    -0.176 N 
ATOM     10  H8  UNL     1      47.795  29.276  41.555  1.00  0.00     0.186 HD
HETATM   11  C15 UNL     1      48.217  31.102  42.350  1.00  0.00     0.132 A 
HETATM   12  N9  UNL     1      48.006  30.789  43.552  1.00  0.00    -0.345 N 
ATOM     13  H9  UNL     1      47.721  29.825  43.723  1.00  0.00     0.163 HD
ENDROOT
BRANCH   5  14
HETATM   14  N2  UNL     1      49.185  33.889  40.434  1.00  0.00    -0.373 N 
ATOM     15  H2  UNL     1      48.514  34.617  40.678  1.00  0.00     0.161 HD
BRANCH  14  16
HETATM   16  C10 UNL     1      50.398  34.337  39.840  1.00  0.00     0.141 C 
BRANCH  16  17
HETATM   17  C11 UNL     1      50.173  35.457  38.839  1.00  0.00     0.141 C 
BRANCH  17  18
HETATM   18  N3  UNL     1      51.403  36.042  38.398  1.00  0.00    -0.365 N 
HETATM   19  C12 UNL     1      51.805  37.233  38.565  1.00  0.00     0.197 C 
HETATM   20  N4  UNL     1      51.101  38.260  39.241  1.00  0.00    -0.067 NA
HETATM   21  N5  UNL     1      53.088  37.578  38.028  1.00  0.00    -0.067 NA
ATOM     22  H3  UNL     1      52.034  35.424  37.887  1.00  0.00     0.161 HD
ENDBRANCH  17  18
ENDBRANCH  16  17
ENDBRANCH  14  16
ENDBRANCH   5  14
BRANCH   8  23
HETATM   23  N7  UNL     1      48.147  29.630  39.099  1.00  0.00    -0.230 N 
HETATM   24  C14 UNL     1      48.747  29.776  37.792  1.00  0.00     0.165 C 
ATOM     25  H7  UNL     1      47.584  28.800  39.289  1.00  0.00     0.177 HD
ENDBRANCH   8  23
BRANCH   1  26
HETATM   26  N1  UNL     1      48.800  30.849  45.731  1.00  0.00     0.110 N 
BRANCH  26  27
HETATM   27  C2  UNL     1      48.181  30.715  46.983  1.00  0.00     0.270 C 
HETATM   28  C1  UNL     1      47.239  29.561  47.110  1.00  0.00     0.037 C 
ENDBRANCH  26  27
BRANCH  26  29
HETATM   29  C3  UNL     1      50.043  31.674  45.928  1.00  0.00     0.270 C 
HETATM   30  C4  UNL     1      50.751  31.293  47.185  1.00  0.00     0.037 C 
ENDBRANCH  26  29
ENDBRANCH   1  26
TORSDOF 8
ENDMDL
MODEL 3
REMARK VINA RESULT: -6.951943929      1.949      6.886
REMARK  8 active torsions:
REMARK  status: ('A' for Active; 'I' for Inactive)
REMARK    1  A    between atoms: C2_2  and  N1_3 
REMARK    2  A    between atoms: N1_3  and  C3_4 
REMARK    3  A    between atoms: N1_3  and  C5_6 
REMARK    4  A    between atoms: C9_10  and  N2_11 
REMARK    5  A    between atoms: N2_11  and  C10_13 
REMARK    6  A    between atoms: C10_13  and  C11_14 
REMARK    7  A    between atoms: C11_14  and  N3_15 
REMARK    8  A    between atoms: C13_22  and  N7_23 
ROOT
HETATM    1  C5  UNL     1      48.764  30.072  37.742  1.00  0.00     0.326 A 
HETATM    2  C6  UNL     1      48.637  29.403  39.016  1.00  0.00     0.085 A 
HETATM    3  C7  UNL     1      48.846  30.305  40.169  1.00  0.00    -0.004 A 
HETATM    4  C8  UNL     1      49.120  31.594  40.085  1.00  0.00     0.049 A 
HETATM    5  C9  UNL     1      49.303  32.381  41.215  1.00  0.00     0.130 A 
HETATM    6  N6  UNL     1      49.584  33.703  41.082  1.00  0.00    -0.176 N 
ATOM      7  H6  UNL     1      49.718  34.274  41.916  1.00  0.00     0.186 HD
HETATM    8  C13 UNL     1      49.688  34.270  39.868  1.00  0.00     0.680 A 
HETATM    9  N8  UNL     1      49.506  33.485  38.806  1.00  0.00    -0.176 N 
ATOM     10  H8  UNL     1      49.586  33.918  37.886  1.00  0.00     0.186 HD
HETATM   11  C15 UNL     1      49.223  32.161  38.848  1.00  0.00     0.132 A 
HETATM   12  N9  UNL     1      49.060  31.460  37.813  1.00  0.00    -0.345 N 
ATOM     13  H9  UNL     1      49.151  31.946  36.922  1.00  0.00     0.163 HD
ENDROOT
BRANCH   5  14
HETATM   14  N2  UNL     1      49.196  31.822  42.349  1.00  0.00    -0.373 N 
ATOM     15  H2  UNL     1      49.920  31.141  42.579  1.00  0.00     0.161 HD
BRANCH  14  16
HETATM   16  C10 UNL     1      48.196  32.023  43.341  1.00  0.00     0.141 C 
BRANCH  16  17
HETATM   17  C11 UNL     1      48.711  32.819  44.528  1.00  0.00     0.141 C 
BRANCH  17  18
HETATM   18  N3  UNL     1      48.963  31.987  45.667  1.00  0.00    -0.365 N 
HETATM   19  C12 UNL     1      49.986  31.276  45.902  1.00  0.00     0.197 C 
HETATM   20  N4  UNL     1      51.122  31.153  45.065  1.00  0.00    -0.067 NA
HETATM   21  N5  UNL     1      50.003  30.529  47.124  1.00  0.00    -0.067 NA
ATOM     22  H3  UNL     1      48.229  31.964  46.375  1.00  0.00     0.161 HD
ENDBRANCH  17  18
ENDBRANCH  16  17
ENDBRANCH  14  16
ENDBRANCH   5  14
BRANCH   8  23
HETATM   23  N7  UNL     1      49.955  35.531  39.768  1.00  0.00    -0.230 N 
HETATM   24  C14 UNL     1      50.832  36.068  38.752  1.00  0.00     0.165 C 
ATOM     25  H7  UNL     1      49.528  36.175  40.434  1.00  0.00     0.177 HD
ENDBRANCH   8  23
BRANCH   1  26
HETATM   26  N1  UNL     1      49.611  29.500  36.703  1.00  0.00     0.110 N 
BRANCH  26  27
HETATM   27  C2  UNL     1      51.000  29.484  36.907  1.00  0.00     0.270 C 
HETATM   28  C1  UNL     1      51.605  28.128  37.081  1.00  0.00     0.037 C 
ENDBRANCH  26  27
BRANCH  26  29
HETATM   29  C3  UNL     1      49.334  30.440  35.561  1.00  0.00     0.270 C 
HETATM   30  C4  UNL     1      48.725  29.720  34.405  1.00  0.00     0.037 C 
ENDBRANCH  26  29
ENDBRANCH   1  26
TORSDOF 8
ENDMDL
MODEL 4
REMARK VINA RESULT: -6.945463256      1.832      6.707
REMARK  8 active torsions:
REMARK  status: ('A' for Active; 'I' for Inactive)
REMARK    1  A    between atoms: C2_2  and  N1_3 
REMARK    2  A    between atoms: N1_3  and  C3_4 
REMARK    3  A    between atoms: N1_3  and  C5_6 
REMARK    4  A    between atoms: C9_10  and  N2_11 
REMARK    5  A    between atoms: N2_11  and  C10_13 
REMARK    6  A    between atoms: C10_13  and  C11_14 
REMARK    7  A    between atoms: C11_14  and  N3_15 
REMARK    8  A    between atoms: C13_22  and  N7_23 
ROOT
HETATM    1  C5  UNL     1      48.855  29.404  38.982  1.00  0.00     0.326 A 
HETATM    2  C6  UNL     1      48.927  29.109  40.395  1.00  0.00     0.085 A 
HETATM    3  C7  UNL     1      49.191  30.303  41.225  1.00  0.00    -0.004 A 
HETATM    4  C8  UNL     1      49.348  31.530  40.763  1.00  0.00     0.049 A 
HETATM    5  C9  UNL     1      49.593  32.607  41.605  1.00  0.00     0.130 A 
HETATM    6  N6  UNL     1      49.748  33.853  41.086  1.00  0.00    -0.176 N 
ATOM      7  H6  UNL     1      49.929  34.638  41.711  1.00  0.00     0.186 HD
HETATM    8  C13 UNL     1      49.668  34.065  39.761  1.00  0.00     0.680 A 
HETATM    9  N8  UNL     1      49.432  33.010  38.983  1.00  0.00    -0.176 N 
ATOM     10  H8  UNL     1      49.372  33.174  37.978  1.00  0.00     0.186 HD
HETATM   11  C15 UNL     1      49.264  31.737  39.416  1.00  0.00     0.132 A 
HETATM   12  N9  UNL     1      49.043  30.770  38.639  1.00  0.00    -0.345 N 
ATOM     13  H9  UNL     1      48.993  30.994  37.645  1.00  0.00     0.163 HD
ENDROOT
BRANCH   5  14
HETATM   14  N2  UNL     1      49.661  32.380  42.852  1.00  0.00    -0.373 N 
ATOM     15  H2  UNL     1      50.475  31.851  43.163  1.00  0.00     0.161 HD
BRANCH  14  16
HETATM   16  C10 UNL     1      48.746  32.768  43.871  1.00  0.00     0.141 C 
BRANCH  16  17
HETATM   17  C11 UNL     1      48.368  31.611  44.780  1.00  0.00     0.141 C 
BRANCH  17  18
HETATM   18  N3  UNL     1      49.105  31.626  46.007  1.00  0.00    -0.365 N 
HETATM   19  C12 UNL     1      50.335  31.369  46.181  1.00  0.00     0.197 C 
HETATM   20  N4  UNL     1      51.258  31.003  45.171  1.00  0.00    -0.067 NA
HETATM   21  N5  UNL     1      50.844  31.457  47.517  1.00  0.00    -0.067 NA
ATOM     22  H3  UNL     1      48.577  31.875  46.843  1.00  0.00     0.161 HD
ENDBRANCH  17  18
ENDBRANCH  16  17
ENDBRANCH  14  16
ENDBRANCH   5  14
BRANCH   8  23
HETATM   23  N7  UNL     1      49.818  35.261  39.292  1.00  0.00    -0.230 N 
HETATM   24  C14 UNL     1      50.949  35.645  38.476  1.00  0.00     0.165 C 
ATOM     25  H7  UNL     1      49.110  35.962  39.507  1.00  0.00     0.177 HD
ENDBRANCH   8  23
BRANCH   1  26
HETATM   26  N1  UNL     1      49.623  28.608  38.033  1.00  0.00     0.110 N 
BRANCH  26  27
HETATM   27  C2  UNL     1      49.345  28.749  36.665  1.00  0.00     0.270 C 
HETATM   28  C1  UNL     1      50.537  28.967  35.790  1.00  0.00     0.037 C 
ENDBRANCH  26  27
BRANCH  26  29
HETATM   29  C3  UNL     1      49.215  27.217  38.435  1.00  0.00     0.270 C 
HETATM   30  C4  UNL     1      50.400  26.316  38.541  1.00  0.00     0.037 C 
ENDBRANCH  26  29
ENDBRANCH   1  26
TORSDOF 8
ENDMDL
MODEL 5
REMARK VINA RESULT: -6.928774027      1.925      2.894
REMARK  8 active torsions:
REMARK  status: ('A' for Active; 'I' for Inactive)
REMARK    1  A    between atoms: C2_2  and  N1_3 
REMARK    2  A    between atoms: N1_3  and  C3_4 
REMARK    3  A    between atoms: N1_3  and  C5_6 
REMARK    4  A    between atoms: C9_10  and  N2_11 
REMARK    5  A    between atoms: N2_11  and  C10_13 
REMARK    6  A    between atoms: C10_13  and  C11_14 
REMARK    7  A    between atoms: C11_14  and  N3_15 
REMARK    8  A    between atoms: C13_22  and  N7_23 
ROOT
HETATM    1  C5  UNL     1      47.985  31.705  42.280  1.00  0.00     0.326 A 
HETATM    2  C6  UNL     1      48.256  32.990  41.678  1.00  0.00     0.085 A 
HETATM    3  C7  UNL     1      48.545  32.904  40.231  1.00  0.00    -0.004 A 
HETATM    4  C8  UNL     1      48.562  31.788  39.524  1.00  0.00     0.049 A 
HETATM    5  C9  UNL     1      48.841  31.784  38.164  1.00  0.00     0.130 A 
HETATM    6  N6  UNL     1      48.849  30.612  37.476  1.00  0.00    -0.176 N 
ATOM      7  H6  UNL     1      49.055  30.617  36.478  1.00  0.00     0.186 HD
HETATM    8  C13 UNL     1      48.587  29.447  38.093  1.00  0.00     0.680 A 
HETATM    9  N8  UNL     1      48.322  29.488  39.398  1.00  0.00    -0.176 N 
ATOM     10  H8  UNL     1      48.124  28.602  39.863  1.00  0.00     0.186 HD
HETATM   11  C15 UNL     1      48.294  30.610  40.159  1.00  0.00     0.132 A 
HETATM   12  N9  UNL     1      48.039  30.597  41.392  1.00  0.00    -0.345 N 
ATOM     13  H9  UNL     1      47.848  29.683  41.803  1.00  0.00     0.163 HD
ENDROOT
BRANCH   5  14
HETATM   14  N2  UNL     1      49.082  32.898  37.606  1.00  0.00    -0.373 N 
ATOM     15  H2  UNL     1      48.772  33.726  38.114  1.00  0.00     0.161 HD
BRANCH  14  16
HETATM   16  C10 UNL     1      49.730  33.140  36.362  1.00  0.00     0.141 C 
BRANCH  16  17
HETATM   17  C11 UNL     1      48.906  34.027  35.444  1.00  0.00     0.141 C 
BRANCH  17  18
HETATM   18  N3  UNL     1      47.840  33.309  34.813  1.00  0.00    -0.365 N 
HETATM   19  C12 UNL     1      47.279  33.561  33.704  1.00  0.00     0.197 C 
HETATM   20  N4  UNL     1      47.599  34.634  32.837  1.00  0.00    -0.067 NA
HETATM   21  N5  UNL     1      46.229  32.683  33.282  1.00  0.00    -0.067 NA
ATOM     22  H3  UNL     1      47.490  32.494  35.317  1.00  0.00     0.161 HD
ENDBRANCH  17  18
ENDBRANCH  16  17
ENDBRANCH  14  16
ENDBRANCH   5  14
BRANCH   8  23
HETATM   23  N7  UNL     1      48.598  28.345  37.416  1.00  0.00    -0.230 N 
HETATM   24  C14 UNL     1      49.413  27.209  37.783  1.00  0.00     0.165 C 
ATOM     25  H7  UNL     1      48.006  28.275  36.588  1.00  0.00     0.177 HD
ENDBRANCH   8  23
BRANCH   1  26
HETATM   26  N1  UNL     1      48.676  31.316  43.503  1.00  0.00     0.110 N 
BRANCH  26  27
HETATM   27  C2  UNL     1      48.164  31.765  44.731  1.00  0.00     0.270 C 
HETATM   28  C1  UNL     1      48.923  31.324  45.940  1.00  0.00     0.037 C 
ENDBRANCH  26  27
BRANCH  26  29
HETATM   29  C3  UNL     1      50.010  31.981  43.300  1.00  0.00     0.270 C 
HETATM   30  C4  UNL     1      51.058  30.987  42.925  1.00  0.00     0.037 C 
ENDBRANCH  26  29
ENDBRANCH   1  26
TORSDOF 8
ENDMDL
