MODEL 1
REMARK VINA RESULT: -5.919978608      0.000      0.000
REMARK  14 active torsions:
REMARK  status: ('A' for Active; 'I' for Inactive)
REMARK    1  A    between atoms: C2_2  and  C3_3 
REMARK    2  A    between atoms: C3_3  and  C4_4 
REMARK    3  A    between atoms: C5_5  and  C6_6 
REMARK    4  A    between atoms: C6_6  and  C7_7 
REMARK    5  A    between atoms: C7_7  and  C8_8 
REMARK    6  A    between atoms: C8_8  and  C9_9 
REMARK    7  A    between atoms: C11_13  and  N2_14 
REMARK    8  A    between atoms: N2_14  and  C12_16 
REMARK    9  A    between atoms: C12_16  and  C13_17 
REMARK   10  A    between atoms: C13_17  and  N3_18 
REMARK   11  A    between atoms: C14_24  and  N5_25 
REMARK   12  A    between atoms: N5_25  and  C15_27 
REMARK   13  A    between atoms: C15_27  and  C16_28 
REMARK   14  A    between atoms: C16_28  and  O1_29 
ROOT
HETATM    1  C4  UNL     1      90.578  72.943  29.822  1.00  0.00     0.031 A 
HETATM    2  C5  UNL     1      91.553  72.262  29.165  1.00  0.00     0.059 A 
HETATM    3  N1  UNL     1      91.231  71.343  28.221  1.00  0.00    -0.191 N 
ATOM      4  H1  UNL     1      91.989  70.853  27.746  1.00  0.00     0.184 HD
HETATM    5  C11 UNL     1      89.974  71.045  27.881  1.00  0.00     0.680 A 
HETATM    6  N4  UNL     1      88.985  71.681  28.494  1.00  0.00    -0.176 N 
ATOM      7  H4  UNL     1      88.017  71.469  28.249  1.00  0.00     0.186 HD
HETATM    8  C14 UNL     1      89.245  72.593  29.427  1.00  0.00     0.129 A 
ENDROOT
BRANCH   5   9
HETATM    9  N2  UNL     1      89.730  70.150  26.963  1.00  0.00    -0.224 N 
ATOM     10  H2  UNL     1      88.780  69.805  26.827  1.00  0.00     0.177 HD
BRANCH   9  11
HETATM   11  C12 UNL     1      90.793  69.654  26.149  1.00  0.00     0.165 C 
BRANCH  11  12
HETATM   12  C13 UNL     1      90.806  70.265  24.767  1.00  0.00     0.249 C 
BRANCH  12  13
HETATM   13  N3  UNL     1      89.478  70.173  24.226  1.00  0.00    -0.078 N 
ATOM     14  H33 UNL     1      88.889  69.515  24.738  1.00  0.00     0.274 HD
ATOM     15  H32 UNL     1      88.924  71.012  24.395  1.00  0.00     0.274 HD
ATOM     16  H31 UNL     1      89.554  69.945  23.235  1.00  0.00     0.274 HD
ENDBRANCH  12  13
ENDBRANCH  11  12
ENDBRANCH   9  11
ENDBRANCH   5   9
BRANCH   2  17
HETATM   17  C6  UNL     1      92.827  72.414  29.421  1.00  0.00     0.004 C 
BRANCH  17  18
HETATM   18  C7  UNL     1      93.621  71.157  29.771  1.00  0.00     0.029 C 
BRANCH  18  19
HETATM   19  C8  UNL     1      93.729  71.094  31.290  1.00  0.00     0.003 C 
BRANCH  19  20
HETATM   20  C9  UNL     1      94.173  72.453  31.753  1.00  0.00    -0.004 C 
HETATM   21  C10 UNL     1      94.838  72.280  33.113  1.00  0.00     0.005 C 
ENDBRANCH  19  20
ENDBRANCH  18  19
ENDBRANCH  17  18
ENDBRANCH   2  17
BRANCH   8  22
HETATM   22  N5  UNL     1      88.302  73.228  30.043  1.00  0.00    -0.373 N 
ATOM     23  H5  UNL     1      88.139  73.042  31.032  1.00  0.00     0.161 HD
BRANCH  22  24
HETATM   24  C15 UNL     1      87.484  74.185  29.369  1.00  0.00     0.147 C 
BRANCH  24  25
HETATM   25  C16 UNL     1      87.413  75.471  30.136  1.00  0.00     0.183 C 
BRANCH  25  26
HETATM   26  O1  UNL     1      87.700  76.556  29.314  1.00  0.00    -0.399 OA
ATOM     27  H1  UNL     1      88.605  76.828  29.415  1.00  0.00     0.209 HD
ENDBRANCH  25  26
ENDBRANCH  24  25
ENDBRANCH  22  24
ENDBRANCH   8  22
BRANCH   1  28
HETATM   28  C3  UNL     1      90.724  73.855  30.693  1.00  0.00    -0.010 C 
BRANCH  28  29
HETATM   29  C2  UNL     1      90.759  73.916  32.131  1.00  0.00     0.023 C 
HETATM   30  C1  UNL     1      90.623  72.495  32.754  1.00  0.00     0.009 C 
ENDBRANCH  28  29
ENDBRANCH   1  28
TORSDOF 14
ENDMDL
MODEL 2
REMARK VINA RESULT: -5.885609982      1.215      1.307
REMARK  14 active torsions:
REMARK  status: ('A' for Active; 'I' for Inactive)
REMARK    1  A    between atoms: C2_2  and  C3_3 
REMARK    2  A    between atoms: C3_3  and  C4_4 
REMARK    3  A    between atoms: C5_5  and  C6_6 
REMARK    4  A    between atoms: C6_6  and  C7_7 
REMARK    5  A    between atoms: C7_7  and  C8_8 
REMARK    6  A    between atoms: C8_8  and  C9_9 
REMARK    7  A    between atoms: C11_13  and  N2_14 
REMARK    8  A    between atoms: N2_14  and  C12_16 
REMARK    9  A    between atoms: C12_16  and  C13_17 
REMARK   10  A    between atoms: C13_17  and  N3_18 
REMARK   11  A    between atoms: C14_24  and  N5_25 
REMARK   12  A    between atoms: N5_25  and  C15_27 
REMARK   13  A    between atoms: C15_27  and  C16_28 
REMARK   14  A    between atoms: C16_28  and  O1_29 
ROOT
HETATM    1  C4  UNL     1      89.681  72.622  29.776  1.00  0.00     0.031 A 
HETATM    2  C5  UNL     1      90.447  72.010  28.834  1.00  0.00     0.059 A 
HETATM    3  N1  UNL     1      89.908  71.074  28.015  1.00  0.00    -0.191 N 
ATOM      4  H1  UNL     1      90.511  70.637  27.318  1.00  0.00     0.184 HD
HETATM    5  C11 UNL     1      88.628  70.693  28.072  1.00  0.00     0.680 A 
HETATM    6  N4  UNL     1      87.839  71.260  28.975  1.00  0.00    -0.176 N 
ATOM      7  H4  UNL     1      86.858  70.984  29.035  1.00  0.00     0.186 HD
HETATM    8  C14 UNL     1      88.316  72.185  29.803  1.00  0.00     0.129 A 
ENDROOT
BRANCH   5   9
HETATM    9  N2  UNL     1      88.169  69.786  27.254  1.00  0.00    -0.224 N 
ATOM     10  H2  UNL     1      87.185  69.519  27.288  1.00  0.00     0.177 HD
BRANCH   9  11
HETATM   11  C12 UNL     1      89.045  69.167  26.311  1.00  0.00     0.165 C 
BRANCH  11  12
HETATM   12  C13 UNL     1      88.480  69.152  24.909  1.00  0.00     0.249 C 
BRANCH  12  13
HETATM   13  N3  UNL     1      89.045  70.259  24.188  1.00  0.00    -0.078 N 
ATOM     14  H33 UNL     1      89.662  70.831  24.765  1.00  0.00     0.274 HD
ATOM     15  H32 UNL     1      89.735  69.968  23.496  1.00  0.00     0.274 HD
ATOM     16  H31 UNL     1      88.279  70.794  23.778  1.00  0.00     0.274 HD
ENDBRANCH  12  13
ENDBRANCH  11  12
ENDBRANCH   9  11
ENDBRANCH   5   9
BRANCH   2  17
HETATM   17  C6  UNL     1      91.725  72.247  28.689  1.00  0.00     0.004 C 
BRANCH  17  18
HETATM   18  C7  UNL     1      92.691  71.346  29.456  1.00  0.00     0.029 C 
BRANCH  18  19
HETATM   19  C8  UNL     1      93.776  72.239  30.046  1.00  0.00     0.003 C 
BRANCH  19  20
HETATM   20  C9  UNL     1      94.452  71.446  31.129  1.00  0.00    -0.004 C 
HETATM   21  C10 UNL     1      94.438  72.293  32.396  1.00  0.00     0.005 C 
ENDBRANCH  19  20
ENDBRANCH  18  19
ENDBRANCH  17  18
ENDBRANCH   2  17
BRANCH   8  22
HETATM   22  N5  UNL     1      87.572  72.754  30.694  1.00  0.00    -0.373 N 
ATOM     23  H5  UNL     1      87.832  72.686  31.677  1.00  0.00     0.161 HD
BRANCH  22  24
HETATM   24  C15 UNL     1      86.394  73.475  30.331  1.00  0.00     0.147 C 
BRANCH  24  25
HETATM   25  C16 UNL     1      86.692  74.930  30.129  1.00  0.00     0.183 C 
BRANCH  25  26
HETATM   26  O1  UNL     1      87.165  75.168  28.843  1.00  0.00    -0.399 OA
ATOM     27  H1  UNL     1      86.627  75.810  28.396  1.00  0.00     0.209 HD
ENDBRANCH  25  26
ENDBRANCH  24  25
ENDBRANCH  22  24
ENDBRANCH   8  22
BRANCH   1  28
HETATM   28  C3  UNL     1      90.031  73.540  30.580  1.00  0.00    -0.010 C 
BRANCH  28  29
HETATM   29  C2  UNL     1      90.721  73.602  31.842  1.00  0.00     0.023 C 
HETATM   30  C1  UNL     1      90.668  72.228  32.575  1.00  0.00     0.009 C 
ENDBRANCH  28  29
ENDBRANCH   1  28
TORSDOF 14
ENDMDL
MODEL 3
REMARK VINA RESULT: -5.719795607      1.032      1.174
REMARK  14 active torsions:
REMARK  status: ('A' for Active; 'I' for Inactive)
REMARK    1  A    between atoms: C2_2  and  C3_3 
REMARK    2  A    between atoms: C3_3  and  C4_4 
REMARK    3  A    between atoms: C5_5  and  C6_6 
REMARK    4  A    between atoms: C6_6  and  C7_7 
REMARK    5  A    between atoms: C7_7  and  C8_8 
REMARK    6  A    between atoms: C8_8  and  C9_9 
REMARK    7  A    between atoms: C11_13  and  N2_14 
REMARK    8  A    between atoms: N2_14  and  C12_16 
REMARK    9  A    between atoms: C12_16  and  C13_17 
REMARK   10  A    between atoms: C13_17  and  N3_18 
REMARK   11  A    between atoms: C14_24  and  N5_25 
REMARK   12  A    between atoms: N5_25  and  C15_27 
REMARK   13  A    between atoms: C15_27  and  C16_28 
REMARK   14  A    between atoms: C16_28  and  O1_29 
ROOT
HETATM    1  C4  UNL     1      91.306  72.437  29.803  1.00  0.00     0.031 A 
HETATM    2  C5  UNL     1      92.240  71.467  29.617  1.00  0.00     0.059 A 
HETATM    3  N1  UNL     1      92.054  70.507  28.678  1.00  0.00    -0.191 N 
ATOM      4  H1  UNL     1      92.776  69.797  28.563  1.00  0.00     0.184 HD
HETATM    5  C11 UNL     1      90.973  70.442  27.894  1.00  0.00     0.680 A 
HETATM    6  N4  UNL     1      90.031  71.365  28.037  1.00  0.00    -0.176 N 
ATOM      7  H4  UNL     1      89.198  71.334  27.449  1.00  0.00     0.186 HD
HETATM    8  C14 UNL     1      90.164  72.330  28.943  1.00  0.00     0.129 A 
ENDROOT
BRANCH   5   9
HETATM    9  N2  UNL     1      90.853  69.492  27.008  1.00  0.00    -0.224 N 
ATOM     10  H2  UNL     1      90.769  68.521  27.309  1.00  0.00     0.177 HD
BRANCH   9  11
HETATM   11  C12 UNL     1      90.840  69.812  25.616  1.00  0.00     0.165 C 
BRANCH  11  12
HETATM   12  C13 UNL     1      89.654  69.220  24.890  1.00  0.00     0.249 C 
BRANCH  12  13
HETATM   13  N3  UNL     1      89.038  70.262  24.116  1.00  0.00    -0.078 N 
ATOM     14  H33 UNL     1      88.321  70.768  24.637  1.00  0.00     0.274 HD
ATOM     15  H32 UNL     1      89.664  71.049  23.946  1.00  0.00     0.274 HD
ATOM     16  H31 UNL     1      88.682  69.849  23.254  1.00  0.00     0.274 HD
ENDBRANCH  12  13
ENDBRANCH  11  12
ENDBRANCH   9  11
ENDBRANCH   5   9
BRANCH   2  17
HETATM   17  C6  UNL     1      93.328  71.376  30.338  1.00  0.00     0.004 C 
BRANCH  17  18
HETATM   18  C7  UNL     1      93.348  70.312  31.434  1.00  0.00     0.029 C 
BRANCH  18  19
HETATM   19  C8  UNL     1      94.496  70.652  32.377  1.00  0.00     0.003 C 
BRANCH  19  20
HETATM   20  C9  UNL     1      94.419  72.129  32.645  1.00  0.00    -0.004 C 
HETATM   21  C10 UNL     1      95.551  72.482  33.603  1.00  0.00     0.005 C 
ENDBRANCH  19  20
ENDBRANCH  18  19
ENDBRANCH  17  18
ENDBRANCH   2  17
BRANCH   8  22
HETATM   22  N5  UNL     1      89.263  73.242  29.107  1.00  0.00    -0.373 N 
ATOM     23  H5  UNL     1      89.456  74.194  28.798  1.00  0.00     0.161 HD
BRANCH  22  24
HETATM   24  C15 UNL     1      88.003  72.945  29.709  1.00  0.00     0.147 C 
BRANCH  24  25
HETATM   25  C16 UNL     1      87.201  74.192  29.929  1.00  0.00     0.183 C 
BRANCH  25  26
HETATM   26  O1  UNL     1      87.381  75.091  28.883  1.00  0.00    -0.399 OA
ATOM     27  H1  UNL     1      86.780  75.822  28.956  1.00  0.00     0.209 HD
ENDBRANCH  25  26
ENDBRANCH  24  25
ENDBRANCH  22  24
ENDBRANCH   8  22
BRANCH   1  28
HETATM   28  C3  UNL     1      91.360  73.418  30.608  1.00  0.00    -0.010 C 
BRANCH  28  29
HETATM   29  C2  UNL     1      90.868  73.697  31.931  1.00  0.00     0.023 C 
HETATM   30  C1  UNL     1      90.521  72.381  32.688  1.00  0.00     0.009 C 
ENDBRANCH  28  29
ENDBRANCH   1  28
TORSDOF 14
ENDMDL
MODEL 4
REMARK VINA RESULT: -5.584855982      2.939      4.937
REMARK  14 active torsions:
REMARK  status: ('A' for Active; 'I' for Inactive)
REMARK    1  A    between atoms: C2_2  and  C3_3 
REMARK    2  A    between atoms: C3_3  and  C4_4 
REMARK    3  A    between atoms: C5_5  and  C6_6 
REMARK    4  A    between atoms: C6_6  and  C7_7 
REMARK    5  A    between atoms: C7_7  and  C8_8 
REMARK    6  A    between atoms: C8_8  and  C9_9 
REMARK    7  A    between atoms: C11_13  and  N2_14 
REMARK    8  A    between atoms: N2_14  and  C12_16 
REMARK    9  A    between atoms: C12_16  and  C13_17 
REMARK   10  A    between atoms: C13_17  and  N3_18 
REMARK   11  A    between atoms: C14_24  and  N5_25 
REMARK   12  A    between atoms: N5_25  and  C15_27 
REMARK   13  A    between atoms: C15_27  and  C16_28 
REMARK   14  A    between atoms: C16_28  and  O1_29 
ROOT
HETATM    1  C4  UNL     1      88.959  71.415  29.804  1.00  0.00     0.031 A 
HETATM    2  C5  UNL     1      89.605  72.538  29.394  1.00  0.00     0.059 A 
HETATM    3  N1  UNL     1      88.966  73.734  29.390  1.00  0.00    -0.191 N 
ATOM      4  H1  UNL     1      89.482  74.556  29.079  1.00  0.00     0.184 HD
HETATM    5  C11 UNL     1      87.695  73.892  29.772  1.00  0.00     0.680 A 
HETATM    6  N4  UNL     1      87.019  72.826  30.179  1.00  0.00    -0.176 N 
ATOM      7  H4  UNL     1      86.048  72.925  30.475  1.00  0.00     0.186 HD
HETATM    8  C14 UNL     1      87.599  71.629  30.204  1.00  0.00     0.129 A 
ENDROOT
BRANCH   5   9
HETATM    9  N2  UNL     1      87.136  75.071  29.745  1.00  0.00    -0.224 N 
ATOM     10  H2  UNL     1      87.495  75.791  29.118  1.00  0.00     0.177 HD
BRANCH   9  11
HETATM   11  C12 UNL     1      86.023  75.353  30.594  1.00  0.00     0.165 C 
BRANCH  11  12
HETATM   12  C13 UNL     1      84.735  75.543  29.825  1.00  0.00     0.249 C 
BRANCH  12  13
HETATM   13  N3  UNL     1      83.667  75.695  30.775  1.00  0.00    -0.078 N 
ATOM     14  H33 UNL     1      83.440  76.672  30.958  1.00  0.00     0.274 HD
ATOM     15  H32 UNL     1      82.762  75.412  30.400  1.00  0.00     0.274 HD
ATOM     16  H31 UNL     1      83.920  75.183  31.620  1.00  0.00     0.274 HD
ENDBRANCH  12  13
ENDBRANCH  11  12
ENDBRANCH   9  11
ENDBRANCH   5   9
BRANCH   2  17
HETATM   17  C6  UNL     1      90.836  72.532  28.952  1.00  0.00     0.004 C 
BRANCH  17  18
HETATM   18  C7  UNL     1      91.912  73.093  29.879  1.00  0.00     0.029 C 
BRANCH  18  19
HETATM   19  C8  UNL     1      93.246  72.500  29.440  1.00  0.00     0.003 C 
BRANCH  19  20
HETATM   20  C9  UNL     1      93.656  71.516  30.499  1.00  0.00    -0.004 C 
HETATM   21  C10 UNL     1      93.574  72.227  31.844  1.00  0.00     0.005 C 
ENDBRANCH  19  20
ENDBRANCH  18  19
ENDBRANCH  17  18
ENDBRANCH   2  17
BRANCH   8  22
HETATM   22  N5  UNL     1      86.966  70.572  30.595  1.00  0.00    -0.373 N 
ATOM     23  H5  UNL     1      87.433  69.912  31.215  1.00  0.00     0.161 HD
BRANCH  22  24
HETATM   24  C15 UNL     1      85.626  70.309  30.178  1.00  0.00     0.147 C 
BRANCH  24  25
HETATM   25  C16 UNL     1      85.587  69.810  28.765  1.00  0.00     0.183 C 
BRANCH  25  26
HETATM   26  O1  UNL     1      84.829  70.655  27.960  1.00  0.00    -0.399 OA
ATOM     27  H1  UNL     1      85.335  70.958  27.215  1.00  0.00     0.209 HD
ENDBRANCH  25  26
ENDBRANCH  24  25
ENDBRANCH  22  24
ENDBRANCH   8  22
BRANCH   1  28
HETATM   28  C3  UNL     1      89.433  70.242  29.903  1.00  0.00    -0.010 C 
BRANCH  28  29
HETATM   29  C2  UNL     1      90.439  69.597  30.706  1.00  0.00     0.023 C 
HETATM   30  C1  UNL     1      90.451  70.173  32.154  1.00  0.00     0.009 C 
ENDBRANCH  28  29
ENDBRANCH   1  28
TORSDOF 14
ENDMDL
MODEL 5
REMARK VINA RESULT: -5.580686806      1.485      1.588
REMARK  14 active torsions:
REMARK  status: ('A' for Active; 'I' for Inactive)
REMARK    1  A    between atoms: C2_2  and  C3_3 
REMARK    2  A    between atoms: C3_3  and  C4_4 
REMARK    3  A    between atoms: C5_5  and  C6_6 
REMARK    4  A    between atoms: C6_6  and  C7_7 
REMARK    5  A    between atoms: C7_7  and  C8_8 
REMARK    6  A    between atoms: C8_8  and  C9_9 
REMARK    7  A    between atoms: C11_13  and  N2_14 
REMARK    8  A    between atoms: N2_14  and  C12_16 
REMARK    9  A    between atoms: C12_16  and  C13_17 
REMARK   10  A    between atoms: C13_17  and  N3_18 
REMARK   11  A    between atoms: C14_24  and  N5_25 
REMARK   12  A    between atoms: N5_25  and  C15_27 
REMARK   13  A    between atoms: C15_27  and  C16_28 
REMARK   14  A    between atoms: C16_28  and  O1_29 
ROOT
HETATM    1  C4  UNL     1      89.939  72.654  29.672  1.00  0.00     0.031 A 
HETATM    2  C5  UNL     1      90.980  72.303  28.873  1.00  0.00     0.059 A 
HETATM    3  N1  UNL     1      90.818  71.361  27.911  1.00  0.00    -0.191 N 
ATOM      4  H1  UNL     1      91.621  71.124  27.328  1.00  0.00     0.184 HD
HETATM    5  C11 UNL     1      89.663  70.727  27.686  1.00  0.00     0.680 A 
HETATM    6  N4  UNL     1      88.616  71.033  28.440  1.00  0.00    -0.176 N 
ATOM      7  H4  UNL     1      87.725  70.562  28.285  1.00  0.00     0.186 HD
HETATM    8  C14 UNL     1      88.720  71.951  29.397  1.00  0.00     0.129 A 
ENDROOT
BRANCH   5   9
HETATM    9  N2  UNL     1      89.572  69.830  26.743  1.00  0.00    -0.224 N 
ATOM     10  H2  UNL     1      88.680  69.371  26.559  1.00  0.00     0.177 HD
BRANCH   9  11
HETATM   11  C12 UNL     1      90.723  69.491  25.967  1.00  0.00     0.165 C 
BRANCH  11  12
HETATM   12  C13 UNL     1      90.713  70.129  24.597  1.00  0.00     0.249 C 
BRANCH  12  13
HETATM   13  N3  UNL     1      89.354  70.169  24.133  1.00  0.00    -0.078 N 
ATOM     14  H33 UNL     1      89.249  69.801  23.187  1.00  0.00     0.274 HD
ATOM     15  H32 UNL     1      88.755  69.495  24.609  1.00  0.00     0.274 HD
ATOM     16  H31 UNL     1      89.017  71.127  24.224  1.00  0.00     0.274 HD
ENDBRANCH  12  13
ENDBRANCH  11  12
ENDBRANCH   9  11
ENDBRANCH   5   9
BRANCH   2  17
HETATM   17  C6  UNL     1      92.181  72.804  29.003  1.00  0.00     0.004 C 
BRANCH  17  18
HETATM   18  C7  UNL     1      93.234  71.924  29.674  1.00  0.00     0.029 C 
BRANCH  18  19
HETATM   19  C8  UNL     1      93.732  72.670  30.907  1.00  0.00     0.003 C 
BRANCH  19  20
HETATM   20  C9  UNL     1      94.158  71.630  31.904  1.00  0.00    -0.004 C 
HETATM   21  C10 UNL     1      94.891  72.346  33.032  1.00  0.00     0.005 C 
ENDBRANCH  19  20
ENDBRANCH  18  19
ENDBRANCH  17  18
ENDBRANCH   2  17
BRANCH   8  22
HETATM   22  N5  UNL     1      87.718  72.270  30.149  1.00  0.00    -0.373 N 
ATOM     23  H5  UNL     1      87.773  73.111  30.723  1.00  0.00     0.161 HD
BRANCH  22  24
HETATM   24  C15 UNL     1      86.535  71.471  30.194  1.00  0.00     0.147 C 
BRANCH  24  25
HETATM   25  C16 UNL     1      85.345  72.288  30.595  1.00  0.00     0.183 C 
BRANCH  25  26
HETATM   26  O1  UNL     1      84.793  72.937  29.495  1.00  0.00    -0.399 OA
ATOM     27  H1  UNL     1      83.878  72.703  29.388  1.00  0.00     0.209 HD
ENDBRANCH  25  26
ENDBRANCH  24  25
ENDBRANCH  22  24
ENDBRANCH   8  22
BRANCH   1  28
HETATM   28  C3  UNL     1      89.926  73.542  30.580  1.00  0.00    -0.010 C 
BRANCH  28  29
HETATM   29  C2  UNL     1      90.348  73.621  31.954  1.00  0.00     0.023 C 
HETATM   30  C1  UNL     1      90.461  72.202  32.587  1.00  0.00     0.009 C 
ENDBRANCH  28  29
ENDBRANCH   1  28
TORSDOF 14
ENDMDL
