MODEL 1
REMARK VINA RESULT: -6.696335211      0.000      0.000
REMARK  3 active torsions:
REMARK  status: ('A' for Active; 'I' for Inactive)
REMARK       I    between atoms: C1_4  and  N2_5 
REMARK       I    between atoms: C1_4  and  N4_11 
REMARK    1  A    between atoms: N2_5  and  N3_7 
REMARK    2  A    between atoms: N3_7  and  C2_9 
REMARK    3  A    between atoms: N4_11  and  C3_13 
ROOT
HETATM    1  N1  UNL     1      26.229 -13.499  -5.769  1.00  0.00    -0.234 N 
ATOM      2  H11 UNL     1      26.474 -12.668  -6.308  1.00  0.00     0.174 HD
ATOM      3  H12 UNL     1      26.742 -14.368  -5.917  1.00  0.00     0.174 HD
HETATM    4  C1  UNL     1      25.260 -13.490  -4.889  1.00  0.00     0.687 C 
HETATM    5  N2  UNL     1      24.921 -14.644  -4.141  1.00  0.00    -0.131 N 
ATOM      6  H2  UNL     1      25.304 -14.721  -3.198  1.00  0.00     0.205 HD
HETATM    7  N4  UNL     1      24.540 -12.269  -4.681  1.00  0.00    -0.212 N 
ATOM      8  H4  UNL     1      23.576 -12.286  -4.347  1.00  0.00     0.178 HD
ENDROOT
BRANCH   5   9
HETATM    9  N3  UNL     1      24.118 -15.672  -4.582  1.00  0.00    -0.263 N 
ATOM     10  H3  UNL     1      23.110 -15.618  -4.432  1.00  0.00     0.190 HD
BRANCH   9  11
HETATM   11  C2  UNL     1      24.660 -16.795  -5.235  1.00  0.00     0.369 C 
HETATM   12  O1  UNL     1      25.436 -16.721  -6.226  1.00  0.00    -0.282 OA
ENDBRANCH   9  11
ENDBRANCH   5   9
BRANCH   7  13
HETATM   13  C3  UNL     1      25.195 -11.023  -4.949  1.00  0.00     0.193 C 
HETATM   14  C4  UNL     1      24.763 -10.394  -6.248  1.00  0.00     0.055 C 
HETATM   15  C5  UNL     1      25.373  -8.997  -6.095  1.00  0.00     0.125 C 
HETATM   16  N5  UNL     1      25.187  -8.733  -4.664  1.00  0.00    -0.359 N 
HETATM   17  C6  UNL     1      24.857  -9.949  -3.984  1.00  0.00     0.241 C 
ATOM     18  H5  UNL     1      25.280  -7.819  -4.220  1.00  0.00     0.162 HD
HETATM   19  O2  UNL     1      24.393 -10.038  -2.836  1.00  0.00    -0.271 OA
ENDBRANCH   7  13
TORSDOF 3
ENDMDL
MODEL 2
REMARK VINA RESULT: -6.655385785      1.125      1.142
REMARK  3 active torsions:
REMARK  status: ('A' for Active; 'I' for Inactive)
REMARK       I    between atoms: C1_4  and  N2_5 
REMARK       I    between atoms: C1_4  and  N4_11 
REMARK    1  A    between atoms: N2_5  and  N3_7 
REMARK    2  A    between atoms: N3_7  and  C2_9 
REMARK    3  A    between atoms: N4_11  and  C3_13 
ROOT
HETATM    1  N1  UNL     1      26.282 -13.330  -6.047  1.00  0.00    -0.234 N 
ATOM      2  H11 UNL     1      26.595 -12.563  -6.642  1.00  0.00     0.174 HD
ATOM      3  H12 UNL     1      26.597 -14.281  -6.237  1.00  0.00     0.174 HD
HETATM    4  C1  UNL     1      25.470 -13.133  -5.039  1.00  0.00     0.687 C 
HETATM    5  N2  UNL     1      25.035 -14.198  -4.212  1.00  0.00    -0.131 N 
ATOM      6  H2  UNL     1      25.530 -14.340  -3.331  1.00  0.00     0.205 HD
HETATM    7  N4  UNL     1      25.027 -11.797  -4.771  1.00  0.00    -0.212 N 
ATOM      8  H4  UNL     1      24.136 -11.630  -4.303  1.00  0.00     0.178 HD
ENDROOT
BRANCH   5   9
HETATM    9  N3  UNL     1      23.999 -15.058  -4.500  1.00  0.00    -0.263 N 
ATOM     10  H3  UNL     1      23.042 -14.705  -4.506  1.00  0.00     0.190 HD
BRANCH   9  11
HETATM   11  C2  UNL     1      24.236 -16.416  -4.788  1.00  0.00     0.369 C 
HETATM   12  O1  UNL     1      24.944 -16.814  -5.752  1.00  0.00    -0.282 OA
ENDBRANCH   9  11
ENDBRANCH   5   9
BRANCH   7  13
HETATM   13  C3  UNL     1      25.856 -10.698  -5.171  1.00  0.00     0.193 C 
HETATM   14  C4  UNL     1      25.075  -9.545  -5.744  1.00  0.00     0.055 C 
HETATM   15  C5  UNL     1      26.160  -8.464  -5.775  1.00  0.00     0.125 C 
HETATM   16  N5  UNL     1      26.909  -8.742  -4.545  1.00  0.00    -0.359 N 
HETATM   17  C6  UNL     1      26.557 -10.036  -4.044  1.00  0.00     0.241 C 
ATOM     18  H5  UNL     1      27.581  -8.108  -4.111  1.00  0.00     0.162 HD
HETATM   19  O2  UNL     1      26.807 -10.469  -2.907  1.00  0.00    -0.271 OA
ENDBRANCH   7  13
TORSDOF 3
ENDMDL
MODEL 3
REMARK VINA RESULT: -6.293133573      1.785      2.066
REMARK  3 active torsions:
REMARK  status: ('A' for Active; 'I' for Inactive)
REMARK       I    between atoms: C1_4  and  N2_5 
REMARK       I    between atoms: C1_4  and  N4_11 
REMARK    1  A    between atoms: N2_5  and  N3_7 
REMARK    2  A    between atoms: N3_7  and  C2_9 
REMARK    3  A    between atoms: N4_11  and  C3_13 
ROOT
HETATM    1  N1  UNL     1      25.152 -12.351  -3.433  1.00  0.00    -0.234 N 
ATOM      2  H11 UNL     1      25.699 -11.490  -3.439  1.00  0.00     0.174 HD
ATOM      3  H12 UNL     1      24.756 -12.694  -2.558  1.00  0.00     0.174 HD
HETATM    4  C1  UNL     1      24.945 -13.045  -4.524  1.00  0.00     0.687 C 
HETATM    5  N2  UNL     1      24.185 -14.241  -4.515  1.00  0.00    -0.131 N 
ATOM      6  H2  UNL     1      23.205 -14.175  -4.791  1.00  0.00     0.205 HD
HETATM    7  N4  UNL     1      25.501 -12.563  -5.754  1.00  0.00    -0.212 N 
ATOM      8  H4  UNL     1      25.724 -13.210  -6.510  1.00  0.00     0.178 HD
ENDROOT
BRANCH   5   9
HETATM    9  N3  UNL     1      24.660 -15.484  -4.164  1.00  0.00    -0.263 N 
ATOM     10  H3  UNL     1      24.960 -15.652  -3.203  1.00  0.00     0.190 HD
BRANCH   9  11
HETATM   11  C2  UNL     1      24.741 -16.528  -5.105  1.00  0.00     0.369 C 
HETATM   12  O1  UNL     1      25.497 -16.503  -6.114  1.00  0.00    -0.282 OA
ENDBRANCH   9  11
ENDBRANCH   5   9
BRANCH   7  13
HETATM   13  C3  UNL     1      25.737 -11.157  -5.905  1.00  0.00     0.193 C 
HETATM   14  C4  UNL     1      27.016 -10.847  -6.637  1.00  0.00     0.055 C 
HETATM   15  C5  UNL     1      26.826  -9.350  -6.901  1.00  0.00     0.125 C 
HETATM   16  N5  UNL     1      25.388  -9.263  -7.175  1.00  0.00    -0.359 N 
HETATM   17  C6  UNL     1      24.741 -10.472  -6.763  1.00  0.00     0.241 C 
ATOM     18  H5  UNL     1      24.919  -8.461  -7.597  1.00  0.00     0.162 HD
HETATM   19  O2  UNL     1      23.594 -10.827  -7.079  1.00  0.00    -0.271 OA
ENDBRANCH   7  13
TORSDOF 3
ENDMDL
MODEL 4
REMARK VINA RESULT: -6.256391854      1.623      2.008
REMARK  3 active torsions:
REMARK  status: ('A' for Active; 'I' for Inactive)
REMARK       I    between atoms: C1_4  and  N2_5 
REMARK       I    between atoms: C1_4  and  N4_11 
REMARK    1  A    between atoms: N2_5  and  N3_7 
REMARK    2  A    between atoms: N3_7  and  C2_9 
REMARK    3  A    between atoms: N4_11  and  C3_13 
ROOT
HETATM    1  N1  UNL     1      25.504 -11.727  -2.959  1.00  0.00    -0.234 N 
ATOM      2  H11 UNL     1      25.912 -10.827  -2.704  1.00  0.00     0.174 HD
ATOM      3  H12 UNL     1      25.453 -12.474  -2.267  1.00  0.00     0.174 HD
HETATM    4  C1  UNL     1      25.046 -11.960  -4.163  1.00  0.00     0.687 C 
HETATM    5  N2  UNL     1      24.478 -13.209  -4.516  1.00  0.00    -0.131 N 
ATOM      6  H2  UNL     1      23.461 -13.285  -4.494  1.00  0.00     0.205 HD
HETATM    7  N4  UNL     1      25.117 -10.909  -5.135  1.00  0.00    -0.212 N 
ATOM      8  H4  UNL     1      25.164 -11.127  -6.130  1.00  0.00     0.178 HD
ENDROOT
BRANCH   5   9
HETATM    9  N3  UNL     1      25.188 -14.330  -4.885  1.00  0.00    -0.263 N 
ATOM     10  H3  UNL     1      26.054 -14.222  -5.413  1.00  0.00     0.190 HD
BRANCH   9  11
HETATM   11  C2  UNL     1      24.740 -15.622  -4.549  1.00  0.00     0.369 C 
HETATM   12  O1  UNL     1      25.338 -16.381  -3.739  1.00  0.00    -0.282 OA
ENDBRANCH   9  11
ENDBRANCH   5   9
BRANCH   7  13
HETATM   13  C3  UNL     1      25.121  -9.548  -4.686  1.00  0.00     0.193 C 
HETATM   14  C4  UNL     1      25.747  -8.600  -5.675  1.00  0.00     0.055 C 
HETATM   15  C5  UNL     1      25.329  -7.256  -5.072  1.00  0.00     0.125 C 
HETATM   16  N5  UNL     1      23.980  -7.546  -4.573  1.00  0.00    -0.359 N 
HETATM   17  C6  UNL     1      23.767  -8.961  -4.543  1.00  0.00     0.241 C 
ATOM     18  H5  UNL     1      23.296  -6.843  -4.290  1.00  0.00     0.162 HD
HETATM   19  O2  UNL     1      22.670  -9.529  -4.421  1.00  0.00    -0.271 OA
ENDBRANCH   7  13
TORSDOF 3
ENDMDL
MODEL 5
REMARK VINA RESULT: -6.005856575      2.094      2.390
REMARK  3 active torsions:
REMARK  status: ('A' for Active; 'I' for Inactive)
REMARK       I    between atoms: C1_4  and  N2_5 
REMARK       I    between atoms: C1_4  and  N4_11 
REMARK    1  A    between atoms: N2_5  and  N3_7 
REMARK    2  A    between atoms: N3_7  and  C2_9 
REMARK    3  A    between atoms: N4_11  and  C3_13 
ROOT
HETATM    1  N1  UNL     1      25.272 -11.897  -2.705  1.00  0.00    -0.234 N 
ATOM      2  H11 UNL     1      26.034 -11.335  -2.326  1.00  0.00     0.174 HD
ATOM      3  H12 UNL     1      24.548 -12.255  -2.083  1.00  0.00     0.174 HD
HETATM    4  C1  UNL     1      25.196 -12.187  -3.980  1.00  0.00     0.687 C 
HETATM    5  N2  UNL     1      24.136 -12.967  -4.506  1.00  0.00    -0.131 N 
ATOM      6  H2  UNL     1      23.354 -12.469  -4.931  1.00  0.00     0.205 HD
HETATM    7  N4  UNL     1      26.213 -11.684  -4.855  1.00  0.00    -0.212 N 
ATOM      8  H4  UNL     1      26.440 -12.174  -5.721  1.00  0.00     0.178 HD
ENDROOT
BRANCH   5   9
HETATM    9  N3  UNL     1      24.076 -14.342  -4.489  1.00  0.00    -0.263 N 
ATOM     10  H3  UNL     1      23.226 -14.802  -4.162  1.00  0.00     0.190 HD
BRANCH   9  11
HETATM   11  C2  UNL     1      25.166 -15.126  -4.913  1.00  0.00     0.369 C 
HETATM   12  O1  UNL     1      25.555 -16.166  -4.315  1.00  0.00    -0.282 OA
ENDBRANCH   9  11
ENDBRANCH   5   9
BRANCH   7  13
HETATM   13  C3  UNL     1      26.906 -10.483  -4.495  1.00  0.00     0.193 C 
HETATM   14  C4  UNL     1      28.236 -10.335  -5.187  1.00  0.00     0.055 C 
HETATM   15  C5  UNL     1      28.561  -8.876  -4.853  1.00  0.00     0.125 C 
HETATM   16  N5  UNL     1      27.241  -8.240  -4.925  1.00  0.00    -0.359 N 
HETATM   17  C6  UNL     1      26.219  -9.242  -4.928  1.00  0.00     0.241 C 
ATOM     18  H5  UNL     1      27.077  -7.234  -4.965  1.00  0.00     0.162 HD
HETATM   19  O2  UNL     1      25.028  -9.066  -5.232  1.00  0.00    -0.271 OA
ENDBRANCH   7  13
TORSDOF 3
ENDMDL
