MODEL 1
REMARK VINA RESULT: -6.897208867      0.000      0.000
REMARK  5 active torsions:
REMARK  status: ('A' for Active; 'I' for Inactive)
REMARK    1  A    between atoms: C1_2  and  C2_3 
REMARK       I    between atoms: C1_2  and  N2_16 
REMARK    2  A    between atoms: C2_3  and  O2_4 
REMARK    3  A    between atoms: C2_3  and  C3_6 
REMARK    4  A    between atoms: C11_19  and  C12_20 
REMARK    5  A    between atoms: C12_20  and  O3_21 
ROOT
HETATM    1  C2  UNL     1       7.332   9.311  24.070  1.00  0.00     0.240 C 
ENDROOT
BRANCH   1   2
HETATM    2  C1  UNL     1       6.485   9.294  25.292  1.00  0.00     0.250 C 
HETATM    3  O1  UNL     1       5.296   9.765  25.224  1.00  0.00    -0.270 OA
HETATM    4  N2  UNL     1       6.887   8.795  26.547  1.00  0.00    -0.350 N 
HETATM    5  C9  UNL     1       5.952   8.819  27.645  1.00  0.00     0.126 C 
HETATM    6  C14 UNL     1       8.194   8.280  26.758  1.00  0.00     0.126 C 
HETATM    7  C10 UNL     1       6.613   9.543  28.787  1.00  0.00     0.027 C 
HETATM    8  C11 UNL     1       7.916   8.908  29.191  1.00  0.00     0.012 C 
HETATM    9  C13 UNL     1       8.840   8.634  28.065  1.00  0.00     0.027 C 
BRANCH   8  10
HETATM   10  C12 UNL     1       7.626   7.673  30.014  1.00  0.00     0.168 C 
BRANCH  10  11
HETATM   11  O3  UNL     1       8.752   7.226  30.672  1.00  0.00    -0.400 OA
ATOM     12  H3  UNL     1       8.643   7.260  31.615  1.00  0.00     0.209 HD
ENDBRANCH  10  11
ENDBRANCH   8  10
ENDBRANCH   1   2
BRANCH   1  13
HETATM   13  O2  UNL     1       7.921  10.599  23.973  1.00  0.00    -0.384 OA
ATOM     14  H2  UNL     1       8.747  10.573  24.441  1.00  0.00     0.210 HD
ENDBRANCH   1  13
BRANCH   1  15
HETATM   15  C3  UNL     1       6.498   9.093  22.817  1.00  0.00     0.225 C 
HETATM   16  C4  UNL     1       7.435   8.747  21.672  1.00  0.00     0.053 C 
HETATM   17  C5  UNL     1       7.281   7.284  21.594  1.00  0.00     0.080 C 
HETATM   18  S1  UNL     1       7.273   6.570  19.933  1.00  0.00    -0.162 SA
HETATM   19  C8  UNL     1       5.752   7.215  21.798  1.00  0.00     0.201 C 
HETATM   20  C6  UNL     1       5.841   5.445  20.248  1.00  0.00     0.076 C 
HETATM   21  C7  UNL     1       5.422   5.802  21.688  1.00  0.00     0.044 C 
HETATM   22  N1  UNL     1       5.629   7.913  23.001  1.00  0.00    -0.063 N 
ATOM     23  H12 UNL     1       5.842   7.360  23.831  1.00  0.00     0.278 HD
ATOM     24  H11 UNL     1       4.668   8.136  23.262  1.00  0.00     0.278 HD
ENDBRANCH   1  15
TORSDOF 5
ENDMDL
MODEL 2
REMARK VINA RESULT: -6.846747428      1.299      1.491
REMARK  5 active torsions:
REMARK  status: ('A' for Active; 'I' for Inactive)
REMARK    1  A    between atoms: C1_2  and  C2_3 
REMARK       I    between atoms: C1_2  and  N2_16 
REMARK    2  A    between atoms: C2_3  and  O2_4 
REMARK    3  A    between atoms: C2_3  and  C3_6 
REMARK    4  A    between atoms: C11_19  and  C12_20 
REMARK    5  A    between atoms: C12_20  and  O3_21 
ROOT
HETATM    1  C2  UNL     1       7.551   9.464  24.128  1.00  0.00     0.240 C 
ENDROOT
BRANCH   1   2
HETATM    2  C1  UNL     1       6.646   9.391  25.305  1.00  0.00     0.250 C 
HETATM    3  O1  UNL     1       5.455   9.847  25.197  1.00  0.00    -0.270 OA
HETATM    4  N2  UNL     1       6.995   8.851  26.560  1.00  0.00    -0.350 N 
HETATM    5  C9  UNL     1       6.007   8.820  27.611  1.00  0.00     0.126 C 
HETATM    6  C14 UNL     1       8.298   8.347  26.815  1.00  0.00     0.126 C 
HETATM    7  C10 UNL     1       6.600   9.511  28.809  1.00  0.00     0.027 C 
HETATM    8  C11 UNL     1       7.892   8.880  29.254  1.00  0.00     0.012 C 
HETATM    9  C13 UNL     1       8.874   8.661  28.165  1.00  0.00     0.027 C 
BRANCH   8  10
HETATM   10  C12 UNL     1       7.583   7.611  30.016  1.00  0.00     0.168 C 
BRANCH  10  11
HETATM   11  O3  UNL     1       8.677   7.166  30.726  1.00  0.00    -0.400 OA
ATOM     12  H3  UNL     1       8.438   6.897  31.605  1.00  0.00     0.209 HD
ENDBRANCH  10  11
ENDBRANCH   8  10
ENDBRANCH   1   2
BRANCH   1  13
HETATM   13  O2  UNL     1       7.943  10.820  23.972  1.00  0.00    -0.384 OA
ATOM     14  H2  UNL     1       7.423  11.189  23.267  1.00  0.00     0.210 HD
ENDBRANCH   1  13
BRANCH   1  15
HETATM   15  C3  UNL     1       6.835   9.044  22.853  1.00  0.00     0.225 C 
HETATM   16  C4  UNL     1       7.292   9.953  21.725  1.00  0.00     0.053 C 
HETATM   17  C5  UNL     1       8.268   9.095  21.031  1.00  0.00     0.080 C 
HETATM   18  S1  UNL     1       8.283   9.203  19.226  1.00  0.00    -0.162 SA
HETATM   19  C8  UNL     1       7.480   7.769  21.099  1.00  0.00     0.201 C 
HETATM   20  C6  UNL     1       8.374   7.376  18.957  1.00  0.00     0.076 C 
HETATM   21  C7  UNL     1       8.306   6.806  20.387  1.00  0.00     0.044 C 
HETATM   22  N1  UNL     1       7.259   7.682  22.475  1.00  0.00    -0.063 N 
ATOM     23  H12 UNL     1       8.053   7.326  23.006  1.00  0.00     0.278 HD
ATOM     24  H11 UNL     1       6.606   6.947  22.750  1.00  0.00     0.278 HD
ENDBRANCH   1  15
TORSDOF 5
ENDMDL
MODEL 3
REMARK VINA RESULT: -6.710463729      1.349      1.484
REMARK  5 active torsions:
REMARK  status: ('A' for Active; 'I' for Inactive)
REMARK    1  A    between atoms: C1_2  and  C2_3 
REMARK       I    between atoms: C1_2  and  N2_16 
REMARK    2  A    between atoms: C2_3  and  O2_4 
REMARK    3  A    between atoms: C2_3  and  C3_6 
REMARK    4  A    between atoms: C11_19  and  C12_20 
REMARK    5  A    between atoms: C12_20  and  O3_21 
ROOT
HETATM    1  C2  UNL     1       6.252   8.657  23.861  1.00  0.00     0.240 C 
ENDROOT
BRANCH   1   2
HETATM    2  C1  UNL     1       5.625   8.762  25.205  1.00  0.00     0.250 C 
HETATM    3  O1  UNL     1       4.404   9.140  25.288  1.00  0.00    -0.270 OA
HETATM    4  N2  UNL     1       6.273   8.477  26.424  1.00  0.00    -0.350 N 
HETATM    5  C9  UNL     1       5.535   8.598  27.658  1.00  0.00     0.126 C 
HETATM    6  C14 UNL     1       7.638   8.084  26.465  1.00  0.00     0.126 C 
HETATM    7  C10 UNL     1       6.310   9.521  28.559  1.00  0.00     0.027 C 
HETATM    8  C11 UNL     1       7.713   9.037  28.806  1.00  0.00     0.012 C 
HETATM    9  C13 UNL     1       8.458   8.664  27.580  1.00  0.00     0.027 C 
BRANCH   8  10
HETATM   10  C12 UNL     1       7.676   7.918  29.822  1.00  0.00     0.168 C 
BRANCH  10  11
HETATM   11  O3  UNL     1       8.927   7.663  30.343  1.00  0.00    -0.400 OA
ATOM     12  H3  UNL     1       9.538   7.395  29.667  1.00  0.00     0.209 HD
ENDBRANCH  10  11
ENDBRANCH   8  10
ENDBRANCH   1   2
BRANCH   1  13
HETATM   13  O2  UNL     1       6.123   9.920  23.227  1.00  0.00    -0.384 OA
ATOM     14  H2  UNL     1       6.998  10.275  23.115  1.00  0.00     0.210 HD
ENDBRANCH   1  13
BRANCH   1  15
HETATM   15  C3  UNL     1       5.533   7.633  22.995  1.00  0.00     0.225 C 
HETATM   16  C4  UNL     1       6.425   7.297  21.812  1.00  0.00     0.053 C 
HETATM   17  C5  UNL     1       6.998   6.007  22.230  1.00  0.00     0.080 C 
HETATM   18  S1  UNL     1       7.207   4.768  20.930  1.00  0.00    -0.162 SA
HETATM   19  C8  UNL     1       5.719   5.385  22.831  1.00  0.00     0.201 C 
HETATM   20  C6  UNL     1       6.536   3.367  21.933  1.00  0.00     0.076 C 
HETATM   21  C7  UNL     1       6.113   4.048  23.250  1.00  0.00     0.044 C 
HETATM   22  N1  UNL     1       5.368   6.376  23.750  1.00  0.00    -0.063 N 
ATOM     23  H12 UNL     1       5.890   6.340  24.625  1.00  0.00     0.278 HD
ATOM     24  H11 UNL     1       4.445   6.254  24.167  1.00  0.00     0.278 HD
ENDBRANCH   1  15
TORSDOF 5
ENDMDL
MODEL 4
REMARK VINA RESULT: -6.457524440      2.515      3.595
REMARK  5 active torsions:
REMARK  status: ('A' for Active; 'I' for Inactive)
REMARK    1  A    between atoms: C1_2  and  C2_3 
REMARK       I    between atoms: C1_2  and  N2_16 
REMARK    2  A    between atoms: C2_3  and  O2_4 
REMARK    3  A    between atoms: C2_3  and  C3_6 
REMARK    4  A    between atoms: C11_19  and  C12_20 
REMARK    5  A    between atoms: C12_20  and  O3_21 
ROOT
HETATM    1  C2  UNL     1       6.276   8.767  23.879  1.00  0.00     0.240 C 
ENDROOT
BRANCH   1   2
HETATM    2  C1  UNL     1       5.655   8.794  25.229  1.00  0.00     0.250 C 
HETATM    3  O1  UNL     1       4.422   9.125  25.334  1.00  0.00    -0.270 OA
HETATM    4  N2  UNL     1       6.320   8.480  26.432  1.00  0.00    -0.350 N 
HETATM    5  C9  UNL     1       5.586   8.523  27.673  1.00  0.00     0.126 C 
HETATM    6  C14 UNL     1       7.697   8.133  26.450  1.00  0.00     0.126 C 
HETATM    7  C10 UNL     1       6.334   9.434  28.610  1.00  0.00     0.027 C 
HETATM    8  C11 UNL     1       7.755   8.989  28.829  1.00  0.00     0.012 C 
HETATM    9  C13 UNL     1       8.504   8.694  27.584  1.00  0.00     0.027 C 
BRANCH   8  10
HETATM   10  C12 UNL     1       7.762   7.827  29.797  1.00  0.00     0.168 C 
BRANCH  10  11
HETATM   11  O3  UNL     1       9.006   7.648  30.365  1.00  0.00    -0.400 OA
ATOM     12  H3  UNL     1       8.946   7.203  31.202  1.00  0.00     0.209 HD
ENDBRANCH  10  11
ENDBRANCH   8  10
ENDBRANCH   1   2
BRANCH   1  13
HETATM   13  O2  UNL     1       7.032   7.570  23.778  1.00  0.00    -0.384 OA
ATOM     14  H2  UNL     1       6.740   7.112  22.998  1.00  0.00     0.210 HD
ENDBRANCH   1  13
BRANCH   1  15
HETATM   15  C3  UNL     1       7.235   9.933  23.690  1.00  0.00     0.225 C 
HETATM   16  C4  UNL     1       7.325  10.242  22.205  1.00  0.00     0.053 C 
HETATM   17  C5  UNL     1       6.444  11.417  22.092  1.00  0.00     0.080 C 
HETATM   18  S1  UNL     1       6.984  12.713  20.953  1.00  0.00    -0.162 SA
HETATM   19  C8  UNL     1       6.890  12.147  23.378  1.00  0.00     0.201 C 
HETATM   20  C6  UNL     1       6.607  14.108  22.106  1.00  0.00     0.076 C 
HETATM   21  C7  UNL     1       6.133  13.390  23.384  1.00  0.00     0.044 C 
HETATM   22  N1  UNL     1       6.673  11.142  24.323  1.00  0.00    -0.063 N 
ATOM     23  H12 UNL     1       5.703  11.048  24.620  1.00  0.00     0.278 HD
ATOM     24  H11 UNL     1       7.052  11.347  25.248  1.00  0.00     0.278 HD
ENDBRANCH   1  15
TORSDOF 5
ENDMDL
MODEL 5
REMARK VINA RESULT: -6.320529028      2.220      2.401
REMARK  5 active torsions:
REMARK  status: ('A' for Active; 'I' for Inactive)
REMARK    1  A    between atoms: C1_2  and  C2_3 
REMARK       I    between atoms: C1_2  and  N2_16 
REMARK    2  A    between atoms: C2_3  and  O2_4 
REMARK    3  A    between atoms: C2_3  and  C3_6 
REMARK    4  A    between atoms: C11_19  and  C12_20 
REMARK    5  A    between atoms: C12_20  and  O3_21 
ROOT
HETATM    1  C2  UNL     1       6.872   9.467  24.284  1.00  0.00     0.240 C 
ENDROOT
BRANCH   1   2
HETATM    2  C1  UNL     1       6.181   9.421  25.600  1.00  0.00     0.250 C 
HETATM    3  O1  UNL     1       5.011   9.931  25.699  1.00  0.00    -0.270 OA
HETATM    4  N2  UNL     1       6.715   8.854  26.774  1.00  0.00    -0.350 N 
HETATM    5  C9  UNL     1       5.923   8.856  27.980  1.00  0.00     0.126 C 
HETATM    6  C14 UNL     1       8.019   8.289  26.799  1.00  0.00     0.126 C 
HETATM    7  C10 UNL     1       6.745   9.508  29.060  1.00  0.00     0.027 C 
HETATM    8  C11 UNL     1       8.064   8.815  29.273  1.00  0.00     0.012 C 
HETATM    9  C13 UNL     1       8.832   8.564  28.030  1.00  0.00     0.027 C 
BRANCH   8  10
HETATM   10  C12 UNL     1       7.832   7.553  30.074  1.00  0.00     0.168 C 
BRANCH  10  11
HETATM   11  O3  UNL     1       8.919   7.248  30.866  1.00  0.00    -0.400 OA
ATOM     12  H3  UNL     1       8.656   7.028  31.751  1.00  0.00     0.209 HD
ENDBRANCH  10  11
ENDBRANCH   8  10
ENDBRANCH   1   2
BRANCH   1  13
HETATM   13  O2  UNL     1       8.260   9.629  24.533  1.00  0.00    -0.384 OA
ATOM     14  H2  UNL     1       8.727   9.055  23.937  1.00  0.00     0.210 HD
ENDBRANCH   1  13
BRANCH   1  15
HETATM   15  C3  UNL     1       6.411  10.660  23.460  1.00  0.00     0.225 C 
HETATM   16  C4  UNL     1       7.328  10.791  22.255  1.00  0.00     0.053 C 
HETATM   17  C5  UNL     1       6.506  10.195  21.189  1.00  0.00     0.080 C 
HETATM   18  S1  UNL     1       6.599  10.993  19.569  1.00  0.00    -0.162 SA
HETATM   19  C8  UNL     1       5.149  10.815  21.588  1.00  0.00     0.201 C 
HETATM   20  C6  UNL     1       4.775  10.958  19.268  1.00  0.00     0.076 C 
HETATM   21  C7  UNL     1       4.214  10.357  20.572  1.00  0.00     0.044 C 
HETATM   22  N1  UNL     1       5.064  10.395  22.917  1.00  0.00    -0.063 N 
ATOM     23  H12 UNL     1       4.746   9.433  23.033  1.00  0.00     0.278 HD
ATOM     24  H11 UNL     1       4.306  10.825  23.446  1.00  0.00     0.278 HD
ENDBRANCH   1  15
TORSDOF 5
ENDMDL
