MODEL 1
REMARK VINA RESULT: -6.855435876      0.000      0.000
REMARK  3 active torsions:
REMARK  status: ('A' for Active; 'I' for Inactive)
REMARK    1  A    between atoms: C2_2  and  N1_3 
REMARK       I    between atoms: N1_3  and  C3_5 
REMARK       I    between atoms: C3_5  and  N4_17 
REMARK       I    between atoms: N2_6  and  C4_8 
REMARK    2  A    between atoms: C4_8  and  C5_10 
REMARK    3  A    between atoms: N4_17  and  C10_19 
ROOT
HETATM    1  N1  UNL     1     -19.861  62.550  28.745  1.00  0.00    -0.227 N 
ATOM      2  H1  UNL     1     -19.440  61.730  28.308  1.00  0.00     0.177 HD
HETATM    3  C3  UNL     1     -20.413  63.540  27.890  1.00  0.00     0.677 C 
HETATM    4  N2  UNL     1     -19.620  64.460  27.405  1.00  0.00    -0.156 N 
ATOM      5  H2  UNL     1     -18.630  64.449  27.647  1.00  0.00     0.187 HD
HETATM    6  C4  UNL     1     -20.124  65.480  26.540  1.00  0.00     0.293 C 
HETATM    7  O1  UNL     1     -20.254  65.095  25.326  1.00  0.00    -0.268 OA
HETATM    8  N4  UNL     1     -21.783  63.607  27.517  1.00  0.00    -0.218 N 
ATOM      9  H4  UNL     1     -22.226  64.525  27.502  1.00  0.00     0.178 HD
ENDROOT
BRANCH   1  10
HETATM   10  C2  UNL     1     -19.852  62.615  30.179  1.00  0.00     0.133 C 
HETATM   11  C1  UNL     1     -18.539  62.250  30.804  1.00  0.00     0.027 C 
ENDBRANCH   1  10
BRANCH   8  12
HETATM   12  C10 UNL     1     -22.583  62.479  27.162  1.00  0.00     0.036 C 
HETATM   13  C11 UNL     1     -23.917  62.963  26.646  1.00  0.00     0.038 C 
HETATM   14  C12 UNL     1     -21.957  61.631  26.078  1.00  0.00     0.038 C 
HETATM   15  C13 UNL     1     -22.903  61.630  28.394  1.00  0.00     0.038 C 
ENDBRANCH   8  12
BRANCH   6  16
HETATM   16  C5  UNL     1     -20.468  66.843  26.975  1.00  0.00     0.418 C 
HETATM   17  O2  UNL     1     -20.422  67.666  25.821  1.00  0.00    -0.350 OA
HETATM   18  C6  UNL     1     -19.070  67.858  25.536  1.00  0.00     0.199 C 
HETATM   19  C7  UNL     1     -18.324  67.459  26.804  1.00  0.00     0.266 C 
HETATM   20  N3  UNL     1     -19.435  67.488  27.761  1.00  0.00    -0.038 N 
HETATM   21  C8  UNL     1     -19.136  66.881  29.002  1.00  0.00     0.276 C 
HETATM   22  C9  UNL     1     -19.807  68.885  27.918  1.00  0.00     0.276 C 
ENDBRANCH   6  16
TORSDOF 3
ENDMDL
MODEL 2
REMARK VINA RESULT: -6.711489976      2.110      3.081
REMARK  3 active torsions:
REMARK  status: ('A' for Active; 'I' for Inactive)
REMARK    1  A    between atoms: C2_2  and  N1_3 
REMARK       I    between atoms: N1_3  and  C3_5 
REMARK       I    between atoms: C3_5  and  N4_17 
REMARK       I    between atoms: N2_6  and  C4_8 
REMARK    2  A    between atoms: C4_8  and  C5_10 
REMARK    3  A    between atoms: N4_17  and  C10_19 
ROOT
HETATM    1  N1  UNL     1     -20.651  62.595  26.880  1.00  0.00    -0.227 N 
ATOM      2  H1  UNL     1     -20.124  61.729  26.990  1.00  0.00     0.177 HD
HETATM    3  C3  UNL     1     -20.054  63.636  26.119  1.00  0.00     0.677 C 
HETATM    4  N2  UNL     1     -19.229  64.453  26.718  1.00  0.00    -0.156 N 
ATOM      5  H2  UNL     1     -19.031  64.330  27.711  1.00  0.00     0.187 HD
HETATM    6  C4  UNL     1     -18.601  65.518  26.000  1.00  0.00     0.293 C 
HETATM    7  O1  UNL     1     -17.578  65.140  25.327  1.00  0.00    -0.268 OA
HETATM    8  N4  UNL     1     -20.290  63.856  24.735  1.00  0.00    -0.218 N 
ATOM      9  H4  UNL     1     -20.412  64.819  24.423  1.00  0.00     0.178 HD
ENDROOT
BRANCH   1  10
HETATM   10  C2  UNL     1     -21.941  62.671  27.505  1.00  0.00     0.133 C 
HETATM   11  C1  UNL     1     -22.916  61.634  27.034  1.00  0.00     0.027 C 
ENDBRANCH   1  10
BRANCH   8  12
HETATM   12  C10 UNL     1     -20.370  62.825  23.751  1.00  0.00     0.036 C 
HETATM   13  C11 UNL     1     -19.923  63.378  22.419  1.00  0.00     0.038 C 
HETATM   14  C12 UNL     1     -19.489  61.638  24.069  1.00  0.00     0.038 C 
HETATM   15  C13 UNL     1     -21.819  62.381  23.545  1.00  0.00     0.038 C 
ENDBRANCH   8  12
BRANCH   6  16
HETATM   16  C5  UNL     1     -19.062  66.915  26.012  1.00  0.00     0.418 C 
HETATM   17  O2  UNL     1     -17.909  67.729  25.883  1.00  0.00    -0.350 OA
HETATM   18  C6  UNL     1     -17.270  67.695  27.123  1.00  0.00     0.199 C 
HETATM   19  C7  UNL     1     -18.309  67.165  28.105  1.00  0.00     0.266 C 
HETATM   20  N3  UNL     1     -19.524  67.370  27.309  1.00  0.00    -0.038 N 
HETATM   21  C8  UNL     1     -20.662  66.710  27.825  1.00  0.00     0.276 C 
HETATM   22  C9  UNL     1     -19.724  68.808  27.226  1.00  0.00     0.276 C 
ENDBRANCH   6  16
TORSDOF 3
ENDMDL
MODEL 3
REMARK VINA RESULT: -6.686818260      1.350      1.552
REMARK  3 active torsions:
REMARK  status: ('A' for Active; 'I' for Inactive)
REMARK    1  A    between atoms: C2_2  and  N1_3 
REMARK       I    between atoms: N1_3  and  C3_5 
REMARK       I    between atoms: C3_5  and  N4_17 
REMARK       I    between atoms: N2_6  and  C4_8 
REMARK    2  A    between atoms: C4_8  and  C5_10 
REMARK    3  A    between atoms: N4_17  and  C10_19 
ROOT
HETATM    1  N1  UNL     1     -20.039  62.529  27.980  1.00  0.00    -0.227 N 
ATOM      2  H1  UNL     1     -19.652  61.625  27.708  1.00  0.00     0.177 HD
HETATM    3  C3  UNL     1     -20.164  63.521  26.972  1.00  0.00     0.677 C 
HETATM    4  N2  UNL     1     -19.129  64.275  26.705  1.00  0.00    -0.156 N 
ATOM      5  H2  UNL     1     -18.260  64.137  27.221  1.00  0.00     0.187 HD
HETATM    6  C4  UNL     1     -19.201  65.289  25.700  1.00  0.00     0.293 C 
HETATM    7  O1  UNL     1     -19.049  64.835  24.512  1.00  0.00    -0.268 OA
HETATM    8  N4  UNL     1     -21.346  63.758  26.220  1.00  0.00    -0.218 N 
ATOM      9  H4  UNL     1     -21.613  64.728  26.049  1.00  0.00     0.178 HD
ENDROOT
BRANCH   1  10
HETATM   10  C2  UNL     1     -20.418  62.702  29.354  1.00  0.00     0.133 C 
HETATM   11  C1  UNL     1     -21.502  61.774  29.815  1.00  0.00     0.027 C 
ENDBRANCH   1  10
BRANCH   8  12
HETATM   12  C10 UNL     1     -22.187  62.736  25.686  1.00  0.00     0.036 C 
HETATM   13  C11 UNL     1     -22.879  63.260  24.451  1.00  0.00     0.038 C 
HETATM   14  C12 UNL     1     -21.424  61.493  25.287  1.00  0.00     0.038 C 
HETATM   15  C13 UNL     1     -23.309  62.388  26.667  1.00  0.00     0.038 C 
ENDBRANCH   8  12
BRANCH   6  16
HETATM   16  C5  UNL     1     -19.427  66.716  25.974  1.00  0.00     0.418 C 
HETATM   17  O2  UNL     1     -18.910  67.433  24.865  1.00  0.00    -0.350 OA
HETATM   18  C6  UNL     1     -17.522  67.400  24.994  1.00  0.00     0.199 C 
HETATM   19  C7  UNL     1     -17.255  66.990  26.438  1.00  0.00     0.266 C 
HETATM   20  N3  UNL     1     -18.576  67.256  27.015  1.00  0.00    -0.038 N 
HETATM   21  C8  UNL     1     -18.756  66.707  28.305  1.00  0.00     0.276 C 
HETATM   22  C9  UNL     1     -18.742  68.701  27.016  1.00  0.00     0.276 C 
ENDBRANCH   6  16
TORSDOF 3
ENDMDL
MODEL 4
REMARK VINA RESULT: -6.521831654      2.704      3.343
REMARK  3 active torsions:
REMARK  status: ('A' for Active; 'I' for Inactive)
REMARK    1  A    between atoms: C2_2  and  N1_3 
REMARK       I    between atoms: N1_3  and  C3_5 
REMARK       I    between atoms: C3_5  and  N4_17 
REMARK       I    between atoms: N2_6  and  C4_8 
REMARK    2  A    between atoms: C4_8  and  C5_10 
REMARK    3  A    between atoms: N4_17  and  C10_19 
ROOT
HETATM    1  N1  UNL     1     -20.616  62.341  28.549  1.00  0.00    -0.227 N 
ATOM      2  H1  UNL     1     -20.665  61.359  28.821  1.00  0.00     0.177 HD
HETATM    3  C3  UNL     1     -21.184  62.705  27.299  1.00  0.00     0.677 C 
HETATM    4  N2  UNL     1     -20.456  62.582  26.221  1.00  0.00    -0.156 N 
ATOM      5  H2  UNL     1     -19.502  62.229  26.296  1.00  0.00     0.187 HD
HETATM    6  C4  UNL     1     -20.979  62.935  24.938  1.00  0.00     0.293 C 
HETATM    7  O1  UNL     1     -21.714  62.021  24.423  1.00  0.00    -0.268 OA
HETATM    8  N4  UNL     1     -22.506  63.201  27.132  1.00  0.00    -0.218 N 
ATOM      9  H4  UNL     1     -22.642  63.979  26.487  1.00  0.00     0.178 HD
ENDROOT
BRANCH   1  10
HETATM   10  C2  UNL     1     -19.979  63.251  29.458  1.00  0.00     0.133 C 
HETATM   11  C1  UNL     1     -19.088  62.591  30.467  1.00  0.00     0.027 C 
ENDBRANCH   1  10
BRANCH   8  12
HETATM   12  C10 UNL     1     -23.656  62.687  27.803  1.00  0.00     0.036 C 
HETATM   13  C11 UNL     1     -24.896  63.104  27.048  1.00  0.00     0.038 C 
HETATM   14  C12 UNL     1     -23.663  61.177  27.889  1.00  0.00     0.038 C 
HETATM   15  C13 UNL     1     -23.796  63.307  29.195  1.00  0.00     0.038 C 
ENDBRANCH   8  12
BRANCH   6  16
HETATM   16  C5  UNL     1     -20.716  64.211  24.256  1.00  0.00     0.418 C 
HETATM   17  O2  UNL     1     -20.958  63.996  22.876  1.00  0.00    -0.350 OA
HETATM   18  C6  UNL     1     -19.870  63.263  22.401  1.00  0.00     0.199 C 
HETATM   19  C7  UNL     1     -18.784  63.410  23.461  1.00  0.00     0.266 C 
HETATM   20  N3  UNL     1     -19.312  64.566  24.193  1.00  0.00    -0.038 N 
HETATM   21  C8  UNL     1     -18.677  64.794  25.435  1.00  0.00     0.276 C 
HETATM   22  C9  UNL     1     -19.186  65.710  23.304  1.00  0.00     0.276 C 
ENDBRANCH   6  16
TORSDOF 3
ENDMDL
MODEL 5
REMARK VINA RESULT: -6.411324509      2.216      3.043
REMARK  3 active torsions:
REMARK  status: ('A' for Active; 'I' for Inactive)
REMARK    1  A    between atoms: C2_2  and  N1_3 
REMARK       I    between atoms: N1_3  and  C3_5 
REMARK       I    between atoms: C3_5  and  N4_17 
REMARK       I    between atoms: N2_6  and  C4_8 
REMARK    2  A    between atoms: C4_8  and  C5_10 
REMARK    3  A    between atoms: N4_17  and  C10_19 
ROOT
HETATM    1  N1  UNL     1     -21.653  63.022  26.060  1.00  0.00    -0.227 N 
ATOM      2  H1  UNL     1     -21.825  62.278  25.384  1.00  0.00     0.177 HD
HETATM    3  C3  UNL     1     -21.370  64.318  25.553  1.00  0.00     0.677 C 
HETATM    4  N2  UNL     1     -20.137  64.607  25.227  1.00  0.00    -0.156 N 
ATOM      5  H2  UNL     1     -19.408  63.903  25.342  1.00  0.00     0.187 HD
HETATM    6  C4  UNL     1     -19.798  65.897  24.713  1.00  0.00     0.293 C 
HETATM    7  O1  UNL     1     -20.051  66.025  23.464  1.00  0.00    -0.268 OA
HETATM    8  N4  UNL     1     -22.342  65.338  25.370  1.00  0.00    -0.218 N 
ATOM      9  H4  UNL     1     -22.088  66.289  25.639  1.00  0.00     0.178 HD
ENDROOT
BRANCH   1  10
HETATM   10  C2  UNL     1     -21.714  62.681  27.453  1.00  0.00     0.133 C 
HETATM   11  C1  UNL     1     -22.857  61.780  27.817  1.00  0.00     0.027 C 
ENDBRANCH   1  10
BRANCH   8  12
HETATM   12  C10 UNL     1     -23.649  65.128  24.836  1.00  0.00     0.036 C 
HETATM   13  C11 UNL     1     -24.137  66.409  24.205  1.00  0.00     0.038 C 
HETATM   14  C12 UNL     1     -23.685  64.054  23.772  1.00  0.00     0.038 C 
HETATM   15  C13 UNL     1     -24.648  64.815  25.952  1.00  0.00     0.038 C 
ENDBRANCH   8  12
BRANCH   6  16
HETATM   16  C5  UNL     1     -19.218  66.985  25.514  1.00  0.00     0.418 C 
HETATM   17  O2  UNL     1     -18.302  67.669  24.675  1.00  0.00    -0.350 OA
HETATM   18  C6  UNL     1     -17.180  66.845  24.574  1.00  0.00     0.199 C 
HETATM   19  C7  UNL     1     -17.304  65.842  25.715  1.00  0.00     0.266 C 
HETATM   20  N3  UNL     1     -18.299  66.534  26.540  1.00  0.00    -0.038 N 
HETATM   21  C8  UNL     1     -18.859  65.726  27.556  1.00  0.00     0.276 C 
HETATM   22  C9  UNL     1     -17.637  67.707  27.088  1.00  0.00     0.276 C 
ENDBRANCH   6  16
TORSDOF 3
ENDMDL
