MODEL 1
REMARK VINA RESULT: -8.143089685      0.000      0.000
REMARK  4 active torsions:
REMARK  status: ('A' for Active; 'I' for Inactive)
REMARK    1  A    between atoms: C2_2  and  C3_3 
REMARK    2  A    between atoms: C5_5  and  C6_6 
REMARK       I    between atoms: C6_6  and  N1_8 
REMARK    3  A    between atoms: N1_8  and  N2_10 
REMARK       I    between atoms: N2_10  and  C7_12 
REMARK       I    between atoms: C7_12  and  N3_14 
REMARK    4  A    between atoms: N3_14  and  C8_16 
ROOT
HETATM    1  N2  UNL     1      24.065  12.676  23.821  1.00  0.00    -0.249 N 
ATOM      2  H2  UNL     1      23.417  13.188  23.222  1.00  0.00     0.192 HD
HETATM    3  C7  UNL     1      24.895  13.373  24.716  1.00  0.00     0.335 C 
HETATM    4  O2  UNL     1      25.682  12.747  25.444  1.00  0.00    -0.246 OA
HETATM    5  N3  UNL     1      24.834  14.769  24.785  1.00  0.00    -0.336 N 
ATOM      6  H3  UNL     1      24.190  15.286  24.187  1.00  0.00     0.164 HD
ENDROOT
BRANCH   1   7
HETATM    7  N1  UNL     1      24.127  11.291  23.753  1.00  0.00    -0.266 N 
HETATM    8  C6  UNL     1      23.071  10.595  23.098  1.00  0.00     0.240 C 
HETATM    9  O1  UNL     1      22.104  11.213  22.594  1.00  0.00    -0.271 OA
ATOM     10  H1  UNL     1      24.911  10.783  24.163  1.00  0.00     0.190 HD
BRANCH   8  11
HETATM   11  C5  UNL     1      23.104   9.132  23.007  1.00  0.00     0.084 A 
HETATM   12  C3  UNL     1      22.908   8.441  24.367  1.00  0.00    -0.001 A 
HETATM   13  C4  UNL     1      21.919   8.296  23.300  1.00  0.00     0.020 A 
BRANCH  12  14
HETATM   14  C2  UNL     1      23.945   7.417  24.681  1.00  0.00     0.001 C 
HETATM   15  C1  UNL     1      24.419   7.483  26.129  1.00  0.00     0.005 C 
ENDBRANCH  12  14
ENDBRANCH   8  11
ENDBRANCH   1   7
BRANCH   5  16
HETATM   16  C8  UNL     1      25.679  15.460  25.694  1.00  0.00     0.096 C 
HETATM   17  C9  UNL     1      26.352  16.730  25.152  1.00  0.00     0.042 C 
HETATM   18  C10 UNL     1      26.315  17.201  26.614  1.00  0.00     0.069 C 
HETATM   19 BR1  UNL     1      27.754  16.364  27.573  1.00  0.00    -0.090 Br
HETATM   20  C11 UNL     1      25.025  16.368  26.713  1.00  0.00    -0.014 C 
HETATM   21  C12 UNL     1      23.872  17.194  26.225  1.00  0.00     0.018 C 
HETATM   22  C13 UNL     1      24.833  15.658  28.009  1.00  0.00     0.018 C 
ENDBRANCH   5  16
TORSDOF 4
ENDMDL
MODEL 2
REMARK VINA RESULT: -7.538593013      1.651      1.964
REMARK  4 active torsions:
REMARK  status: ('A' for Active; 'I' for Inactive)
REMARK    1  A    between atoms: C2_2  and  C3_3 
REMARK    2  A    between atoms: C5_5  and  C6_6 
REMARK       I    between atoms: C6_6  and  N1_8 
REMARK    3  A    between atoms: N1_8  and  N2_10 
REMARK       I    between atoms: N2_10  and  C7_12 
REMARK       I    between atoms: C7_12  and  N3_14 
REMARK    4  A    between atoms: N3_14  and  C8_16 
ROOT
HETATM    1  N2  UNL     1      24.410  12.678  24.378  1.00  0.00    -0.249 N 
ATOM      2  H2  UNL     1      23.575  13.231  24.572  1.00  0.00     0.192 HD
HETATM    3  C7  UNL     1      25.656  13.313  24.233  1.00  0.00     0.335 C 
HETATM    4  O2  UNL     1      26.669  12.636  23.997  1.00  0.00    -0.246 OA
HETATM    5  N3  UNL     1      25.751  14.703  24.353  1.00  0.00    -0.336 N 
ATOM      6  H3  UNL     1      24.920  15.261  24.546  1.00  0.00     0.164 HD
ENDROOT
BRANCH   1   7
HETATM    7  N1  UNL     1      24.315  11.298  24.257  1.00  0.00    -0.266 N 
HETATM    8  C6  UNL     1      23.452  10.761  23.260  1.00  0.00     0.240 C 
HETATM    9  O1  UNL     1      22.788  11.511  22.506  1.00  0.00    -0.271 OA
ATOM     10  H1  UNL     1      24.852  10.683  24.868  1.00  0.00     0.190 HD
BRANCH   8  11
HETATM   11  C5  UNL     1      23.328   9.308  23.104  1.00  0.00     0.084 A 
HETATM   12  C3  UNL     1      22.975   8.591  24.418  1.00  0.00    -0.001 A 
HETATM   13  C4  UNL     1      22.042   8.602  23.292  1.00  0.00     0.020 A 
BRANCH  12  14
HETATM   14  C2  UNL     1      23.871   7.444  24.741  1.00  0.00     0.001 C 
HETATM   15  C1  UNL     1      24.424   7.511  26.161  1.00  0.00     0.005 C 
ENDBRANCH  12  14
ENDBRANCH   8  11
ENDBRANCH   1   7
BRANCH   5  16
HETATM   16  C8  UNL     1      27.017  15.330  24.204  1.00  0.00     0.096 C 
HETATM   17  C9  UNL     1      27.086  16.465  23.172  1.00  0.00     0.042 C 
HETATM   18  C10 UNL     1      28.198  17.025  24.073  1.00  0.00     0.069 C 
HETATM   19 BR1  UNL     1      29.825  16.064  23.721  1.00  0.00    -0.090 Br
HETATM   20  C11 UNL     1      27.411  16.376  25.225  1.00  0.00    -0.014 C 
HETATM   21  C12 UNL     1      26.327  17.316  25.666  1.00  0.00     0.018 C 
HETATM   22  C13 UNL     1      28.249  15.777  26.301  1.00  0.00     0.018 C 
ENDBRANCH   5  16
TORSDOF 4
ENDMDL
MODEL 3
REMARK VINA RESULT: -7.156903352      2.542      3.209
REMARK  4 active torsions:
REMARK  status: ('A' for Active; 'I' for Inactive)
REMARK    1  A    between atoms: C2_2  and  C3_3 
REMARK    2  A    between atoms: C5_5  and  C6_6 
REMARK       I    between atoms: C6_6  and  N1_8 
REMARK    3  A    between atoms: N1_8  and  N2_10 
REMARK       I    between atoms: N2_10  and  C7_12 
REMARK       I    between atoms: C7_12  and  N3_14 
REMARK    4  A    between atoms: N3_14  and  C8_16 
ROOT
HETATM    1  N2  UNL     1      25.015  13.570  24.989  1.00  0.00    -0.249 N 
ATOM      2  H2  UNL     1      24.524  13.822  25.847  1.00  0.00     0.192 HD
HETATM    3  C7  UNL     1      26.297  14.088  24.735  1.00  0.00     0.335 C 
HETATM    4  O2  UNL     1      26.892  13.780  23.690  1.00  0.00    -0.246 OA
HETATM    5  N3  UNL     1      26.900  14.950  25.658  1.00  0.00    -0.336 N 
ATOM      6  H3  UNL     1      26.413  15.206  26.517  1.00  0.00     0.164 HD
ENDROOT
BRANCH   1   7
HETATM    7  N1  UNL     1      24.417  12.717  24.072  1.00  0.00    -0.266 N 
HETATM    8  C6  UNL     1      24.520  11.313  24.283  1.00  0.00     0.240 C 
HETATM    9  O1  UNL     1      25.137  10.850  25.272  1.00  0.00    -0.271 OA
ATOM     10  H1  UNL     1      23.916  13.088  23.265  1.00  0.00     0.190 HD
BRANCH   8  11
HETATM   11  C5  UNL     1      23.901  10.382  23.334  1.00  0.00     0.084 A 
HETATM   12  C3  UNL     1      22.955   9.377  24.012  1.00  0.00    -0.001 A 
HETATM   13  C4  UNL     1      22.444  10.375  23.073  1.00  0.00     0.020 A 
BRANCH  12  14
HETATM   14  C2  UNL     1      23.220   7.956  23.646  1.00  0.00     0.001 C 
HETATM   15  C1  UNL     1      23.649   7.111  24.841  1.00  0.00     0.005 C 
ENDBRANCH  12  14
ENDBRANCH   8  11
ENDBRANCH   1   7
BRANCH   5  16
HETATM   16  C8  UNL     1      28.195  15.464  25.388  1.00  0.00     0.096 C 
HETATM   17  C9  UNL     1      28.588  16.733  26.161  1.00  0.00     0.042 C 
HETATM   18  C10 UNL     1      30.024  16.200  26.021  1.00  0.00     0.069 C 
HETATM   19 BR1  UNL     1      30.662  16.597  24.252  1.00  0.00    -0.090 Br
HETATM   20  C11 UNL     1      29.373  14.807  26.075  1.00  0.00    -0.014 C 
HETATM   21  C12 UNL     1      29.173  14.417  27.510  1.00  0.00     0.018 C 
HETATM   22  C13 UNL     1      30.000  13.785  25.190  1.00  0.00     0.018 C 
ENDBRANCH   5  16
TORSDOF 4
ENDMDL
MODEL 4
REMARK VINA RESULT: -6.983428759      4.902      8.749
REMARK  4 active torsions:
REMARK  status: ('A' for Active; 'I' for Inactive)
REMARK    1  A    between atoms: C2_2  and  C3_3 
REMARK    2  A    between atoms: C5_5  and  C6_6 
REMARK       I    between atoms: C6_6  and  N1_8 
REMARK    3  A    between atoms: N1_8  and  N2_10 
REMARK       I    between atoms: N2_10  and  C7_12 
REMARK       I    between atoms: C7_12  and  N3_14 
REMARK    4  A    between atoms: N3_14  and  C8_16 
ROOT
HETATM    1  N2  UNL     1      30.048  14.544  23.932  1.00  0.00    -0.249 N 
ATOM      2  H2  UNL     1      30.650  14.317  24.725  1.00  0.00     0.192 HD
HETATM    3  C7  UNL     1      28.762  13.984  23.843  1.00  0.00     0.335 C 
HETATM    4  O2  UNL     1      28.033  14.262  22.877  1.00  0.00    -0.246 OA
HETATM    5  N3  UNL     1      28.306  13.114  24.839  1.00  0.00    -0.336 N 
ATOM      6  H3  UNL     1      28.903  12.882  25.633  1.00  0.00     0.164 HD
ENDROOT
BRANCH   1   7
HETATM    7  N1  UNL     1      30.500  15.406  22.942  1.00  0.00    -0.266 N 
HETATM    8  C6  UNL     1      30.896  16.722  23.315  1.00  0.00     0.240 C 
HETATM    9  O1  UNL     1      30.838  17.101  24.509  1.00  0.00    -0.271 OA
ATOM     10  H1  UNL     1      30.548  15.103  21.970  1.00  0.00     0.190 HD
BRANCH   8  11
HETATM   11  C5  UNL     1      31.378  17.658  22.296  1.00  0.00     0.084 A 
HETATM   12  C3  UNL     1      30.266  18.559  21.734  1.00  0.00    -0.001 A 
HETATM   13  C4  UNL     1      31.374  19.123  22.505  1.00  0.00     0.020 A 
BRANCH  12  14
HETATM   14  C2  UNL     1      30.198  18.580  20.245  1.00  0.00     0.001 C 
HETATM   15  C1  UNL     1      30.421  19.973  19.665  1.00  0.00     0.005 C 
ENDBRANCH  12  14
ENDBRANCH   8  11
ENDBRANCH   1   7
BRANCH   5  16
HETATM   16  C8  UNL     1      27.004  12.556  24.735  1.00  0.00     0.096 C 
HETATM   17  C9  UNL     1      26.786  11.222  25.464  1.00  0.00     0.042 C 
HETATM   18  C10 UNL     1      25.327  11.692  25.586  1.00  0.00     0.069 C 
HETATM   19 BR1  UNL     1      24.433  11.384  23.914  1.00  0.00    -0.090 Br
HETATM   20  C11 UNL     1      25.926  13.108  25.642  1.00  0.00    -0.014 C 
HETATM   21  C12 UNL     1      26.335  13.410  27.054  1.00  0.00     0.018 C 
HETATM   22  C13 UNL     1      25.130  14.156  24.943  1.00  0.00     0.018 C 
ENDBRANCH   5  16
TORSDOF 4
ENDMDL
MODEL 5
REMARK VINA RESULT: -6.927058376      1.402      1.578
REMARK  4 active torsions:
REMARK  status: ('A' for Active; 'I' for Inactive)
REMARK    1  A    between atoms: C2_2  and  C3_3 
REMARK    2  A    between atoms: C5_5  and  C6_6 
REMARK       I    between atoms: C6_6  and  N1_8 
REMARK    3  A    between atoms: N1_8  and  N2_10 
REMARK       I    between atoms: N2_10  and  C7_12 
REMARK       I    between atoms: C7_12  and  N3_14 
REMARK    4  A    between atoms: N3_14  and  C8_16 
ROOT
HETATM    1  N2  UNL     1      25.104  12.600  24.595  1.00  0.00    -0.249 N 
ATOM      2  H2  UNL     1      24.739  13.301  23.951  1.00  0.00     0.192 HD
HETATM    3  C7  UNL     1      25.739  12.999  25.784  1.00  0.00     0.335 C 
HETATM    4  O2  UNL     1      26.181  12.142  26.566  1.00  0.00    -0.246 OA
HETATM    5  N3  UNL     1      25.872  14.359  26.084  1.00  0.00    -0.336 N 
ATOM      6  H3  UNL     1      25.511  15.065  25.443  1.00  0.00     0.164 HD
ENDROOT
BRANCH   1   7
HETATM    7  N1  UNL     1      24.973  11.250  24.297  1.00  0.00    -0.266 N 
HETATM    8  C6  UNL     1      23.793  10.811  23.633  1.00  0.00     0.240 C 
HETATM    9  O1  UNL     1      22.887  11.621  23.322  1.00  0.00    -0.271 OA
ATOM     10  H1  UNL     1      25.707  10.588  24.549  1.00  0.00     0.190 HD
BRANCH   8  11
HETATM   11  C5  UNL     1      23.622   9.393  23.303  1.00  0.00     0.084 A 
HETATM   12  C3  UNL     1      23.048   8.571  24.469  1.00  0.00    -0.001 A 
HETATM   13  C4  UNL     1      22.289   8.755  23.233  1.00  0.00     0.020 A 
BRANCH  12  14
HETATM   14  C2  UNL     1      23.831   7.342  24.786  1.00  0.00     0.001 C 
HETATM   15  C1  UNL     1      24.422   7.366  26.191  1.00  0.00     0.005 C 
ENDBRANCH  12  14
ENDBRANCH   8  11
ENDBRANCH   1   7
BRANCH   5  16
HETATM   16  C8  UNL     1      26.515  14.747  27.289  1.00  0.00     0.096 C 
HETATM   17  C9  UNL     1      27.203  16.121  27.271  1.00  0.00     0.042 C 
HETATM   18  C10 UNL     1      26.897  16.134  28.777  1.00  0.00     0.069 C 
HETATM   19 BR1  UNL     1      28.197  15.049  29.684  1.00  0.00    -0.090 Br
HETATM   20  C11 UNL     1      25.654  15.309  28.399  1.00  0.00    -0.014 C 
HETATM   21  C12 UNL     1      24.556  16.243  27.981  1.00  0.00     0.018 C 
HETATM   22  C13 UNL     1      25.285  14.245  29.375  1.00  0.00     0.018 C 
ENDBRANCH   5  16
TORSDOF 4
ENDMDL
