MODEL 1
REMARK VINA RESULT: -6.308964893      0.000      0.000
REMARK  3 active torsions:
REMARK  status: ('A' for Active; 'I' for Inactive)
REMARK    1  A    between atoms: N1_1  and  N2_4 
REMARK       I    between atoms: N2_4  and  C1_6 
REMARK    2  A    between atoms: C1_6  and  C2_8 
REMARK    3  A    between atoms: C2_8  and  N3_9 
REMARK       I    between atoms: N3_9  and  C3_11 
ROOT
HETATM    1  C2  UNL     1      45.438  91.404  34.528  1.00  0.00     0.293 C 
HETATM    2  N5  UNL     1      45.462  91.232  35.971  1.00  0.00    -0.248 N 
ATOM      3  H5  UNL     1      46.130  90.794  36.605  1.00  0.00     0.178 HD
HETATM    4  S1  UNL     1      43.983  92.016  36.223  1.00  0.00     0.322 S 
HETATM    5  O3  UNL     1      42.818  91.129  36.547  1.00  0.00    -0.183 OA
HETATM    6  O4  UNL     1      44.096  93.205  37.145  1.00  0.00    -0.183 OA
HETATM    7  N6  UNL     1      44.341  92.284  34.586  1.00  0.00    -0.248 N 
ATOM      8  H6  UNL     1      43.908  92.882  33.881  1.00  0.00     0.178 HD
ENDROOT
BRANCH   1   9
HETATM    9  C1  UNL     1      45.100  90.122  33.807  1.00  0.00     0.308 C 
HETATM   10  N2  UNL     1      45.371  88.876  34.387  1.00  0.00    -0.271 N 
ATOM     11  H2  UNL     1      45.800  88.806  35.311  1.00  0.00     0.189 HD
HETATM   12  O1  UNL     1      44.572  90.210  32.685  1.00  0.00    -0.265 OA
BRANCH  10  13
HETATM   13  N1  UNL     1      45.030  87.716  33.647  1.00  0.00    -0.342 N 
ATOM     14  H12 UNL     1      44.152  87.229  33.832  1.00  0.00     0.176 HD
ATOM     15  H11 UNL     1      45.688  87.396  32.937  1.00  0.00     0.176 HD
ENDBRANCH  10  13
ENDBRANCH   1   9
BRANCH   1  16
HETATM   16  N3  UNL     1      46.725  91.885  34.088  1.00  0.00    -0.292 N 
HETATM   17  C3  UNL     1      47.422  92.998  34.610  1.00  0.00     0.332 C 
HETATM   18  N4  UNL     1      48.693  93.365  34.076  1.00  0.00    -0.040 NA
HETATM   19  O2  UNL     1      46.961  93.688  35.540  1.00  0.00    -0.251 OA
ATOM     20  H3  UNL     1      47.174  91.374  33.328  1.00  0.00     0.168 HD
ENDBRANCH   1  16
TORSDOF 3
ENDMDL
MODEL 2
REMARK VINA RESULT: -6.297865944      1.337      3.955
REMARK  3 active torsions:
REMARK  status: ('A' for Active; 'I' for Inactive)
REMARK    1  A    between atoms: N1_1  and  N2_4 
REMARK       I    between atoms: N2_4  and  C1_6 
REMARK    2  A    between atoms: C1_6  and  C2_8 
REMARK    3  A    between atoms: C2_8  and  N3_9 
REMARK       I    between atoms: N3_9  and  C3_11 
ROOT
HETATM    1  C2  UNL     1      45.261  91.153  34.230  1.00  0.00     0.293 C 
HETATM    2  N5  UNL     1      44.009  91.888  34.186  1.00  0.00    -0.248 N 
ATOM      3  H5  UNL     1      43.376  92.132  33.424  1.00  0.00     0.178 HD
HETATM    4  S1  UNL     1      43.977  92.197  35.850  1.00  0.00     0.322 S 
HETATM    5  O3  UNL     1      44.314  93.600  36.262  1.00  0.00    -0.183 OA
HETATM    6  O4  UNL     1      42.738  91.663  36.525  1.00  0.00    -0.183 OA
HETATM    7  N6  UNL     1      45.260  91.107  35.637  1.00  0.00    -0.248 N 
ATOM      8  H6  UNL     1      45.836  90.592  36.303  1.00  0.00     0.178 HD
ENDROOT
BRANCH   1   9
HETATM    9  C1  UNL     1      46.415  91.960  33.689  1.00  0.00     0.308 C 
HETATM   10  N2  UNL     1      47.453  92.386  34.528  1.00  0.00    -0.271 N 
ATOM     11  H2  UNL     1      47.455  92.157  35.523  1.00  0.00     0.189 HD
HETATM   12  O1  UNL     1      46.414  92.233  32.476  1.00  0.00    -0.265 OA
BRANCH  10  13
HETATM   13  N1  UNL     1      48.500  93.146  33.949  1.00  0.00    -0.342 N 
ATOM     14  H12 UNL     1      48.287  93.972  33.390  1.00  0.00     0.176 HD
ATOM     15  H11 UNL     1      49.458  92.835  34.112  1.00  0.00     0.176 HD
ENDBRANCH  10  13
ENDBRANCH   1   9
BRANCH   1  16
HETATM   16  N3  UNL     1      45.121  89.934  33.470  1.00  0.00    -0.292 N 
HETATM   17  C3  UNL     1      44.063  89.003  33.575  1.00  0.00     0.332 C 
HETATM   18  N4  UNL     1      44.051  87.833  32.759  1.00  0.00    -0.040 NA
HETATM   19  O2  UNL     1      43.117  89.167  34.370  1.00  0.00    -0.251 OA
ATOM     20  H3  UNL     1      45.855  89.725  32.793  1.00  0.00     0.168 HD
ENDBRANCH   1  16
TORSDOF 3
ENDMDL
MODEL 3
REMARK VINA RESULT: -5.900734021      1.784      3.481
REMARK  3 active torsions:
REMARK  status: ('A' for Active; 'I' for Inactive)
REMARK    1  A    between atoms: N1_1  and  N2_4 
REMARK       I    between atoms: N2_4  and  C1_6 
REMARK    2  A    between atoms: C1_6  and  C2_8 
REMARK    3  A    between atoms: C2_8  and  N3_9 
REMARK       I    between atoms: N3_9  and  C3_11 
ROOT
HETATM    1  C2  UNL     1      45.943  91.488  34.723  1.00  0.00     0.293 C 
HETATM    2  N5  UNL     1      45.088  91.692  33.567  1.00  0.00    -0.248 N 
ATOM      3  H5  UNL     1      44.960  92.478  32.930  1.00  0.00     0.178 HD
HETATM    4  S1  UNL     1      44.379  90.157  33.654  1.00  0.00     0.322 S 
HETATM    5  O3  UNL     1      42.973  90.114  34.175  1.00  0.00    -0.183 OA
HETATM    6  O4  UNL     1      44.569  89.347  32.396  1.00  0.00    -0.183 OA
HETATM    7  N6  UNL     1      45.642  90.115  34.786  1.00  0.00    -0.248 N 
ATOM      8  H6  UNL     1      46.047  89.352  35.330  1.00  0.00     0.178 HD
ENDROOT
BRANCH   1   9
HETATM    9  C1  UNL     1      45.447  92.235  35.937  1.00  0.00     0.308 C 
HETATM   10  N2  UNL     1      44.095  92.577  36.069  1.00  0.00    -0.271 N 
ATOM     11  H2  UNL     1      43.415  92.327  35.351  1.00  0.00     0.189 HD
HETATM   12  O1  UNL     1      46.277  92.533  36.813  1.00  0.00    -0.265 OA
BRANCH  10  13
HETATM   13  N1  UNL     1      43.704  93.284  37.235  1.00  0.00    -0.342 N 
ATOM     14  H12 UNL     1      44.239  93.186  38.098  1.00  0.00     0.176 HD
ATOM     15  H11 UNL     1      42.881  93.882  37.173  1.00  0.00     0.176 HD
ENDBRANCH  10  13
ENDBRANCH   1   9
BRANCH   1  16
HETATM   16  N3  UNL     1      47.283  91.918  34.402  1.00  0.00    -0.292 N 
HETATM   17  C3  UNL     1      47.670  93.221  34.015  1.00  0.00     0.332 C 
HETATM   18  N4  UNL     1      49.037  93.508  33.723  1.00  0.00    -0.040 NA
HETATM   19  O2  UNL     1      46.847  94.152  33.917  1.00  0.00    -0.251 OA
ATOM     20  H3  UNL     1      48.020  91.215  34.459  1.00  0.00     0.168 HD
ENDBRANCH   1  16
TORSDOF 3
ENDMDL
MODEL 4
REMARK VINA RESULT: -5.699235942      1.970      4.037
REMARK  3 active torsions:
REMARK  status: ('A' for Active; 'I' for Inactive)
REMARK    1  A    between atoms: N1_1  and  N2_4 
REMARK       I    between atoms: N2_4  and  C1_6 
REMARK    2  A    between atoms: C1_6  and  C2_8 
REMARK    3  A    between atoms: C2_8  and  N3_9 
REMARK       I    between atoms: N3_9  and  C3_11 
ROOT
HETATM    1  C2  UNL     1      45.181  91.724  34.326  1.00  0.00     0.293 C 
HETATM    2  N5  UNL     1      45.224  90.321  34.702  1.00  0.00    -0.248 N 
ATOM      3  H5  UNL     1      45.684  89.822  35.463  1.00  0.00     0.178 HD
HETATM    4  S1  UNL     1      44.238  89.810  33.424  1.00  0.00     0.322 S 
HETATM    5  O3  UNL     1      44.937  89.108  32.298  1.00  0.00    -0.183 OA
HETATM    6  O4  UNL     1      42.995  89.092  33.889  1.00  0.00    -0.183 OA
HETATM    7  N6  UNL     1      44.166  91.505  33.375  1.00  0.00    -0.248 N 
ATOM      8  H6  UNL     1      43.585  92.149  32.837  1.00  0.00     0.178 HD
ENDROOT
BRANCH   1   9
HETATM    9  C1  UNL     1      46.469  92.182  33.687  1.00  0.00     0.308 C 
HETATM   10  N2  UNL     1      47.559  92.582  34.470  1.00  0.00    -0.271 N 
ATOM     11  H2  UNL     1      47.509  92.569  35.489  1.00  0.00     0.189 HD
HETATM   12  O1  UNL     1      46.529  92.190  32.445  1.00  0.00    -0.265 OA
BRANCH  10  13
HETATM   13  N1  UNL     1      48.734  93.004  33.798  1.00  0.00    -0.342 N 
ATOM     14  H12 UNL     1      49.630  92.562  34.004  1.00  0.00     0.176 HD
ATOM     15  H11 UNL     1      48.645  93.756  33.114  1.00  0.00     0.176 HD
ENDBRANCH  10  13
ENDBRANCH   1   9
BRANCH   1  16
HETATM   16  N3  UNL     1      44.909  92.520  35.499  1.00  0.00    -0.292 N 
HETATM   17  C3  UNL     1      43.733  92.477  36.281  1.00  0.00     0.332 C 
HETATM   18  N4  UNL     1      43.595  93.325  37.420  1.00  0.00    -0.040 NA
HETATM   19  O2  UNL     1      42.788  91.710  36.011  1.00  0.00    -0.251 OA
ATOM     20  H3  UNL     1      45.634  93.176  35.790  1.00  0.00     0.168 HD
ENDBRANCH   1  16
TORSDOF 3
ENDMDL
MODEL 5
REMARK VINA RESULT: -5.584924511      1.971      3.365
REMARK  3 active torsions:
REMARK  status: ('A' for Active; 'I' for Inactive)
REMARK    1  A    between atoms: N1_1  and  N2_4 
REMARK       I    between atoms: N2_4  and  C1_6 
REMARK    2  A    between atoms: C1_6  and  C2_8 
REMARK    3  A    between atoms: C2_8  and  N3_9 
REMARK       I    between atoms: N3_9  and  C3_11 
ROOT
HETATM    1  C2  UNL     1      45.286  91.047  34.830  1.00  0.00     0.293 C 
HETATM    2  N5  UNL     1      44.979  89.911  33.978  1.00  0.00    -0.248 N 
ATOM      3  H5  UNL     1      44.819  89.821  32.974  1.00  0.00     0.178 HD
HETATM    4  S1  UNL     1      44.979  88.789  35.246  1.00  0.00     0.322 S 
HETATM    5  O3  UNL     1      43.631  88.301  35.688  1.00  0.00    -0.183 OA
HETATM    6  O4  UNL     1      45.976  87.675  35.047  1.00  0.00    -0.183 OA
HETATM    7  N6  UNL     1      45.565  90.224  35.937  1.00  0.00    -0.248 N 
ATOM      8  H6  UNL     1      45.980  90.422  36.848  1.00  0.00     0.178 HD
ENDROOT
BRANCH   1   9
HETATM    9  C1  UNL     1      44.082  91.925  35.065  1.00  0.00     0.308 C 
HETATM   10  N2  UNL     1      44.200  93.146  35.740  1.00  0.00    -0.271 N 
ATOM     11  H2  UNL     1      45.103  93.473  36.085  1.00  0.00     0.189 HD
HETATM   12  O1  UNL     1      42.983  91.528  34.638  1.00  0.00    -0.265 OA
BRANCH  10  13
HETATM   13  N1  UNL     1      43.023  93.914  35.927  1.00  0.00    -0.342 N 
ATOM     14  H12 UNL     1      42.601  93.988  36.853  1.00  0.00     0.176 HD
ATOM     15  H11 UNL     1      42.625  94.379  35.111  1.00  0.00     0.176 HD
ENDBRANCH  10  13
ENDBRANCH   1   9
BRANCH   1  16
HETATM   16  N3  UNL     1      46.342  91.821  34.224  1.00  0.00    -0.292 N 
HETATM   17  C3  UNL     1      47.189  92.738  34.887  1.00  0.00     0.332 C 
HETATM   18  N4  UNL     1      48.196  93.440  34.161  1.00  0.00    -0.040 NA
HETATM   19  O2  UNL     1      47.091  92.962  36.109  1.00  0.00    -0.251 OA
ATOM     20  H3  UNL     1      46.491  91.696  33.223  1.00  0.00     0.168 HD
ENDBRANCH   1  16
TORSDOF 3
ENDMDL
