MODEL 1
REMARK VINA RESULT: -4.865452260      0.000      0.000
REMARK  2 active torsions:
REMARK  status: ('A' for Active; 'I' for Inactive)
REMARK    1  A    between atoms: O1_2  and  C2_3 
REMARK    2  A    between atoms: C6_11  and  N2_12 
REMARK       I    between atoms: N2_12  and  C7_14 
ROOT
HETATM    1  C2  UNL     1      23.831  11.627  21.797  1.00  0.00     0.172 C 
HETATM    2  C3  UNL     1      22.916  12.821  21.594  1.00  0.00     0.053 C 
HETATM    3  C4  UNL     1      22.240  12.727  20.265  1.00  0.00     0.086 C 
HETATM    4 BR1  UNL     1      22.800  14.122  19.052  1.00  0.00    -0.089 Br
HETATM    5  C5  UNL     1      22.403  11.404  19.587  1.00  0.00     0.250 C 
HETATM    6  N1  UNL     1      23.746  10.942  19.487  1.00  0.00    -0.051 N 
ATOM      7  H11 UNL     1      24.122  11.130  18.557  1.00  0.00     0.279 HD
ATOM      8  H12 UNL     1      23.775   9.923  19.480  1.00  0.00     0.279 HD
HETATM    9  C6  UNL     1      24.623  11.470  20.508  1.00  0.00     0.315 C 
ENDROOT
BRANCH   9  10
HETATM   10  N2  UNL     1      25.814  10.696  20.680  1.00  0.00    -0.332 N 
HETATM   11  C7  UNL     1      26.858  10.681  19.728  1.00  0.00     0.215 C 
HETATM   12  C8  UNL     1      28.088   9.880  19.906  1.00  0.00     0.117 C 
HETATM   13  O2  UNL     1      26.737  11.372  18.692  1.00  0.00    -0.274 OA
ATOM     14  H2  UNL     1      25.914  10.132  21.524  1.00  0.00     0.164 HD
ENDBRANCH   9  10
BRANCH   1  15
HETATM   15  O1  UNL     1      23.122  10.468  22.062  1.00  0.00    -0.387 OA
HETATM   16  C1  UNL     1      22.814  10.300  23.400  1.00  0.00     0.202 C 
ENDBRANCH   1  15
TORSDOF 2
ENDMDL
MODEL 2
REMARK VINA RESULT: -4.749251895      5.526      7.704
REMARK  2 active torsions:
REMARK  status: ('A' for Active; 'I' for Inactive)
REMARK    1  A    between atoms: O1_2  and  C2_3 
REMARK    2  A    between atoms: C6_11  and  N2_12 
REMARK       I    between atoms: N2_12  and  C7_14 
ROOT
HETATM    1  C2  UNL     1      20.258  11.170  23.669  1.00  0.00     0.172 C 
HETATM    2  C3  UNL     1      20.831  12.516  23.264  1.00  0.00     0.053 C 
HETATM    3  C4  UNL     1      20.672  13.495  24.380  1.00  0.00     0.086 C 
HETATM    4 BR1  UNL     1      19.448  14.924  23.940  1.00  0.00    -0.089 Br
HETATM    5  C5  UNL     1      20.253  12.883  25.679  1.00  0.00     0.250 C 
HETATM    6  N1  UNL     1      19.109  12.040  25.602  1.00  0.00    -0.051 N 
ATOM      7  H11 UNL     1      18.273  12.539  25.908  1.00  0.00     0.279 HD
ATOM      8  H12 UNL     1      19.148  11.316  26.319  1.00  0.00     0.279 HD
HETATM    9  C6  UNL     1      18.902  11.453  24.297  1.00  0.00     0.315 C 
ENDROOT
BRANCH   9  10
HETATM   10  N2  UNL     1      18.054  10.300  24.328  1.00  0.00    -0.332 N 
HETATM   11  C7  UNL     1      16.740  10.334  24.847  1.00  0.00     0.215 C 
HETATM   12  C8  UNL     1      15.865   9.142  24.879  1.00  0.00     0.117 C 
HETATM   13  O2  UNL     1      16.299  11.414  25.298  1.00  0.00    -0.274 OA
ATOM     14  H2  UNL     1      18.413   9.419  23.961  1.00  0.00     0.164 HD
ENDBRANCH   9  10
BRANCH   1  15
HETATM   15  O1  UNL     1      21.072  10.511  24.575  1.00  0.00    -0.387 OA
HETATM   16  C1  UNL     1      22.304  10.154  24.056  1.00  0.00     0.202 C 
ENDBRANCH   1  15
TORSDOF 2
ENDMDL
MODEL 3
REMARK VINA RESULT: -4.671442352      7.633      8.553
REMARK  2 active torsions:
REMARK  status: ('A' for Active; 'I' for Inactive)
REMARK    1  A    between atoms: O1_2  and  C2_3 
REMARK    2  A    between atoms: C6_11  and  N2_12 
REMARK       I    between atoms: N2_12  and  C7_14 
ROOT
HETATM    1  C2  UNL     1      19.051  11.836  26.792  1.00  0.00     0.172 C 
HETATM    2  C3  UNL     1      20.299  12.627  26.442  1.00  0.00     0.053 C 
HETATM    3  C4  UNL     1      19.946  13.769  25.548  1.00  0.00     0.086 C 
HETATM    4 BR1  UNL     1      20.692  13.578  23.776  1.00  0.00    -0.089 Br
HETATM    5  C5  UNL     1      18.477  14.022  25.427  1.00  0.00     0.250 C 
HETATM    6  N1  UNL     1      17.696  12.880  25.092  1.00  0.00    -0.051 N 
ATOM      7  H11 UNL     1      17.476  12.875  24.096  1.00  0.00     0.279 HD
ATOM      8  H12 UNL     1      16.755  12.963  25.475  1.00  0.00     0.279 HD
HETATM    9  C6  UNL     1      18.298  11.626  25.487  1.00  0.00     0.315 C 
ENDROOT
BRANCH   9  10
HETATM   10  N2  UNL     1      17.357  10.550  25.558  1.00  0.00    -0.332 N 
HETATM   11  C7  UNL     1      16.786   9.959  24.408  1.00  0.00     0.215 C 
HETATM   12  C8  UNL     1      15.813   8.848  24.482  1.00  0.00     0.117 C 
HETATM   13  O2  UNL     1      17.115  10.394  23.282  1.00  0.00    -0.274 OA
ATOM     14  H2  UNL     1      17.088  10.195  26.475  1.00  0.00     0.164 HD
ENDBRANCH   9  10
BRANCH   1  15
HETATM   15  O1  UNL     1      18.250  12.506  27.700  1.00  0.00    -0.387 OA
HETATM   16  C1  UNL     1      18.808  12.609  28.962  1.00  0.00     0.202 C 
ENDBRANCH   1  15
TORSDOF 2
ENDMDL
MODEL 4
REMARK VINA RESULT: -4.560761761      1.682      4.147
REMARK  2 active torsions:
REMARK  status: ('A' for Active; 'I' for Inactive)
REMARK    1  A    between atoms: O1_2  and  C2_3 
REMARK    2  A    between atoms: C6_11  and  N2_12 
REMARK       I    between atoms: N2_12  and  C7_14 
ROOT
HETATM    1  C2  UNL     1      25.640  10.807  19.663  1.00  0.00     0.172 C 
HETATM    2  C3  UNL     1      25.562  11.512  18.320  1.00  0.00     0.053 C 
HETATM    3  C4  UNL     1      25.534  12.991  18.520  1.00  0.00     0.086 C 
HETATM    4 BR1  UNL     1      23.852  13.776  17.986  1.00  0.00    -0.089 Br
HETATM    5  C5  UNL     1      25.848  13.428  19.916  1.00  0.00     0.250 C 
HETATM    6  N1  UNL     1      25.088  12.782  20.932  1.00  0.00    -0.051 N 
ATOM      7  H11 UNL     1      24.317  13.377  21.236  1.00  0.00     0.279 HD
ATOM      8  H12 UNL     1      25.619  12.733  21.800  1.00  0.00     0.279 HD
HETATM    9  C6  UNL     1      24.604  11.473  20.555  1.00  0.00     0.315 C 
ENDROOT
BRANCH   9  10
HETATM   10  N2  UNL     1      24.239  10.665  21.679  1.00  0.00    -0.332 N 
HETATM   11  C7  UNL     1      23.163  10.990  22.535  1.00  0.00     0.215 C 
HETATM   12  C8  UNL     1      22.788  10.155  23.697  1.00  0.00     0.117 C 
HETATM   13  O2  UNL     1      22.502  12.026  22.303  1.00  0.00    -0.274 OA
ATOM     14  H2  UNL     1      24.778   9.821  21.870  1.00  0.00     0.164 HD
ENDBRANCH   9  10
BRANCH   1  15
HETATM   15  O1  UNL     1      26.896  10.915  20.234  1.00  0.00    -0.387 OA
HETATM   16  C1  UNL     1      27.834  10.065  19.673  1.00  0.00     0.202 C 
ENDBRANCH   1  15
TORSDOF 2
ENDMDL
MODEL 5
REMARK VINA RESULT: -4.547299975      1.918      2.254
REMARK  2 active torsions:
REMARK  status: ('A' for Active; 'I' for Inactive)
REMARK    1  A    between atoms: O1_2  and  C2_3 
REMARK    2  A    between atoms: C6_11  and  N2_12 
REMARK       I    between atoms: N2_12  and  C7_14 
ROOT
HETATM    1  C2  UNL     1      23.032  12.491  20.233  1.00  0.00     0.172 C 
HETATM    2  C3  UNL     1      22.480  13.874  20.529  1.00  0.00     0.053 C 
HETATM    3  C4  UNL     1      22.696  14.772  19.356  1.00  0.00     0.086 C 
HETATM    4 BR1  UNL     1      23.941  16.199  19.738  1.00  0.00    -0.089 Br
HETATM    5  C5  UNL     1      23.140  14.064  18.115  1.00  0.00     0.250 C 
HETATM    6  N1  UNL     1      24.260  13.203  18.284  1.00  0.00    -0.051 N 
ATOM      7  H11 UNL     1      25.116  13.661  17.972  1.00  0.00     0.279 HD
ATOM      8  H12 UNL     1      24.225  12.433  17.616  1.00  0.00     0.279 HD
HETATM    9  C6  UNL     1      24.413  12.701  19.631  1.00  0.00     0.315 C 
ENDROOT
BRANCH   9  10
HETATM   10  N2  UNL     1      25.233  11.530  19.704  1.00  0.00    -0.332 N 
HETATM   11  C7  UNL     1      26.637  11.572  19.554  1.00  0.00     0.215 C 
HETATM   12  C8  UNL     1      27.484  10.362  19.629  1.00  0.00     0.117 C 
HETATM   13  O2  UNL     1      27.187  12.677  19.349  1.00  0.00    -0.274 OA
ATOM     14  H2  UNL     1      24.786  10.629  19.871  1.00  0.00     0.164 HD
ENDBRANCH   9  10
BRANCH   1  15
HETATM   15  O1  UNL     1      22.230  11.791  19.348  1.00  0.00    -0.387 OA
HETATM   16  C1  UNL     1      21.740  10.604  19.864  1.00  0.00     0.202 C 
ENDBRANCH   1  15
TORSDOF 2
ENDMDL
