MODEL 1
REMARK VINA RESULT: -8.350233704      0.000      0.000
REMARK  11 active torsions:
REMARK  status: ('A' for Active; 'I' for Inactive)
REMARK    1  A    between atoms: O1_2  and  C2_3 
REMARK    2  A    between atoms: C3_4  and  C4_5 
REMARK    3  A    between atoms: C4_5  and  O2_6 
REMARK    4  A    between atoms: C4_5  and  N1_8 
REMARK    5  A    between atoms: N1_8  and  N2_10 
REMARK    6  A    between atoms: C5_12  and  C6_13 
REMARK    7  A    between atoms: C6_13  and  O3_16 
REMARK    8  A    between atoms: C11_21  and  N3_22 
REMARK    9  A    between atoms: C13_26  and  O7_27 
REMARK   10  A    between atoms: C15_30  and  O8_31 
REMARK   11  A    between atoms: C17_34  and  O9_35 
ROOT
HETATM    1  C2  UNL     1      16.093  -3.002   1.699  1.00  0.00     0.100 A 
HETATM    2  C3  UNL     1      16.824  -2.233   2.453  1.00  0.00     0.101 A 
HETATM    3  C9  UNL     1      18.298  -2.142   2.185  1.00  0.00     0.202 A 
HETATM    4  O4  UNL     1      18.969  -1.390   2.934  1.00  0.00    -0.286 OA
HETATM    5  C10 UNL     1      18.863  -2.907   1.095  1.00  0.00     0.060 A 
HETATM    6  C11 UNL     1      20.213  -2.815   0.822  1.00  0.00     0.120 A 
HETATM    7  C12 UNL     1      20.687  -3.559  -0.287  1.00  0.00     0.074 A 
HETATM    8  C13 UNL     1      19.856  -4.328  -1.043  1.00  0.00     0.082 A 
HETATM    9  C14 UNL     1      18.511  -4.407  -0.749  1.00  0.00     0.043 A 
HETATM   10  C15 UNL     1      17.688  -5.171  -1.564  1.00  0.00     0.082 A 
HETATM   11  C16 UNL     1      16.358  -5.226  -1.306  1.00  0.00     0.075 A 
HETATM   12  C17 UNL     1      15.807  -4.536  -0.238  1.00  0.00     0.082 A 
HETATM   13  C18 UNL     1      16.627  -3.784   0.575  1.00  0.00     0.044 A 
HETATM   14  C19 UNL     1      17.999  -3.699   0.326  1.00  0.00     0.012 A 
ENDROOT
BRANCH   2  15
HETATM   15  C4  UNL     1      16.332  -1.443   3.533  1.00  0.00     0.172 C 
BRANCH  15  16
HETATM   16  O2  UNL     1      16.719  -1.771   4.740  1.00  0.00    -0.344 OA
ATOM     17  H2  UNL     1      16.658  -1.103   5.414  1.00  0.00     0.219 HD
ENDBRANCH  15  16
BRANCH  15  18
HETATM   18  N1  UNL     1      15.494  -0.334   3.529  1.00  0.00    -0.280 N 
ATOM     19  H1  UNL     1      14.484  -0.464   3.581  1.00  0.00     0.189 HD
BRANCH  18  20
HETATM   20  N2  UNL     1      16.036   0.998   3.449  1.00  0.00    -0.311 N 
HETATM   21  C5  UNL     1      15.903   1.676   4.531  1.00  0.00     0.117 C 
ATOM     22  H2  UNL     1      16.486   1.368   2.612  1.00  0.00     0.185 HD
BRANCH  21  23
HETATM   23  C6  UNL     1      16.419   3.058   4.578  1.00  0.00     0.084 C 
HETATM   24  C7  UNL     1      17.853   3.064   5.065  1.00  0.00     0.051 C 
HETATM   25  C8  UNL     1      15.519   3.821   5.549  1.00  0.00     0.051 C 
BRANCH  23  26
HETATM   26  O3  UNL     1      16.378   3.614   3.316  1.00  0.00    -0.385 OA
ATOM     27  H3  UNL     1      16.696   4.509   3.349  1.00  0.00     0.211 HD
ENDBRANCH  23  26
ENDBRANCH  21  23
ENDBRANCH  18  20
ENDBRANCH  15  18
ENDBRANCH   2  15
BRANCH   1  28
HETATM   28  O1  UNL     1      14.696  -3.158   1.898  1.00  0.00    -0.354 OA
HETATM   29  C1  UNL     1      14.455  -3.917   3.137  1.00  0.00     0.210 C 
ENDBRANCH   1  28
BRANCH  12  30
HETATM   30  O9  UNL     1      14.441  -4.608  -0.019  1.00  0.00    -0.360 OA
ATOM     31  H9  UNL     1      14.119  -4.712   0.868  1.00  0.00     0.217 HD
ENDBRANCH  12  30
BRANCH   6  32
HETATM   32  N3  UNL     1      21.154  -2.056   1.529  1.00  0.00    -0.115 N 
HETATM   33  O5  UNL     1      21.523  -0.917   1.290  1.00  0.00    -0.532 OA
HETATM   34  O6  UNL     1      21.677  -2.603   2.726  1.00  0.00    -0.532 OA
ENDBRANCH   6  32
BRANCH  10  35
HETATM   35  O8  UNL     1      18.285  -5.849  -2.619  1.00  0.00    -0.360 OA
ATOM     36  H8  UNL     1      18.129  -5.517  -3.496  1.00  0.00     0.217 HD
ENDBRANCH  10  35
BRANCH   8  37
HETATM   37  O7  UNL     1      20.346  -5.039  -2.116  1.00  0.00    -0.360 OA
ATOM     38  H7  UNL     1      20.587  -5.953  -2.019  1.00  0.00     0.217 HD
ENDBRANCH   8  37
TORSDOF 11
ENDMDL
MODEL 2
REMARK VINA RESULT: -8.345570521      1.188      1.322
REMARK  11 active torsions:
REMARK  status: ('A' for Active; 'I' for Inactive)
REMARK    1  A    between atoms: O1_2  and  C2_3 
REMARK    2  A    between atoms: C3_4  and  C4_5 
REMARK    3  A    between atoms: C4_5  and  O2_6 
REMARK    4  A    between atoms: C4_5  and  N1_8 
REMARK    5  A    between atoms: N1_8  and  N2_10 
REMARK    6  A    between atoms: C5_12  and  C6_13 
REMARK    7  A    between atoms: C6_13  and  O3_16 
REMARK    8  A    between atoms: C11_21  and  N3_22 
REMARK    9  A    between atoms: C13_26  and  O7_27 
REMARK   10  A    between atoms: C15_30  and  O8_31 
REMARK   11  A    between atoms: C17_34  and  O9_35 
ROOT
HETATM    1  C2  UNL     1      16.699  -3.171   2.127  1.00  0.00     0.100 A 
HETATM    2  C3  UNL     1      17.723  -2.630   2.720  1.00  0.00     0.101 A 
HETATM    3  C9  UNL     1      19.069  -2.706   2.060  1.00  0.00     0.202 A 
HETATM    4  O4  UNL     1      20.032  -2.173   2.664  1.00  0.00    -0.286 OA
HETATM    5  C10 UNL     1      19.189  -3.375   0.783  1.00  0.00     0.060 A 
HETATM    6  C11 UNL     1      20.416  -3.432   0.153  1.00  0.00     0.120 A 
HETATM    7  C12 UNL     1      20.448  -4.065  -1.115  1.00  0.00     0.074 A 
HETATM    8  C13 UNL     1      19.329  -4.591  -1.682  1.00  0.00     0.082 A 
HETATM    9  C14 UNL     1      18.114  -4.525  -1.032  1.00  0.00     0.043 A 
HETATM   10  C15 UNL     1      16.987  -5.039  -1.658  1.00  0.00     0.082 A 
HETATM   11  C16 UNL     1      15.782  -4.946  -1.044  1.00  0.00     0.075 A 
HETATM   12  C17 UNL     1      15.656  -4.350   0.201  1.00  0.00     0.082 A 
HETATM   13  C18 UNL     1      16.778  -3.846   0.824  1.00  0.00     0.044 A 
HETATM   14  C19 UNL     1      18.030  -3.918   0.211  1.00  0.00     0.012 A 
ENDROOT
BRANCH   2  15
HETATM   15  C4  UNL     1      17.675  -1.946   3.970  1.00  0.00     0.172 C 
BRANCH  15  16
HETATM   16  O2  UNL     1      17.227  -2.614   5.003  1.00  0.00    -0.344 OA
ATOM     17  H2  UNL     1      17.269  -2.186   5.850  1.00  0.00     0.219 HD
ENDBRANCH  15  16
BRANCH  15  18
HETATM   18  N1  UNL     1      18.049  -0.648   4.301  1.00  0.00    -0.280 N 
ATOM     19  H1  UNL     1      18.835  -0.495   4.934  1.00  0.00     0.189 HD
BRANCH  18  20
HETATM   20  N2  UNL     1      17.340   0.483   3.761  1.00  0.00    -0.311 N 
HETATM   21  C5  UNL     1      16.363   0.879   4.495  1.00  0.00     0.117 C 
ATOM     22  H2  UNL     1      17.589   0.928   2.878  1.00  0.00     0.185 HD
BRANCH  21  23
HETATM   23  C6  UNL     1      15.556   2.032   4.051  1.00  0.00     0.084 C 
HETATM   24  C7  UNL     1      16.216   3.328   4.479  1.00  0.00     0.051 C 
HETATM   25  C8  UNL     1      14.188   1.881   4.714  1.00  0.00     0.051 C 
BRANCH  23  26
HETATM   26  O3  UNL     1      15.450   2.024   2.675  1.00  0.00    -0.385 OA
ATOM     27  H3  UNL     1      15.028   2.823   2.382  1.00  0.00     0.211 HD
ENDBRANCH  23  26
ENDBRANCH  21  23
ENDBRANCH  18  20
ENDBRANCH  15  18
ENDBRANCH   2  15
BRANCH   1  28
HETATM   28  O1  UNL     1      15.397  -3.159   2.692  1.00  0.00    -0.354 OA
HETATM   29  C1  UNL     1      14.799  -1.823   2.528  1.00  0.00     0.210 C 
ENDBRANCH   1  28
BRANCH  12  30
HETATM   30  O9  UNL     1      14.404  -4.263   0.785  1.00  0.00    -0.360 OA
ATOM     31  H9  UNL     1      14.087  -3.416   1.077  1.00  0.00     0.217 HD
ENDBRANCH  12  30
BRANCH   6  32
HETATM   32  N3  UNL     1      21.625  -2.923   0.642  1.00  0.00    -0.115 N 
HETATM   33  O5  UNL     1      22.068  -1.793   0.503  1.00  0.00    -0.532 OA
HETATM   34  O6  UNL     1      22.397  -3.755   1.489  1.00  0.00    -0.532 OA
ENDBRANCH   6  32
BRANCH  10  35
HETATM   35  O8  UNL     1      17.162  -5.632  -2.902  1.00  0.00    -0.360 OA
ATOM     36  H8  UNL     1      17.812  -6.321  -2.970  1.00  0.00     0.217 HD
ENDBRANCH  10  35
BRANCH   8  37
HETATM   37  O7  UNL     1      19.391  -5.200  -2.916  1.00  0.00    -0.360 OA
ATOM     38  H7  UNL     1      19.036  -4.768  -3.685  1.00  0.00     0.217 HD
ENDBRANCH   8  37
TORSDOF 11
ENDMDL
MODEL 3
REMARK VINA RESULT: -8.163590619      1.743      2.074
REMARK  11 active torsions:
REMARK  status: ('A' for Active; 'I' for Inactive)
REMARK    1  A    between atoms: O1_2  and  C2_3 
REMARK    2  A    between atoms: C3_4  and  C4_5 
REMARK    3  A    between atoms: C4_5  and  O2_6 
REMARK    4  A    between atoms: C4_5  and  N1_8 
REMARK    5  A    between atoms: N1_8  and  N2_10 
REMARK    6  A    between atoms: C5_12  and  C6_13 
REMARK    7  A    between atoms: C6_13  and  O3_16 
REMARK    8  A    between atoms: C11_21  and  N3_22 
REMARK    9  A    between atoms: C13_26  and  O7_27 
REMARK   10  A    between atoms: C15_30  and  O8_31 
REMARK   11  A    between atoms: C17_34  and  O9_35 
ROOT
HETATM    1  C2  UNL     1      16.651  -3.390   2.294  1.00  0.00     0.100 A 
HETATM    2  C3  UNL     1      17.675  -2.912   2.940  1.00  0.00     0.101 A 
HETATM    3  C9  UNL     1      19.027  -2.949   2.290  1.00  0.00     0.202 A 
HETATM    4  O4  UNL     1      19.989  -2.478   2.945  1.00  0.00    -0.286 OA
HETATM    5  C10 UNL     1      19.153  -3.510   0.962  1.00  0.00     0.060 A 
HETATM    6  C11 UNL     1      20.387  -3.529   0.342  1.00  0.00     0.120 A 
HETATM    7  C12 UNL     1      20.425  -4.054  -0.974  1.00  0.00     0.074 A 
HETATM    8  C13 UNL     1      19.307  -4.519  -1.594  1.00  0.00     0.082 A 
HETATM    9  C14 UNL     1      18.086  -4.493  -0.953  1.00  0.00     0.043 A 
HETATM   10  C15 UNL     1      16.961  -4.940  -1.630  1.00  0.00     0.082 A 
HETATM   11  C16 UNL     1      15.750  -4.885  -1.023  1.00  0.00     0.075 A 
HETATM   12  C17 UNL     1      15.617  -4.393   0.266  1.00  0.00     0.082 A 
HETATM   13  C18 UNL     1      16.737  -3.956   0.940  1.00  0.00     0.044 A 
HETATM   14  C19 UNL     1      17.995  -3.990   0.335  1.00  0.00     0.012 A 
ENDROOT
BRANCH   2  15
HETATM   15  C4  UNL     1      17.620  -2.334   4.243  1.00  0.00     0.172 C 
BRANCH  15  16
HETATM   16  O2  UNL     1      18.277  -2.942   5.197  1.00  0.00    -0.344 OA
ATOM     17  H2  UNL     1      18.406  -2.467   6.010  1.00  0.00     0.219 HD
ENDBRANCH  15  16
BRANCH  15  18
HETATM   18  N1  UNL     1      16.979  -1.184   4.691  1.00  0.00    -0.280 N 
ATOM     19  H1  UNL     1      15.985  -1.054   4.501  1.00  0.00     0.189 HD
BRANCH  18  20
HETATM   20  N2  UNL     1      17.702  -0.175   5.421  1.00  0.00    -0.311 N 
HETATM   21  C5  UNL     1      18.571   0.451   4.713  1.00  0.00     0.117 C 
ATOM     22  H2  UNL     1      17.539   0.023   6.407  1.00  0.00     0.185 HD
BRANCH  21  23
HETATM   23  C6  UNL     1      19.379   1.512   5.346  1.00  0.00     0.084 C 
HETATM   24  C7  UNL     1      18.623   2.825   5.330  1.00  0.00     0.051 C 
HETATM   25  C8  UNL     1      20.664   1.621   4.526  1.00  0.00     0.051 C 
BRANCH  23  26
HETATM   26  O3  UNL     1      19.648   1.173   6.656  1.00  0.00    -0.385 OA
ATOM     27  H3  UNL     1      19.314   0.302   6.837  1.00  0.00     0.211 HD
ENDBRANCH  23  26
ENDBRANCH  21  23
ENDBRANCH  18  20
ENDBRANCH  15  18
ENDBRANCH   2  15
BRANCH   1  28
HETATM   28  O1  UNL     1      15.344  -3.411   2.845  1.00  0.00    -0.354 OA
HETATM   29  C1  UNL     1      15.261  -4.452   3.883  1.00  0.00     0.210 C 
ENDBRANCH   1  28
BRANCH  12  30
HETATM   30  O9  UNL     1      14.359  -4.340   0.843  1.00  0.00    -0.360 OA
ATOM     31  H9  UNL     1      14.152  -4.931   1.559  1.00  0.00     0.217 HD
ENDBRANCH  12  30
BRANCH   6  32
HETATM   32  N3  UNL     1      21.596  -3.075   0.883  1.00  0.00    -0.115 N 
HETATM   33  O5  UNL     1      22.430  -3.727   1.493  1.00  0.00    -0.532 OA
HETATM   34  O6  UNL     1      21.976  -1.737   0.619  1.00  0.00    -0.532 OA
ENDBRANCH   6  32
BRANCH  10  35
HETATM   35  O8  UNL     1      17.142  -5.429  -2.917  1.00  0.00    -0.360 OA
ATOM     36  H8  UNL     1      17.796  -5.003  -3.459  1.00  0.00     0.217 HD
ENDBRANCH  10  35
BRANCH   8  37
HETATM   37  O7  UNL     1      19.376  -5.022  -2.874  1.00  0.00    -0.360 OA
ATOM     38  H7  UNL     1      19.589  -5.936  -3.021  1.00  0.00     0.217 HD
ENDBRANCH   8  37
TORSDOF 11
ENDMDL
MODEL 4
REMARK VINA RESULT: -8.148619439      1.993      4.143
REMARK  11 active torsions:
REMARK  status: ('A' for Active; 'I' for Inactive)
REMARK    1  A    between atoms: O1_2  and  C2_3 
REMARK    2  A    between atoms: C3_4  and  C4_5 
REMARK    3  A    between atoms: C4_5  and  O2_6 
REMARK    4  A    between atoms: C4_5  and  N1_8 
REMARK    5  A    between atoms: N1_8  and  N2_10 
REMARK    6  A    between atoms: C5_12  and  C6_13 
REMARK    7  A    between atoms: C6_13  and  O3_16 
REMARK    8  A    between atoms: C11_21  and  N3_22 
REMARK    9  A    between atoms: C13_26  and  O7_27 
REMARK   10  A    between atoms: C15_30  and  O8_31 
REMARK   11  A    between atoms: C17_34  and  O9_35 
ROOT
HETATM    1  C2  UNL     1      17.791  -2.806   1.924  1.00  0.00     0.100 A 
HETATM    2  C3  UNL     1      16.719  -3.275   1.356  1.00  0.00     0.101 A 
HETATM    3  C9  UNL     1      16.845  -3.979   0.036  1.00  0.00     0.202 A 
HETATM    4  O4  UNL     1      15.788  -4.418  -0.480  1.00  0.00    -0.286 OA
HETATM    5  C10 UNL     1      18.154  -4.118  -0.564  1.00  0.00     0.060 A 
HETATM    6  C11 UNL     1      18.289  -4.784  -1.767  1.00  0.00     0.120 A 
HETATM    7  C12 UNL     1      19.606  -4.919  -2.271  1.00  0.00     0.074 A 
HETATM    8  C13 UNL     1      20.683  -4.417  -1.609  1.00  0.00     0.082 A 
HETATM    9  C14 UNL     1      20.524  -3.752  -0.411  1.00  0.00     0.043 A 
HETATM   10  C15 UNL     1      21.649  -3.287   0.255  1.00  0.00     0.082 A 
HETATM   11  C16 UNL     1      21.507  -2.665   1.452  1.00  0.00     0.075 A 
HETATM   12  C17 UNL     1      20.256  -2.482   2.020  1.00  0.00     0.082 A 
HETATM   13  C18 UNL     1      19.139  -2.939   1.353  1.00  0.00     0.044 A 
HETATM   14  C19 UNL     1      19.256  -3.593   0.125  1.00  0.00     0.012 A 
ENDROOT
BRANCH   2  15
HETATM   15  C4  UNL     1      15.402  -3.185   1.896  1.00  0.00     0.172 C 
BRANCH  15  16
HETATM   16  O2  UNL     1      14.867  -4.286   2.359  1.00  0.00    -0.344 OA
ATOM     17  H2  UNL     1      14.476  -4.250   3.224  1.00  0.00     0.219 HD
ENDBRANCH  15  16
BRANCH  15  18
HETATM   18  N1  UNL     1      14.561  -2.087   2.036  1.00  0.00    -0.280 N 
ATOM     19  H1  UNL     1      13.556  -2.200   1.898  1.00  0.00     0.189 HD
BRANCH  18  20
HETATM   20  N2  UNL     1      15.091  -0.791   2.373  1.00  0.00    -0.311 N 
HETATM   21  C5  UNL     1      15.023  -0.514   3.625  1.00  0.00     0.117 C 
ATOM     22  H2  UNL     1      15.485  -0.154   1.682  1.00  0.00     0.185 HD
BRANCH  21  23
HETATM   23  C6  UNL     1      15.535   0.786   4.099  1.00  0.00     0.084 C 
HETATM   24  C7  UNL     1      15.288   0.934   5.586  1.00  0.00     0.051 C 
HETATM   25  C8  UNL     1      14.777   1.858   3.318  1.00  0.00     0.051 C 
BRANCH  23  26
HETATM   26  O3  UNL     1      16.893   0.864   3.868  1.00  0.00    -0.385 OA
ATOM     27  H3  UNL     1      17.052   1.241   3.010  1.00  0.00     0.211 HD
ENDBRANCH  23  26
ENDBRANCH  21  23
ENDBRANCH  18  20
ENDBRANCH  15  18
ENDBRANCH   2  15
BRANCH   1  28
HETATM   28  O1  UNL     1      17.756  -2.111   3.162  1.00  0.00    -0.354 OA
HETATM   29  C1  UNL     1      17.542  -3.069   4.260  1.00  0.00     0.210 C 
ENDBRANCH   1  28
BRANCH  12  30
HETATM   30  O9  UNL     1      20.157  -1.855   3.250  1.00  0.00    -0.360 OA
ATOM     31  H9  UNL     1      19.304  -1.767   3.659  1.00  0.00     0.217 HD
ENDBRANCH  12  30
BRANCH   6  32
HETATM   32  N3  UNL     1      17.254  -5.340  -2.528  1.00  0.00    -0.115 N 
HETATM   33  O5  UNL     1      16.612  -4.804  -3.418  1.00  0.00    -0.532 OA
HETATM   34  O6  UNL     1      16.965  -6.715  -2.344  1.00  0.00    -0.532 OA
ENDBRANCH   6  32
BRANCH  10  35
HETATM   35  O8  UNL     1      22.881  -3.489  -0.354  1.00  0.00    -0.360 OA
ATOM     36  H8  UNL     1      23.252  -4.362  -0.311  1.00  0.00     0.217 HD
ENDBRANCH  10  35
BRANCH   8  37
HETATM   37  O7  UNL     1      21.952  -4.565  -2.125  1.00  0.00    -0.360 OA
ATOM     38  H7  UNL     1      22.706  -4.239  -1.649  1.00  0.00     0.217 HD
ENDBRANCH   8  37
TORSDOF 11
ENDMDL
MODEL 5
REMARK VINA RESULT: -8.103055731      1.517      1.951
REMARK  11 active torsions:
REMARK  status: ('A' for Active; 'I' for Inactive)
REMARK    1  A    between atoms: O1_2  and  C2_3 
REMARK    2  A    between atoms: C3_4  and  C4_5 
REMARK    3  A    between atoms: C4_5  and  O2_6 
REMARK    4  A    between atoms: C4_5  and  N1_8 
REMARK    5  A    between atoms: N1_8  and  N2_10 
REMARK    6  A    between atoms: C5_12  and  C6_13 
REMARK    7  A    between atoms: C6_13  and  O3_16 
REMARK    8  A    between atoms: C11_21  and  N3_22 
REMARK    9  A    between atoms: C13_26  and  O7_27 
REMARK   10  A    between atoms: C15_30  and  O8_31 
REMARK   11  A    between atoms: C17_34  and  O9_35 
ROOT
HETATM    1  C2  UNL     1      17.105  -2.397   2.255  1.00  0.00     0.100 A 
HETATM    2  C3  UNL     1      18.252  -1.874   2.577  1.00  0.00     0.101 A 
HETATM    3  C9  UNL     1      19.461  -2.212   1.753  1.00  0.00     0.202 A 
HETATM    4  O4  UNL     1      20.549  -1.688   2.095  1.00  0.00    -0.286 OA
HETATM    5  C10 UNL     1      19.315  -3.105   0.625  1.00  0.00     0.060 A 
HETATM    6  C11 UNL     1      20.413  -3.407  -0.156  1.00  0.00     0.120 A 
HETATM    7  C12 UNL     1      20.185  -4.253  -1.269  1.00  0.00     0.074 A 
HETATM    8  C13 UNL     1      18.950  -4.747  -1.554  1.00  0.00     0.082 A 
HETATM    9  C14 UNL     1      17.868  -4.436  -0.758  1.00  0.00     0.043 A 
HETATM   10  C15 UNL     1      16.616  -4.927  -1.100  1.00  0.00     0.082 A 
HETATM   11  C16 UNL     1      15.539  -4.596  -0.345  1.00  0.00     0.075 A 
HETATM   12  C17 UNL     1      15.668  -3.779   0.767  1.00  0.00     0.082 A 
HETATM   13  C18 UNL     1      16.914  -3.297   1.110  1.00  0.00     0.044 A 
HETATM   14  C19 UNL     1      18.039  -3.612   0.344  1.00  0.00     0.012 A 
ENDROOT
BRANCH   2  15
HETATM   15  C4  UNL     1      18.465  -0.979   3.666  1.00  0.00     0.172 C 
BRANCH  15  16
HETATM   16  O2  UNL     1      19.147  -1.429   4.688  1.00  0.00    -0.344 OA
ATOM     17  H2  UNL     1      18.768  -1.310   5.552  1.00  0.00     0.219 HD
ENDBRANCH  15  16
BRANCH  15  18
HETATM   18  N1  UNL     1      18.074   0.346   3.832  1.00  0.00    -0.280 N 
ATOM     19  H1  UNL     1      18.781   1.080   3.873  1.00  0.00     0.189 HD
BRANCH  18  20
HETATM   20  N2  UNL     1      16.681   0.692   3.947  1.00  0.00    -0.311 N 
HETATM   21  C5  UNL     1      16.255   0.725   5.158  1.00  0.00     0.117 C 
ATOM     22  H2  UNL     1      16.088   0.892   3.142  1.00  0.00     0.185 HD
BRANCH  21  23
HETATM   23  C6  UNL     1      14.841   1.069   5.410  1.00  0.00     0.084 C 
HETATM   24  C7  UNL     1      14.727   2.509   5.864  1.00  0.00     0.051 C 
HETATM   25  C8  UNL     1      14.357   0.120   6.504  1.00  0.00     0.051 C 
BRANCH  23  26
HETATM   26  O3  UNL     1      14.110   0.911   4.250  1.00  0.00    -0.385 OA
ATOM     27  H3  UNL     1      14.198   1.686   3.707  1.00  0.00     0.211 HD
ENDBRANCH  23  26
ENDBRANCH  21  23
ENDBRANCH  18  20
ENDBRANCH  15  18
ENDBRANCH   2  15
BRANCH   1  28
HETATM   28  O1  UNL     1      15.919  -2.144   2.993  1.00  0.00    -0.354 OA
HETATM   29  C1  UNL     1      15.953  -2.898   4.258  1.00  0.00     0.210 C 
ENDBRANCH   1  28
BRANCH  12  30
HETATM   30  O9  UNL     1      14.540  -3.453   1.501  1.00  0.00    -0.360 OA
ATOM     31  H9  UNL     1      14.644  -3.089   2.373  1.00  0.00     0.217 HD
ENDBRANCH  12  30
BRANCH   6  32
HETATM   32  N3  UNL     1      21.723  -2.953   0.042  1.00  0.00    -0.115 N 
HETATM   33  O5  UNL     1      22.222  -1.916  -0.366  1.00  0.00    -0.532 OA
HETATM   34  O6  UNL     1      22.559  -3.708   0.901  1.00  0.00    -0.532 OA
ENDBRANCH   6  32
BRANCH  10  35
HETATM   35  O8  UNL     1      16.536  -5.745  -2.219  1.00  0.00    -0.360 OA
ATOM     36  H8  UNL     1      15.811  -5.599  -2.817  1.00  0.00     0.217 HD
ENDBRANCH  10  35
BRANCH   8  37
HETATM   37  O7  UNL     1      18.759  -5.567  -2.644  1.00  0.00    -0.360 OA
ATOM     38  H7  UNL     1      19.381  -6.258  -2.843  1.00  0.00     0.217 HD
ENDBRANCH   8  37
TORSDOF 11
ENDMDL
