MODEL 1
REMARK VINA RESULT: -7.584592376      0.000      0.000
REMARK  12 active torsions:
REMARK  status: ('A' for Active; 'I' for Inactive)
REMARK    1  A    between atoms: O1_2  and  C2_3 
REMARK    2  A    between atoms: C2_3  and  C3_5 
REMARK    3  A    between atoms: C3_5  and  N1_7 
REMARK    4  A    between atoms: N1_7  and  N2_9 
REMARK    5  A    between atoms: N2_9  and  C5_11 
REMARK    6  A    between atoms: C8_18  and  C9_19 
REMARK    7  A    between atoms: C9_19  and  O3_20 
REMARK    8  A    between atoms: N5_22  and  O4_24 
REMARK    9  A    between atoms: O4_24  and  C10_25 
REMARK   10  A    between atoms: C10_25  and  C13_28 
REMARK   11  A    between atoms: C14_31  and  O7_32 
REMARK   12  A    between atoms: C16_35  and  O8_36 
ROOT
HETATM    1  C5  UNL     1      17.817  -3.190   1.136  1.00  0.00     0.136 A 
HETATM    2  N3  UNL     1      19.138  -2.971   1.217  1.00  0.00    -0.337 N 
ATOM      3  H3  UNL     1      19.775  -3.571   0.693  1.00  0.00     0.168 HD
HETATM    4  C6  UNL     1      19.642  -1.982   1.968  1.00  0.00     0.182 A 
HETATM    5  N4  UNL     1      18.826  -1.174   2.671  1.00  0.00    -0.351 N 
ATOM      6  H4  UNL     1      19.224  -0.426   3.239  1.00  0.00     0.166 HD
HETATM    7  C7  UNL     1      17.494  -1.342   2.634  1.00  0.00     0.067 A 
HETATM    8  C8  UNL     1      16.633  -0.526   3.345  1.00  0.00     0.077 A 
HETATM    9  C14 UNL     1      15.263  -0.797   3.227  1.00  0.00     0.085 A 
HETATM   10  C15 UNL     1      14.776  -1.815   2.450  1.00  0.00     0.075 A 
HETATM   11  C16 UNL     1      15.618  -2.632   1.739  1.00  0.00     0.084 A 
HETATM   12  C17 UNL     1      16.966  -2.375   1.847  1.00  0.00     0.070 A 
ENDROOT
BRANCH   8  13
HETATM   13  C9  UNL     1      17.090   0.553   4.179  1.00  0.00     0.175 C 
HETATM   14  N5  UNL     1      16.664   1.698   4.232  1.00  0.00    -0.243 N 
ATOM     15  H5  UNL     1      15.895   1.805   3.572  1.00  0.00     0.196 HD
BRANCH  13  16
HETATM   16  O3  UNL     1      18.176   0.233   5.045  1.00  0.00    -0.344 OA
ATOM     17  H3  UNL     1      19.025   0.169   4.622  1.00  0.00     0.219 HD
ENDBRANCH  13  16
BRANCH  14  18
HETATM   18  O4  UNL     1      16.867   2.828   4.853  1.00  0.00    -0.257 OA
BRANCH  18  19
HETATM   19  C10 UNL     1      16.454   4.131   4.708  1.00  0.00     0.169 C 
HETATM   20  C11 UNL     1      17.615   5.123   4.670  1.00  0.00     0.060 C 
HETATM   21  C12 UNL     1      15.413   4.566   5.751  1.00  0.00     0.060 C 
BRANCH  19  22
HETATM   22  C13 UNL     1      15.771   4.279   3.387  1.00  0.00     0.211 C 
HETATM   23  O5  UNL     1      16.128   5.148   2.555  1.00  0.00    -0.646 OA
HETATM   24  O6  UNL     1      14.719   3.444   3.064  1.00  0.00    -0.646 OA
ENDBRANCH  19  22
ENDBRANCH  18  19
ENDBRANCH  14  18
ENDBRANCH   8  13
BRANCH   9  25
HETATM   25  O7  UNL     1      14.380   0.018   3.940  1.00  0.00    -0.360 OA
ATOM     26  H7  UNL     1      14.465   0.958   3.833  1.00  0.00     0.217 HD
ENDBRANCH   9  25
BRANCH   1  27
HETATM   27  N2  UNL     1      17.324  -4.144   0.411  1.00  0.00    -0.284 N 
ATOM     28  H2  UNL     1      16.860  -4.941   0.846  1.00  0.00     0.188 HD
BRANCH  27  29
HETATM   29  N1  UNL     1      17.441  -4.059  -0.974  1.00  0.00    -0.298 N 
ATOM     30  H1  UNL     1      17.054  -3.246  -1.453  1.00  0.00     0.187 HD
BRANCH  29  31
HETATM   31  C3  UNL     1      18.020  -4.973  -1.667  1.00  0.00     0.097 C 
HETATM   32  C4  UNL     1      17.206  -6.121  -2.124  1.00  0.00     0.076 C 
BRANCH  31  33
HETATM   33  C2  UNL     1      19.451  -4.884  -2.000  1.00  0.00     0.306 C 
HETATM   34  O2  UNL     1      19.884  -5.375  -3.072  1.00  0.00    -0.258 OA
BRANCH  33  35
HETATM   35  O1  UNL     1      20.353  -4.266  -1.153  1.00  0.00    -0.322 OA
HETATM   36  C1  UNL     1      21.764  -4.395  -1.307  1.00  0.00     0.213 C 
ENDBRANCH  33  35
ENDBRANCH  31  33
ENDBRANCH  29  31
ENDBRANCH  27  29
ENDBRANCH   1  27
BRANCH  11  37
HETATM   37  O8  UNL     1      15.124  -3.664   0.951  1.00  0.00    -0.360 OA
ATOM     38  H8  UNL     1      15.517  -4.529   0.969  1.00  0.00     0.217 HD
ENDBRANCH  11  37
TORSDOF 12
ENDMDL
MODEL 2
REMARK VINA RESULT: -7.579406281      3.349      4.836
REMARK  12 active torsions:
REMARK  status: ('A' for Active; 'I' for Inactive)
REMARK    1  A    between atoms: O1_2  and  C2_3 
REMARK    2  A    between atoms: C2_3  and  C3_5 
REMARK    3  A    between atoms: C3_5  and  N1_7 
REMARK    4  A    between atoms: N1_7  and  N2_9 
REMARK    5  A    between atoms: N2_9  and  C5_11 
REMARK    6  A    between atoms: C8_18  and  C9_19 
REMARK    7  A    between atoms: C9_19  and  O3_20 
REMARK    8  A    between atoms: N5_22  and  O4_24 
REMARK    9  A    between atoms: O4_24  and  C10_25 
REMARK   10  A    between atoms: C10_25  and  C13_28 
REMARK   11  A    between atoms: C14_31  and  O7_32 
REMARK   12  A    between atoms: C16_35  and  O8_36 
ROOT
HETATM    1  C5  UNL     1      16.642  -3.098   4.322  1.00  0.00     0.136 A 
HETATM    2  N3  UNL     1      15.967  -4.077   4.944  1.00  0.00    -0.337 N 
ATOM      3  H3  UNL     1      16.243  -5.047   4.791  1.00  0.00     0.168 HD
HETATM    4  C6  UNL     1      14.939  -3.811   5.761  1.00  0.00     0.182 A 
HETATM    5  N4  UNL     1      14.550  -2.541   5.981  1.00  0.00    -0.351 N 
ATOM      6  H4  UNL     1      13.766  -2.354   6.606  1.00  0.00     0.166 HD
HETATM    7  C7  UNL     1      15.185  -1.517   5.387  1.00  0.00     0.067 A 
HETATM    8  C8  UNL     1      14.807  -0.202   5.596  1.00  0.00     0.077 A 
HETATM    9  C14 UNL     1      15.544   0.782   4.923  1.00  0.00     0.085 A 
HETATM   10  C15 UNL     1      16.592   0.481   4.094  1.00  0.00     0.075 A 
HETATM   11  C16 UNL     1      16.978  -0.818   3.877  1.00  0.00     0.084 A 
HETATM   12  C17 UNL     1      16.261  -1.793   4.533  1.00  0.00     0.070 A 
ENDROOT
BRANCH   8  13
HETATM   13  C9  UNL     1      13.712   0.169   6.452  1.00  0.00     0.175 C 
HETATM   14  N5  UNL     1      12.833   0.991   6.238  1.00  0.00    -0.243 N 
ATOM     15  H5  UNL     1      12.976   1.411   5.320  1.00  0.00     0.196 HD
BRANCH  13  16
HETATM   16  O3  UNL     1      13.661  -0.514   7.702  1.00  0.00    -0.344 OA
ATOM     17  H3  UNL     1      14.454  -0.466   8.223  1.00  0.00     0.219 HD
ENDBRANCH  13  16
BRANCH  14  18
HETATM   18  O4  UNL     1      11.772   1.510   6.795  1.00  0.00    -0.257 OA
BRANCH  18  19
HETATM   19  C10 UNL     1      10.821   2.440   6.448  1.00  0.00     0.169 C 
HETATM   20  C11 UNL     1      11.190   3.858   6.878  1.00  0.00     0.060 C 
HETATM   21  C12 UNL     1       9.408   2.084   6.935  1.00  0.00     0.060 C 
BRANCH  19  22
HETATM   22  C13 UNL     1      10.719   2.497   4.958  1.00  0.00     0.211 C 
HETATM   23  O5  UNL     1       9.745   1.996   4.346  1.00  0.00    -0.646 OA
HETATM   24  O6  UNL     1      11.715   3.115   4.228  1.00  0.00    -0.646 OA
ENDBRANCH  19  22
ENDBRANCH  18  19
ENDBRANCH  14  18
ENDBRANCH   8  13
BRANCH   9  25
HETATM   25  O7  UNL     1      15.176   2.115   5.123  1.00  0.00    -0.360 OA
ATOM     26  H7  UNL     1      15.475   2.753   4.486  1.00  0.00     0.217 HD
ENDBRANCH   9  25
BRANCH   1  27
HETATM   27  N2  UNL     1      17.637  -3.349   3.531  1.00  0.00    -0.284 N 
ATOM     28  H2  UNL     1      18.549  -2.919   3.690  1.00  0.00     0.188 HD
BRANCH  27  29
HETATM   29  N1  UNL     1      17.438  -4.216   2.460  1.00  0.00    -0.298 N 
ATOM     30  H1  UNL     1      17.564  -5.218   2.605  1.00  0.00     0.187 HD
BRANCH  29  31
HETATM   31  C3  UNL     1      17.100  -3.794   1.294  1.00  0.00     0.097 C 
HETATM   32  C4  UNL     1      18.177  -3.473   0.331  1.00  0.00     0.076 C 
BRANCH  31  33
HETATM   33  C2  UNL     1      15.686  -3.633   0.923  1.00  0.00     0.306 C 
HETATM   34  O2  UNL     1      15.057  -2.597   1.255  1.00  0.00    -0.258 OA
BRANCH  33  35
HETATM   35  O1  UNL     1      15.011  -4.604   0.205  1.00  0.00    -0.322 OA
HETATM   36  C1  UNL     1      15.421  -5.024  -1.093  1.00  0.00     0.213 C 
ENDBRANCH  33  35
ENDBRANCH  31  33
ENDBRANCH  29  31
ENDBRANCH  27  29
ENDBRANCH   1  27
BRANCH  11  37
HETATM   37  O8  UNL     1      18.041  -1.123   3.037  1.00  0.00    -0.360 OA
ATOM     38  H8  UNL     1      18.578  -1.893   3.182  1.00  0.00     0.217 HD
ENDBRANCH  11  37
TORSDOF 12
ENDMDL
MODEL 3
REMARK VINA RESULT: -7.567839622      3.466      9.228
REMARK  12 active torsions:
REMARK  status: ('A' for Active; 'I' for Inactive)
REMARK    1  A    between atoms: O1_2  and  C2_3 
REMARK    2  A    between atoms: C2_3  and  C3_5 
REMARK    3  A    between atoms: C3_5  and  N1_7 
REMARK    4  A    between atoms: N1_7  and  N2_9 
REMARK    5  A    between atoms: N2_9  and  C5_11 
REMARK    6  A    between atoms: C8_18  and  C9_19 
REMARK    7  A    between atoms: C9_19  and  O3_20 
REMARK    8  A    between atoms: N5_22  and  O4_24 
REMARK    9  A    between atoms: O4_24  and  C10_25 
REMARK   10  A    between atoms: C10_25  and  C13_28 
REMARK   11  A    between atoms: C14_31  and  O7_32 
REMARK   12  A    between atoms: C16_35  and  O8_36 
ROOT
HETATM    1  C5  UNL     1      13.685   2.599   5.166  1.00  0.00     0.136 A 
HETATM    2  N3  UNL     1      14.037   3.439   4.180  1.00  0.00    -0.337 N 
ATOM      3  H3  UNL     1      13.680   4.395   4.190  1.00  0.00     0.168 HD
HETATM    4  C6  UNL     1      14.846   3.054   3.184  1.00  0.00     0.182 A 
HETATM    5  N4  UNL     1      15.332   1.799   3.144  1.00  0.00    -0.351 N 
ATOM      6  H4  UNL     1      15.947   1.520   2.379  1.00  0.00     0.166 HD
HETATM    7  C7  UNL     1      15.016   0.910   4.100  1.00  0.00     0.067 A 
HETATM    8  C8  UNL     1      15.502  -0.386   4.084  1.00  0.00     0.077 A 
HETATM    9  C14 UNL     1      15.104  -1.223   5.135  1.00  0.00     0.085 A 
HETATM   10  C15 UNL     1      14.276  -0.801   6.142  1.00  0.00     0.075 A 
HETATM   11  C16 UNL     1      13.787   0.481   6.171  1.00  0.00     0.084 A 
HETATM   12  C17 UNL     1      14.171   1.312   5.143  1.00  0.00     0.070 A 
ENDROOT
BRANCH   8  13
HETATM   13  C9  UNL     1      16.370  -0.881   3.049  1.00  0.00     0.175 C 
HETATM   14  N5  UNL     1      16.160  -1.792   2.262  1.00  0.00    -0.243 N 
ATOM     15  H5  UNL     1      15.236  -2.187   2.436  1.00  0.00     0.196 HD
BRANCH  13  16
HETATM   16  O3  UNL     1      17.626  -0.218   2.942  1.00  0.00    -0.344 OA
ATOM     17  H3  UNL     1      17.679   0.441   2.259  1.00  0.00     0.219 HD
ENDBRANCH  13  16
BRANCH  14  18
HETATM   18  O4  UNL     1      16.727  -2.428   1.273  1.00  0.00    -0.257 OA
BRANCH  18  19
HETATM   19  C10 UNL     1      16.897  -3.741   0.901  1.00  0.00     0.169 C 
HETATM   20  C11 UNL     1      17.177  -4.664   2.085  1.00  0.00     0.060 C 
HETATM   21  C12 UNL     1      17.959  -3.938  -0.192  1.00  0.00     0.060 C 
BRANCH  19  22
HETATM   22  C13 UNL     1      15.623  -4.246   0.305  1.00  0.00     0.211 C 
HETATM   23  O5  UNL     1      15.588  -4.749  -0.845  1.00  0.00    -0.646 OA
HETATM   24  O6  UNL     1      14.449  -4.160   1.027  1.00  0.00    -0.646 OA
ENDBRANCH  19  22
ENDBRANCH  18  19
ENDBRANCH  14  18
ENDBRANCH   8  13
BRANCH   9  25
HETATM   25  O7  UNL     1      15.585  -2.535   5.133  1.00  0.00    -0.360 OA
ATOM     26  H7  UNL     1      16.133  -2.801   4.405  1.00  0.00     0.217 HD
ENDBRANCH   9  25
BRANCH   1  27
HETATM   27  N2  UNL     1      12.904   2.966   6.131  1.00  0.00    -0.284 N 
ATOM     28  H2  UNL     1      12.955   2.511   7.044  1.00  0.00     0.188 HD
BRANCH  27  29
HETATM   29  N1  UNL     1      11.992   3.994   5.901  1.00  0.00    -0.298 N 
ATOM     30  H1  UNL     1      12.335   4.951   5.830  1.00  0.00     0.187 HD
BRANCH  29  31
HETATM   31  C3  UNL     1      10.733   3.772   5.774  1.00  0.00     0.097 C 
HETATM   32  C4  UNL     1       9.820   4.936   5.759  1.00  0.00     0.076 C 
BRANCH  31  33
HETATM   33  C2  UNL     1      10.209   2.403   5.647  1.00  0.00     0.306 C 
HETATM   34  O2  UNL     1       9.780   1.988   4.541  1.00  0.00    -0.258 OA
BRANCH  33  35
HETATM   35  O1  UNL     1      10.174   1.539   6.727  1.00  0.00    -0.322 OA
HETATM   36  C1  UNL     1       9.080   1.493   7.638  1.00  0.00     0.213 C 
ENDBRANCH  33  35
ENDBRANCH  31  33
ENDBRANCH  29  31
ENDBRANCH  27  29
ENDBRANCH   1  27
BRANCH  11  37
HETATM   37  O8  UNL     1      12.948   0.908   7.192  1.00  0.00    -0.360 OA
ATOM     38  H8  UNL     1      13.297   1.210   8.022  1.00  0.00     0.217 HD
ENDBRANCH  11  37
TORSDOF 12
ENDMDL
MODEL 4
REMARK VINA RESULT: -7.435593571      5.048      8.476
REMARK  12 active torsions:
REMARK  status: ('A' for Active; 'I' for Inactive)
REMARK    1  A    between atoms: O1_2  and  C2_3 
REMARK    2  A    between atoms: C2_3  and  C3_5 
REMARK    3  A    between atoms: C3_5  and  N1_7 
REMARK    4  A    between atoms: N1_7  and  N2_9 
REMARK    5  A    between atoms: N2_9  and  C5_11 
REMARK    6  A    between atoms: C8_18  and  C9_19 
REMARK    7  A    between atoms: C9_19  and  O3_20 
REMARK    8  A    between atoms: N5_22  and  O4_24 
REMARK    9  A    between atoms: O4_24  and  C10_25 
REMARK   10  A    between atoms: C10_25  and  C13_28 
REMARK   11  A    between atoms: C14_31  and  O7_32 
REMARK   12  A    between atoms: C16_35  and  O8_36 
ROOT
HETATM    1  C5  UNL     1      15.249   3.070   4.343  1.00  0.00     0.136 A 
HETATM    2  N3  UNL     1      15.674   4.321   4.577  1.00  0.00    -0.337 N 
ATOM      3  H3  UNL     1      15.023   5.097   4.463  1.00  0.00     0.168 HD
HETATM    4  C6  UNL     1      16.933   4.575   4.958  1.00  0.00     0.182 A 
HETATM    5  N4  UNL     1      17.816   3.571   5.117  1.00  0.00    -0.351 N 
ATOM      6  H4  UNL     1      18.772   3.781   5.407  1.00  0.00     0.166 HD
HETATM    7  C7  UNL     1      17.453   2.297   4.897  1.00  0.00     0.067 A 
HETATM    8  C8  UNL     1      18.340   1.246   5.053  1.00  0.00     0.077 A 
HETATM    9  C14 UNL     1      17.847  -0.040   4.796  1.00  0.00     0.085 A 
HETATM   10  C15 UNL     1      16.553  -0.271   4.409  1.00  0.00     0.075 A 
HETATM   11  C16 UNL     1      15.662   0.761   4.250  1.00  0.00     0.084 A 
HETATM   12  C17 UNL     1      16.136   2.029   4.500  1.00  0.00     0.070 A 
ENDROOT
BRANCH   8  13
HETATM   13  C9  UNL     1      19.709   1.433   5.453  1.00  0.00     0.175 C 
HETATM   14  N5  UNL     1      20.635   1.873   4.788  1.00  0.00    -0.243 N 
ATOM     15  H5  UNL     1      20.301   2.109   3.853  1.00  0.00     0.196 HD
BRANCH  13  16
HETATM   16  O3  UNL     1      20.007   1.051   6.793  1.00  0.00    -0.344 OA
ATOM     17  H3  UNL     1      19.755   0.165   7.027  1.00  0.00     0.219 HD
ENDBRANCH  13  16
BRANCH  14  18
HETATM   18  O4  UNL     1      21.909   2.142   4.877  1.00  0.00    -0.257 OA
BRANCH  18  19
HETATM   19  C10 UNL     1      23.007   2.041   4.055  1.00  0.00     0.169 C 
HETATM   20  C11 UNL     1      22.969   3.023   2.886  1.00  0.00     0.060 C 
HETATM   21  C12 UNL     1      23.265   0.614   3.547  1.00  0.00     0.060 C 
BRANCH  19  22
HETATM   22  C13 UNL     1      24.230   2.407   4.832  1.00  0.00     0.211 C 
HETATM   23  O5  UNL     1      25.360   2.470   4.290  1.00  0.00    -0.646 OA
HETATM   24  O6  UNL     1      24.125   2.685   6.181  1.00  0.00    -0.646 OA
ENDBRANCH  19  22
ENDBRANCH  18  19
ENDBRANCH  14  18
ENDBRANCH   8  13
BRANCH   9  25
HETATM   25  O7  UNL     1      18.729  -1.113   4.949  1.00  0.00    -0.360 OA
ATOM     26  H7  UNL     1      18.449  -1.838   5.495  1.00  0.00     0.217 HD
ENDBRANCH   9  25
BRANCH   1  27
HETATM   27  N2  UNL     1      14.033   2.817   3.976  1.00  0.00    -0.284 N 
ATOM     28  H2  UNL     1      13.846   2.189   3.194  1.00  0.00     0.188 HD
BRANCH  27  29
HETATM   29  N1  UNL     1      12.986   3.420   4.669  1.00  0.00    -0.298 N 
ATOM     30  H1  UNL     1      13.014   4.427   4.827  1.00  0.00     0.187 HD
BRANCH  29  31
HETATM   31  C3  UNL     1      11.986   2.747   5.114  1.00  0.00     0.097 C 
HETATM   32  C4  UNL     1      12.229   1.782   6.209  1.00  0.00     0.076 C 
BRANCH  31  33
HETATM   33  C2  UNL     1      10.637   2.928   4.556  1.00  0.00     0.306 C 
HETATM   34  O2  UNL     1       9.828   1.967   4.527  1.00  0.00    -0.258 OA
BRANCH  33  35
HETATM   35  O1  UNL     1      10.221   4.146   4.050  1.00  0.00    -0.322 OA
HETATM   36  C1  UNL     1      10.297   4.470   2.665  1.00  0.00     0.213 C 
ENDBRANCH  33  35
ENDBRANCH  31  33
ENDBRANCH  29  31
ENDBRANCH  27  29
ENDBRANCH   1  27
BRANCH  11  37
HETATM   37  O8  UNL     1      14.351   0.527   3.858  1.00  0.00    -0.360 OA
ATOM     38  H8  UNL     1      14.124  -0.226   3.324  1.00  0.00     0.217 HD
ENDBRANCH  11  37
TORSDOF 12
ENDMDL
MODEL 5
REMARK VINA RESULT: -7.418620986      1.631      2.514
REMARK  12 active torsions:
REMARK  status: ('A' for Active; 'I' for Inactive)
REMARK    1  A    between atoms: O1_2  and  C2_3 
REMARK    2  A    between atoms: C2_3  and  C3_5 
REMARK    3  A    between atoms: C3_5  and  N1_7 
REMARK    4  A    between atoms: N1_7  and  N2_9 
REMARK    5  A    between atoms: N2_9  and  C5_11 
REMARK    6  A    between atoms: C8_18  and  C9_19 
REMARK    7  A    between atoms: C9_19  and  O3_20 
REMARK    8  A    between atoms: N5_22  and  O4_24 
REMARK    9  A    between atoms: O4_24  and  C10_25 
REMARK   10  A    between atoms: C10_25  and  C13_28 
REMARK   11  A    between atoms: C14_31  and  O7_32 
REMARK   12  A    between atoms: C16_35  and  O8_36 
ROOT
HETATM    1  C5  UNL     1      16.472  -3.340   1.254  1.00  0.00     0.136 A 
HETATM    2  N3  UNL     1      15.133  -3.418   1.256  1.00  0.00    -0.337 N 
ATOM      3  H3  UNL     1      14.676  -4.155   0.720  1.00  0.00     0.168 HD
HETATM    4  C6  UNL     1      14.380  -2.551   1.947  1.00  0.00     0.182 A 
HETATM    5  N4  UNL     1      14.953  -1.566   2.664  1.00  0.00    -0.351 N 
ATOM      6  H4  UNL     1      14.367  -0.914   3.185  1.00  0.00     0.166 HD
HETATM    7  C7  UNL     1      16.290  -1.434   2.701  1.00  0.00     0.067 A 
HETATM    8  C8  UNL     1      16.905  -0.432   3.430  1.00  0.00     0.077 A 
HETATM    9  C14 UNL     1      18.306  -0.394   3.394  1.00  0.00     0.085 A 
HETATM   10  C15 UNL     1      19.051  -1.295   2.680  1.00  0.00     0.075 A 
HETATM   11  C16 UNL     1      18.454  -2.294   1.952  1.00  0.00     0.084 A 
HETATM   12  C17 UNL     1      17.079  -2.340   1.980  1.00  0.00     0.070 A 
ENDROOT
BRANCH   8  13
HETATM   13  C9  UNL     1      16.172   0.542   4.194  1.00  0.00     0.175 C 
HETATM   14  N5  UNL     1      16.231   1.760   4.117  1.00  0.00    -0.243 N 
ATOM     15  H5  UNL     1      16.908   2.024   3.400  1.00  0.00     0.196 HD
BRANCH  13  16
HETATM   16  O3  UNL     1      15.268   0.004   5.155  1.00  0.00    -0.344 OA
ATOM     17  H3  UNL     1      14.822   0.646   5.696  1.00  0.00     0.219 HD
ENDBRANCH  13  16
BRANCH  14  18
HETATM   18  O4  UNL     1      15.717   2.836   4.648  1.00  0.00    -0.257 OA
BRANCH  18  19
HETATM   19  C10 UNL     1      14.902   3.861   4.228  1.00  0.00     0.169 C 
HETATM   20  C11 UNL     1      15.272   4.388   2.844  1.00  0.00     0.060 C 
HETATM   21  C12 UNL     1      14.804   5.019   5.233  1.00  0.00     0.060 C 
BRANCH  19  22
HETATM   22  C13 UNL     1      13.506   3.344   4.089  1.00  0.00     0.211 C 
HETATM   23  O5  UNL     1      12.608   4.018   3.527  1.00  0.00    -0.646 OA
HETATM   24  O6  UNL     1      13.186   2.097   4.587  1.00  0.00    -0.646 OA
ENDBRANCH  19  22
ENDBRANCH  18  19
ENDBRANCH  14  18
ENDBRANCH   8  13
BRANCH   9  25
HETATM   25  O7  UNL     1      18.944   0.612   4.125  1.00  0.00    -0.360 OA
ATOM     26  H7  UNL     1      19.691   1.040   3.723  1.00  0.00     0.217 HD
ENDBRANCH   9  25
BRANCH   1  27
HETATM   27  N2  UNL     1      17.205  -4.175   0.589  1.00  0.00    -0.284 N 
ATOM     28  H2  UNL     1      17.824  -4.825   1.074  1.00  0.00     0.188 HD
BRANCH  27  29
HETATM   29  N1  UNL     1      17.133  -4.168  -0.802  1.00  0.00    -0.298 N 
ATOM     30  H1  UNL     1      16.587  -3.440  -1.264  1.00  0.00     0.187 HD
BRANCH  29  31
HETATM   31  C3  UNL     1      17.732  -5.049  -1.521  1.00  0.00     0.097 C 
HETATM   32  C4  UNL     1      16.973  -6.254  -1.920  1.00  0.00     0.076 C 
BRANCH  31  33
HETATM   33  C2  UNL     1      19.131  -4.868  -1.938  1.00  0.00     0.306 C 
HETATM   34  O2  UNL     1      19.524  -5.303  -3.049  1.00  0.00    -0.258 OA
BRANCH  33  35
HETATM   35  O1  UNL     1      20.049  -4.220  -1.130  1.00  0.00    -0.322 OA
HETATM   36  C1  UNL     1      21.455  -4.401  -1.266  1.00  0.00     0.213 C 
ENDBRANCH  33  35
ENDBRANCH  31  33
ENDBRANCH  29  31
ENDBRANCH  27  29
ENDBRANCH   1  27
BRANCH  11  37
HETATM   37  O8  UNL     1      19.209  -3.207   1.228  1.00  0.00    -0.360 OA
ATOM     38  H8  UNL     1      19.367  -4.084   1.556  1.00  0.00     0.217 HD
ENDBRANCH  11  37
TORSDOF 12
ENDMDL
