MODEL 1
REMARK VINA RESULT: -7.609652710      0.000      0.000
REMARK  10 active torsions:
REMARK  status: ('A' for Active; 'I' for Inactive)
REMARK    1  A    between atoms: C7_7  and  C9_9 
REMARK    2  A    between atoms: C9_9  and  O1_10 
REMARK    3  A    between atoms: C15_17  and  C16_18 
REMARK    4  A    between atoms: C16_18  and  N1_19 
REMARK    5  A    between atoms: N1_19  and  N2_21 
REMARK    6  A    between atoms: N2_21  and  C17_22 
REMARK    7  A    between atoms: C17_22  and  C18_24 
REMARK    8  A    between atoms: C18_24  and  O2_25 
REMARK    9  A    between atoms: C18_24  and  N4_27 
REMARK   10  A    between atoms: N4_27  and  N5_28 
ROOT
HETATM    1  C1  UNL     1       6.158  10.794  24.661  1.00  0.00     0.015 C 
HETATM    2  C2  UNL     1       6.921   9.867  24.134  1.00  0.00    -0.072 C 
HETATM    3  C3  UNL     1       7.461   9.791  22.775  1.00  0.00     0.035 C 
HETATM    4  C4  UNL     1       7.677   8.338  22.353  1.00  0.00     0.015 C 
HETATM    5  C5  UNL     1       6.584   7.422  22.867  1.00  0.00    -0.026 C 
HETATM    6  C6  UNL     1       5.315   8.000  22.176  1.00  0.00     0.017 C 
HETATM    7  C7  UNL     1       6.716   6.092  22.250  1.00  0.00    -0.015 C 
HETATM    8  C8  UNL     1       5.401   5.483  21.767  1.00  0.00     0.018 C 
HETATM    9  C10 UNL     1       7.304   5.031  23.170  1.00  0.00     0.012 C 
HETATM   10  C11 UNL     1       6.572   4.987  24.473  1.00  0.00     0.002 C 
HETATM   11  C12 UNL     1       6.921   6.299  25.144  1.00  0.00     0.011 C 
HETATM   12  C13 UNL     1       6.453   7.471  24.346  1.00  0.00    -0.017 C 
HETATM   13  C14 UNL     1       5.060   7.818  24.821  1.00  0.00     0.018 C 
HETATM   14  C15 UNL     1       7.329   8.655  24.958  1.00  0.00     0.114 C 
ENDROOT
BRANCH  14  15
HETATM   15  C16 UNL     1       7.158   8.789  26.297  1.00  0.00    -0.031 C 
BRANCH  15  16
HETATM   16  N1  UNL     1       7.008   8.890  27.590  1.00  0.00    -0.202 N 
ATOM     17  H1  UNL     1       6.274   9.550  27.845  1.00  0.00     0.211 HD
BRANCH  16  18
HETATM   18  N2  UNL     1       7.559   8.362  28.607  1.00  0.00    -0.297 NA
BRANCH  18  19
HETATM   19  C17 UNL     1       8.152   7.860  29.508  1.00  0.00     0.281 C 
HETATM   20  N3  UNL     1       7.516   6.979  30.468  1.00  0.00    -0.060 NA
BRANCH  19  21
HETATM   21  C18 UNL     1       9.603   8.107  29.888  1.00  0.00     0.295 C 
BRANCH  21  22
HETATM   22  O2  UNL     1       9.621   8.779  31.053  1.00  0.00    -0.331 OA
ATOM     23  H2  UNL     1      10.484   9.161  31.160  1.00  0.00     0.220 HD
ENDBRANCH  21  22
BRANCH  21  24
HETATM   24  N4  UNL     1      10.591   7.694  29.179  1.00  0.00    -0.302 NA
BRANCH  24  25
HETATM   25  N5  UNL     1      11.636   7.258  28.428  1.00  0.00    -0.278 N 
ATOM     26  H52 UNL     1      10.872   7.610  29.005  1.00  0.00     0.191 HD
ATOM     27  H51 UNL     1      12.421   6.930  27.864  1.00  0.00     0.191 HD
ENDBRANCH  24  25
ENDBRANCH  21  24
ENDBRANCH  19  21
ENDBRANCH  18  19
ENDBRANCH  16  18
ENDBRANCH  15  16
ENDBRANCH  14  15
BRANCH   7  28
HETATM   28  C9  UNL     1       7.563   5.995  21.022  1.00  0.00     0.173 C 
BRANCH  28  29
HETATM   29  O1  UNL     1       8.707   5.412  21.236  1.00  0.00    -0.400 OA
ATOM     30  H1  UNL     1       9.213   5.283  20.442  1.00  0.00     0.209 HD
ENDBRANCH  28  29
ENDBRANCH   7  28
TORSDOF 10
ENDMDL
MODEL 2
REMARK VINA RESULT: -7.388472607      1.844      3.489
REMARK  10 active torsions:
REMARK  status: ('A' for Active; 'I' for Inactive)
REMARK    1  A    between atoms: C7_7  and  C9_9 
REMARK    2  A    between atoms: C9_9  and  O1_10 
REMARK    3  A    between atoms: C15_17  and  C16_18 
REMARK    4  A    between atoms: C16_18  and  N1_19 
REMARK    5  A    between atoms: N1_19  and  N2_21 
REMARK    6  A    between atoms: N2_21  and  C17_22 
REMARK    7  A    between atoms: C17_22  and  C18_24 
REMARK    8  A    between atoms: C18_24  and  O2_25 
REMARK    9  A    between atoms: C18_24  and  N4_27 
REMARK   10  A    between atoms: N4_27  and  N5_28 
ROOT
HETATM    1  C1  UNL     1       7.027   6.306  25.425  1.00  0.00     0.015 C 
HETATM    2  C2  UNL     1       6.135   7.031  24.795  1.00  0.00    -0.072 C 
HETATM    3  C3  UNL     1       5.328   6.674  23.626  1.00  0.00     0.035 C 
HETATM    4  C4  UNL     1       4.970   7.916  22.809  1.00  0.00     0.015 C 
HETATM    5  C5  UNL     1       6.105   8.920  22.762  1.00  0.00    -0.026 C 
HETATM    6  C6  UNL     1       7.232   8.114  22.051  1.00  0.00     0.017 C 
HETATM    7  C7  UNL     1       5.796   9.979  21.788  1.00  0.00    -0.015 C 
HETATM    8  C8  UNL     1       6.959  10.361  20.875  1.00  0.00     0.018 C 
HETATM    9  C10 UNL     1       5.362  11.297  22.414  1.00  0.00     0.012 C 
HETATM   10  C11 UNL     1       6.341  11.744  23.452  1.00  0.00     0.002 C 
HETATM   11  C12 UNL     1       6.190  10.732  24.570  1.00  0.00     0.011 C 
HETATM   12  C13 UNL     1       6.536   9.352  24.117  1.00  0.00    -0.017 C 
HETATM   13  C14 UNL     1       8.009   9.141  24.383  1.00  0.00     0.018 C 
HETATM   14  C15 UNL     1       5.852   8.456  25.246  1.00  0.00     0.114 C 
ENDROOT
BRANCH  14  15
HETATM   15  C16 UNL     1       6.297   8.761  26.491  1.00  0.00    -0.031 C 
BRANCH  15  16
HETATM   16  N1  UNL     1       6.714   9.026  27.699  1.00  0.00    -0.202 N 
ATOM     17  H1  UNL     1       6.423   9.951  28.016  1.00  0.00     0.211 HD
BRANCH  16  18
HETATM   18  N2  UNL     1       7.397   8.407  28.575  1.00  0.00    -0.297 NA
BRANCH  18  19
HETATM   19  C17 UNL     1       7.967   7.847  29.456  1.00  0.00     0.281 C 
HETATM   20  N3  UNL     1       7.317   6.883  30.322  1.00  0.00    -0.060 NA
BRANCH  19  21
HETATM   21  C18 UNL     1       9.399   8.090  29.907  1.00  0.00     0.295 C 
BRANCH  21  22
HETATM   22  O2  UNL     1       9.362   8.705  31.102  1.00  0.00    -0.331 OA
ATOM     23  H2  UNL     1       9.629   9.609  30.977  1.00  0.00     0.220 HD
ENDBRANCH  21  22
BRANCH  21  24
HETATM   24  N4  UNL     1      10.420   7.721  29.219  1.00  0.00    -0.302 NA
BRANCH  24  25
HETATM   25  N5  UNL     1      11.500   7.332  28.493  1.00  0.00    -0.278 N 
ATOM     26  H52 UNL     1      10.697   7.600  29.061  1.00  0.00     0.191 HD
ATOM     27  H51 UNL     1      12.311   7.040  27.947  1.00  0.00     0.191 HD
ENDBRANCH  24  25
ENDBRANCH  21  24
ENDBRANCH  19  21
ENDBRANCH  18  19
ENDBRANCH  16  18
ENDBRANCH  15  16
ENDBRANCH  14  15
BRANCH   7  28
HETATM   28  C9  UNL     1       4.714   9.693  20.797  1.00  0.00     0.173 C 
BRANCH  28  29
HETATM   29  O1  UNL     1       3.712  10.520  20.882  1.00  0.00    -0.400 OA
ATOM     30  H1  UNL     1       3.668  11.129  20.154  1.00  0.00     0.209 HD
ENDBRANCH  28  29
ENDBRANCH   7  28
TORSDOF 10
ENDMDL
MODEL 3
REMARK VINA RESULT: -7.373626325      1.880      3.781
REMARK  10 active torsions:
REMARK  status: ('A' for Active; 'I' for Inactive)
REMARK    1  A    between atoms: C7_7  and  C9_9 
REMARK    2  A    between atoms: C9_9  and  O1_10 
REMARK    3  A    between atoms: C15_17  and  C16_18 
REMARK    4  A    between atoms: C16_18  and  N1_19 
REMARK    5  A    between atoms: N1_19  and  N2_21 
REMARK    6  A    between atoms: N2_21  and  C17_22 
REMARK    7  A    between atoms: C17_22  and  C18_24 
REMARK    8  A    between atoms: C18_24  and  O2_25 
REMARK    9  A    between atoms: C18_24  and  N4_27 
REMARK   10  A    between atoms: N4_27  and  N5_28 
ROOT
HETATM    1  C1  UNL     1       7.086   6.193  25.251  1.00  0.00     0.015 C 
HETATM    2  C2  UNL     1       6.187   6.919  24.631  1.00  0.00    -0.072 C 
HETATM    3  C3  UNL     1       5.434   6.598  23.417  1.00  0.00     0.035 C 
HETATM    4  C4  UNL     1       5.055   7.869  22.658  1.00  0.00     0.015 C 
HETATM    5  C5  UNL     1       6.150   8.916  22.706  1.00  0.00    -0.026 C 
HETATM    6  C6  UNL     1       7.330   8.195  21.991  1.00  0.00     0.017 C 
HETATM    7  C7  UNL     1       5.831  10.017  21.781  1.00  0.00    -0.015 C 
HETATM    8  C8  UNL     1       7.007  10.493  20.932  1.00  0.00     0.018 C 
HETATM    9  C10 UNL     1       5.325  11.280  22.463  1.00  0.00     0.012 C 
HETATM   10  C11 UNL     1       6.251  11.704  23.558  1.00  0.00     0.002 C 
HETATM   11  C12 UNL     1       6.103  10.626  24.613  1.00  0.00     0.011 C 
HETATM   12  C13 UNL     1       6.518   9.287  24.097  1.00  0.00    -0.017 C 
HETATM   13  C14 UNL     1       7.989   9.117  24.402  1.00  0.00     0.018 C 
HETATM   14  C15 UNL     1       5.834   8.304  25.150  1.00  0.00     0.114 C 
ENDROOT
BRANCH  14  15
HETATM   15  C16 UNL     1       6.224   8.555  26.424  1.00  0.00    -0.031 C 
BRANCH  15  16
HETATM   16  N1  UNL     1       6.622   8.773  27.648  1.00  0.00    -0.202 N 
ATOM     17  H1  UNL     1       5.982   9.378  28.162  1.00  0.00     0.211 HD
BRANCH  16  18
HETATM   18  N2  UNL     1       7.617   8.412  28.353  1.00  0.00    -0.297 NA
BRANCH  18  19
HETATM   19  C17 UNL     1       8.600   8.084  28.937  1.00  0.00     0.281 C 
HETATM   20  N3  UNL     1       9.889   7.954  28.287  1.00  0.00    -0.060 NA
BRANCH  19  21
HETATM   21  C18 UNL     1       8.689   7.652  30.392  1.00  0.00     0.295 C 
BRANCH  21  22
HETATM   22  O2  UNL     1       9.500   8.511  31.035  1.00  0.00    -0.331 OA
ATOM     23  H2  UNL     1       9.288   8.481  31.960  1.00  0.00     0.220 HD
ENDBRANCH  21  22
BRANCH  21  24
HETATM   24  N4  UNL     1       8.052   6.640  30.860  1.00  0.00    -0.302 NA
BRANCH  24  25
HETATM   25  N5  UNL     1       7.378   5.569  31.356  1.00  0.00    -0.278 N 
ATOM     26  H52 UNL     1       7.900   6.375  31.014  1.00  0.00     0.191 HD
ATOM     27  H51 UNL     1       6.871   4.765  31.728  1.00  0.00     0.191 HD
ENDBRANCH  24  25
ENDBRANCH  21  24
ENDBRANCH  19  21
ENDBRANCH  18  19
ENDBRANCH  16  18
ENDBRANCH  15  16
ENDBRANCH  14  15
BRANCH   7  28
HETATM   28  C9  UNL     1       4.795   9.747  20.738  1.00  0.00     0.173 C 
BRANCH  28  29
HETATM   29  O1  UNL     1       3.735  10.492  20.866  1.00  0.00    -0.400 OA
ATOM     30  H1  UNL     1       3.208  10.528  20.076  1.00  0.00     0.209 HD
ENDBRANCH  28  29
ENDBRANCH   7  28
TORSDOF 10
ENDMDL
MODEL 4
REMARK VINA RESULT: -7.303286945      0.612      1.521
REMARK  10 active torsions:
REMARK  status: ('A' for Active; 'I' for Inactive)
REMARK    1  A    between atoms: C7_7  and  C9_9 
REMARK    2  A    between atoms: C9_9  and  O1_10 
REMARK    3  A    between atoms: C15_17  and  C16_18 
REMARK    4  A    between atoms: C16_18  and  N1_19 
REMARK    5  A    between atoms: N1_19  and  N2_21 
REMARK    6  A    between atoms: N2_21  and  C17_22 
REMARK    7  A    between atoms: C17_22  and  C18_24 
REMARK    8  A    between atoms: C18_24  and  O2_25 
REMARK    9  A    between atoms: C18_24  and  N4_27 
REMARK   10  A    between atoms: N4_27  and  N5_28 
ROOT
HETATM    1  C1  UNL     1       6.302  10.604  24.556  1.00  0.00     0.015 C 
HETATM    2  C2  UNL     1       6.998   9.690  23.924  1.00  0.00    -0.072 C 
HETATM    3  C3  UNL     1       7.373   9.644  22.509  1.00  0.00     0.035 C 
HETATM    4  C4  UNL     1       7.540   8.200  22.036  1.00  0.00     0.015 C 
HETATM    5  C5  UNL     1       6.519   7.269  22.659  1.00  0.00    -0.026 C 
HETATM    6  C6  UNL     1       5.174   7.853  22.136  1.00  0.00     0.017 C 
HETATM    7  C7  UNL     1       6.579   5.951  22.004  1.00  0.00    -0.015 C 
HETATM    8  C8  UNL     1       5.218   5.346  21.670  1.00  0.00     0.018 C 
HETATM    9  C10 UNL     1       7.276   4.876  22.827  1.00  0.00     0.012 C 
HETATM   10  C11 UNL     1       6.705   4.804  24.207  1.00  0.00     0.002 C 
HETATM   11  C12 UNL     1       7.129   6.104  24.857  1.00  0.00     0.011 C 
HETATM   12  C13 UNL     1       6.565   7.289  24.144  1.00  0.00    -0.017 C 
HETATM   13  C14 UNL     1       5.238   7.620  24.789  1.00  0.00     0.018 C 
HETATM   14  C15 UNL     1       7.505   8.465  24.670  1.00  0.00     0.114 C 
ENDROOT
BRANCH  14  15
HETATM   15  C16 UNL     1       7.495   8.573  26.022  1.00  0.00    -0.031 C 
BRANCH  15  16
HETATM   16  N1  UNL     1       7.511   8.658  27.324  1.00  0.00    -0.202 N 
ATOM     17  H1  UNL     1       6.675   9.110  27.694  1.00  0.00     0.211 HD
BRANCH  16  18
HETATM   18  N2  UNL     1       8.321   8.312  28.242  1.00  0.00    -0.297 NA
BRANCH  18  19
HETATM   19  C17 UNL     1       9.131   7.952  29.035  1.00  0.00     0.281 C 
HETATM   20  N3  UNL     1      10.496   7.633  28.667  1.00  0.00    -0.060 NA
BRANCH  19  21
HETATM   21  C18 UNL     1       8.892   7.661  30.508  1.00  0.00     0.295 C 
BRANCH  21  22
HETATM   22  O2  UNL     1       9.550   8.587  31.229  1.00  0.00    -0.331 OA
ATOM     23  H2  UNL     1      10.251   8.151  31.699  1.00  0.00     0.220 HD
ENDBRANCH  21  22
BRANCH  21  24
HETATM   24  N4  UNL     1       8.156   6.691  30.918  1.00  0.00    -0.302 NA
BRANCH  24  25
HETATM   25  N5  UNL     1       7.378   5.665  31.352  1.00  0.00    -0.278 N 
ATOM     26  H52 UNL     1       7.970   6.417  30.999  1.00  0.00     0.191 HD
ATOM     27  H51 UNL     1       6.794   4.895  31.677  1.00  0.00     0.191 HD
ENDBRANCH  24  25
ENDBRANCH  21  24
ENDBRANCH  19  21
ENDBRANCH  18  19
ENDBRANCH  16  18
ENDBRANCH  15  16
ENDBRANCH  14  15
BRANCH   7  28
HETATM   28  C9  UNL     1       7.274   5.882  20.683  1.00  0.00     0.173 C 
BRANCH  28  29
HETATM   29  O1  UNL     1       8.208   4.976  20.643  1.00  0.00    -0.400 OA
ATOM     30  H1  UNL     1       9.006   5.282  20.229  1.00  0.00     0.209 HD
ENDBRANCH  28  29
ENDBRANCH   7  28
TORSDOF 10
ENDMDL
MODEL 5
REMARK VINA RESULT: -6.966232374      2.536      4.093
REMARK  10 active torsions:
REMARK  status: ('A' for Active; 'I' for Inactive)
REMARK    1  A    between atoms: C7_7  and  C9_9 
REMARK    2  A    between atoms: C9_9  and  O1_10 
REMARK    3  A    between atoms: C15_17  and  C16_18 
REMARK    4  A    between atoms: C16_18  and  N1_19 
REMARK    5  A    between atoms: N1_19  and  N2_21 
REMARK    6  A    between atoms: N2_21  and  C17_22 
REMARK    7  A    between atoms: C17_22  and  C18_24 
REMARK    8  A    between atoms: C18_24  and  O2_25 
REMARK    9  A    between atoms: C18_24  and  N4_27 
REMARK   10  A    between atoms: N4_27  and  N5_28 
ROOT
HETATM    1  C1  UNL     1       6.591   6.660  24.041  1.00  0.00     0.015 C 
HETATM    2  C2  UNL     1       5.874   7.494  23.327  1.00  0.00    -0.072 C 
HETATM    3  C3  UNL     1       5.292   7.292  21.999  1.00  0.00     0.035 C 
HETATM    4  C4  UNL     1       5.158   8.621  21.255  1.00  0.00     0.015 C 
HETATM    5  C5  UNL     1       6.327   9.549  21.520  1.00  0.00    -0.026 C 
HETATM    6  C6  UNL     1       7.530   8.736  20.958  1.00  0.00     0.017 C 
HETATM    7  C7  UNL     1       6.262  10.707  20.612  1.00  0.00    -0.015 C 
HETATM    8  C8  UNL     1       7.597  11.090  19.976  1.00  0.00     0.018 C 
HETATM    9  C10 UNL     1       5.779  11.991  21.271  1.00  0.00     0.012 C 
HETATM   10  C11 UNL     1       6.559  12.281  22.514  1.00  0.00     0.002 C 
HETATM   11  C12 UNL     1       6.147  11.189  23.479  1.00  0.00     0.011 C 
HETATM   12  C13 UNL     1       6.508   9.833  22.967  1.00  0.00    -0.017 C 
HETATM   13  C14 UNL     1       7.891   9.504  23.483  1.00  0.00     0.018 C 
HETATM   14  C15 UNL     1       5.577   8.890  23.854  1.00  0.00     0.114 C 
ENDROOT
BRANCH  14  15
HETATM   15  C16 UNL     1       5.786   9.056  25.184  1.00  0.00    -0.031 C 
BRANCH  15  16
HETATM   16  N1  UNL     1       6.019   9.209  26.459  1.00  0.00    -0.202 N 
ATOM     17  H1  UNL     1       5.305   9.775  26.919  1.00  0.00     0.211 HD
BRANCH  16  18
HETATM   18  N2  UNL     1       6.922   8.821  27.267  1.00  0.00    -0.297 NA
BRANCH  18  19
HETATM   19  C17 UNL     1       7.813   8.426  27.948  1.00  0.00     0.281 C 
HETATM   20  N3  UNL     1       7.729   8.375  29.394  1.00  0.00    -0.060 NA
BRANCH  19  21
HETATM   21  C18 UNL     1       9.199   8.012  27.478  1.00  0.00     0.295 C 
BRANCH  21  22
HETATM   22  O2  UNL     1       9.165   7.885  26.139  1.00  0.00    -0.331 OA
ATOM     23  H2  UNL     1       9.823   8.463  25.771  1.00  0.00     0.220 HD
ENDBRANCH  21  22
BRANCH  21  24
HETATM   24  N4  UNL     1      10.190   7.852  28.279  1.00  0.00    -0.302 NA
BRANCH  24  25
HETATM   25  N5  UNL     1      11.238   7.683  29.127  1.00  0.00    -0.278 N 
ATOM     26  H52 UNL     1      10.434   7.785  28.507  1.00  0.00     0.191 HD
ATOM     27  H51 UNL     1      12.025   7.557  29.764  1.00  0.00     0.191 HD
ENDBRANCH  24  25
ENDBRANCH  21  24
ENDBRANCH  19  21
ENDBRANCH  18  19
ENDBRANCH  16  18
ENDBRANCH  15  16
ENDBRANCH  14  15
BRANCH   7  28
HETATM   28  C9  UNL     1       5.381  10.579  19.413  1.00  0.00     0.173 C 
BRANCH  28  29
HETATM   29  O1  UNL     1       4.936  11.724  18.981  1.00  0.00    -0.400 OA
ATOM     30  H1  UNL     1       4.052  11.674  18.637  1.00  0.00     0.209 HD
ENDBRANCH  28  29
ENDBRANCH   7  28
TORSDOF 10
ENDMDL
