MODEL 1
REMARK VINA RESULT: -7.029481002      0.000      0.000
REMARK  16 active torsions:
REMARK  status: ('A' for Active; 'I' for Inactive)
REMARK    1  A    between atoms: N1_2  and  C2_3 
REMARK    2  A    between atoms: N1_2  and  C5_7 
REMARK    3  A    between atoms: C2_3  and  C3_4 
REMARK    4  A    between atoms: C3_4  and  C4_5 
REMARK    5  A    between atoms: C5_7  and  C6_8 
REMARK    6  A    between atoms: C6_8  and  C7_9 
REMARK    7  A    between atoms: C7_9  and  N2_10 
REMARK    8  A    between atoms: N2_10  and  C8_11 
REMARK       I    between atoms: N2_10  and  C10_15 
REMARK    9  A    between atoms: C8_11  and  C9_12 
REMARK   10  A    between atoms: C9_12  and  O1_13 
REMARK   11  A    between atoms: C10_15  and  C11_17 
REMARK   12  A    between atoms: C11_17  and  N3_18 
REMARK   13  A    between atoms: C11_17  and  C18_31 
REMARK       I    between atoms: N3_18  and  C12_20 
REMARK   14  A    between atoms: C12_20  and  C13_22 
REMARK   15  A    between atoms: C15_24  and  O4_25 
REMARK   16  A    between atoms: C16_27  and  O5_28 
ROOT
HETATM    1  C11 UNL     1       8.400  27.501   3.012  1.00  0.00     0.181 C 
ENDROOT
BRANCH   1   2
HETATM    2  C10 UNL     1       8.949  26.313   3.633  1.00  0.00     0.246 C 
HETATM    3  N2  UNL     1       8.314  25.142   4.112  1.00  0.00    -0.328 N 
HETATM    4  O2  UNL     1      10.236  26.296   3.778  1.00  0.00    -0.271 OA
BRANCH   3   5
HETATM    5  C7  UNL     1       6.921  24.976   3.968  1.00  0.00     0.068 C 
BRANCH   5   6
HETATM    6  C6  UNL     1       5.961  24.823   5.055  1.00  0.00     0.064 C 
BRANCH   6   7
HETATM    7  C5  UNL     1       4.609  24.342   4.722  1.00  0.00     0.126 C 
BRANCH   7   8
HETATM    8  N1  UNL     1       4.110  23.310   5.599  1.00  0.00    -0.397 N 
HETATM    9  C1  UNL     1       5.045  22.575   6.295  1.00  0.00     0.148 C 
BRANCH   8  10
HETATM   10  C2  UNL     1       2.748  23.300   5.813  1.00  0.00     0.058 C 
BRANCH  10  11
HETATM   11  C3  UNL     1       2.165  22.823   7.082  1.00  0.00     0.055 C 
BRANCH  11  12
HETATM   12  C4  UNL     1       0.857  22.135   6.969  1.00  0.00     0.091 C 
HETATM   13  S1  UNL     1       0.531  20.967   8.330  1.00  0.00    -0.097 SA
ENDBRANCH  11  12
ENDBRANCH  10  11
ENDBRANCH   8  10
ENDBRANCH   7   8
ENDBRANCH   6   7
ENDBRANCH   5   6
ENDBRANCH   3   5
BRANCH   3  14
HETATM   14  C8  UNL     1       9.173  24.090   4.609  1.00  0.00     0.157 C 
BRANCH  14  15
HETATM   15  C9  UNL     1       8.614  23.093   5.538  1.00  0.00     0.184 C 
BRANCH  15  16
HETATM   16  O1  UNL     1       8.025  22.075   4.722  1.00  0.00    -0.399 OA
ATOM     17  H1  UNL     1       8.716  21.449   4.542  1.00  0.00     0.209 HD
ENDBRANCH  15  16
ENDBRANCH  14  15
ENDBRANCH   3  14
ENDBRANCH   1   2
BRANCH   1  18
HETATM   18  N3  UNL     1       8.873  27.487   1.580  1.00  0.00    -0.347 N 
HETATM   19  C12 UNL     1       8.225  26.743   0.594  1.00  0.00     0.222 C 
HETATM   20  O3  UNL     1       7.214  26.057   0.907  1.00  0.00    -0.273 OA
ATOM     21  H3  UNL     1       9.692  28.038   1.325  1.00  0.00     0.163 HD
BRANCH  19  22
HETATM   22  C13 UNL     1       8.724  26.762  -0.804  1.00  0.00     0.083 C 
HETATM   23  C14 UNL     1       8.803  25.338  -1.298  1.00  0.00     0.048 C 
HETATM   24  C15 UNL     1      10.146  24.820  -0.895  1.00  0.00     0.147 C 
HETATM   25  C16 UNL     1      10.942  26.026  -0.473  1.00  0.00     0.147 C 
HETATM   26  C17 UNL     1      10.152  27.233  -0.897  1.00  0.00     0.048 C 
BRANCH  24  27
HETATM   27  O4  UNL     1       9.967  23.921   0.168  1.00  0.00    -0.393 OA
ATOM     28  H4  UNL     1       9.846  24.425   0.964  1.00  0.00     0.210 HD
ENDBRANCH  24  27
BRANCH  25  29
HETATM   29  O5  UNL     1      11.187  26.020   0.901  1.00  0.00    -0.393 OA
ATOM     30  H5  UNL     1      10.771  26.759   1.330  1.00  0.00     0.210 HD
ENDBRANCH  25  29
ENDBRANCH  19  22
ENDBRANCH   1  18
BRANCH   1  31
HETATM   31  C18 UNL     1       8.872  28.837   3.464  1.00  0.00     0.018 C 
HETATM   32  C19 UNL     1       8.410  29.231   4.862  1.00  0.00     0.007 C 
HETATM   33  C20 UNL     1       8.604  30.746   5.054  1.00  0.00     0.000 C 
HETATM   34  C21 UNL     1       7.610  31.512   4.226  1.00  0.00     0.000 C 
HETATM   35  C22 UNL     1       7.381  30.692   2.945  1.00  0.00     0.000 C 
HETATM   36  C23 UNL     1       8.697  30.016   2.606  1.00  0.00     0.007 C 
ENDBRANCH   1  31
TORSDOF 16
ENDMDL
MODEL 2
REMARK VINA RESULT: -6.839608089      4.548      8.824
REMARK  16 active torsions:
REMARK  status: ('A' for Active; 'I' for Inactive)
REMARK    1  A    between atoms: N1_2  and  C2_3 
REMARK    2  A    between atoms: N1_2  and  C5_7 
REMARK    3  A    between atoms: C2_3  and  C3_4 
REMARK    4  A    between atoms: C3_4  and  C4_5 
REMARK    5  A    between atoms: C5_7  and  C6_8 
REMARK    6  A    between atoms: C6_8  and  C7_9 
REMARK    7  A    between atoms: C7_9  and  N2_10 
REMARK    8  A    between atoms: N2_10  and  C8_11 
REMARK       I    between atoms: N2_10  and  C10_15 
REMARK    9  A    between atoms: C8_11  and  C9_12 
REMARK   10  A    between atoms: C9_12  and  O1_13 
REMARK   11  A    between atoms: C10_15  and  C11_17 
REMARK   12  A    between atoms: C11_17  and  N3_18 
REMARK   13  A    between atoms: C11_17  and  C18_31 
REMARK       I    between atoms: N3_18  and  C12_20 
REMARK   14  A    between atoms: C12_20  and  C13_22 
REMARK   15  A    between atoms: C15_24  and  O4_25 
REMARK   16  A    between atoms: C16_27  and  O5_28 
ROOT
HETATM    1  C11 UNL     1       9.174  25.726   1.690  1.00  0.00     0.181 C 
ENDROOT
BRANCH   1   2
HETATM    2  C10 UNL     1       9.266  24.953   0.469  1.00  0.00     0.246 C 
HETATM    3  N2  UNL     1      10.128  25.085  -0.647  1.00  0.00    -0.328 N 
HETATM    4  O2  UNL     1       8.433  23.966   0.361  1.00  0.00    -0.271 OA
BRANCH   3   5
HETATM    5  C7  UNL     1      11.137  26.070  -0.656  1.00  0.00     0.068 C 
BRANCH   5   6
HETATM    6  C6  UNL     1      11.109  27.315  -1.415  1.00  0.00     0.064 C 
BRANCH   6   7
HETATM    7  C5  UNL     1      11.645  27.301  -2.788  1.00  0.00     0.126 C 
BRANCH   7   8
HETATM    8  N1  UNL     1      12.985  26.775  -2.899  1.00  0.00    -0.397 N 
HETATM    9  C1  UNL     1      13.130  25.563  -3.539  1.00  0.00     0.148 C 
BRANCH   8  10
HETATM   10  C2  UNL     1      14.005  27.630  -2.541  1.00  0.00     0.058 C 
BRANCH  10  11
HETATM   11  C3  UNL     1      14.766  27.450  -1.289  1.00  0.00     0.055 C 
BRANCH  11  12
HETATM   12  C4  UNL     1      16.142  28.002  -1.288  1.00  0.00     0.091 C 
HETATM   13  S1  UNL     1      16.473  29.127  -2.684  1.00  0.00    -0.097 SA
ENDBRANCH  11  12
ENDBRANCH  10  11
ENDBRANCH   8  10
ENDBRANCH   7   8
ENDBRANCH   6   7
ENDBRANCH   5   6
ENDBRANCH   3   5
BRANCH   3  14
HETATM   14  C8  UNL     1      10.013  24.082  -1.683  1.00  0.00     0.157 C 
BRANCH  14  15
HETATM   15  C9  UNL     1       9.305  24.423  -2.930  1.00  0.00     0.184 C 
BRANCH  15  16
HETATM   16  O1  UNL     1       7.975  24.785  -2.545  1.00  0.00    -0.399 OA
ATOM     17  H1  UNL     1       7.415  24.546  -3.274  1.00  0.00     0.209 HD
ENDBRANCH  15  16
ENDBRANCH  14  15
ENDBRANCH   3  14
ENDBRANCH   1   2
BRANCH   1  18
HETATM   18  N3  UNL     1       8.558  24.815   2.722  1.00  0.00    -0.347 N 
HETATM   19  C12 UNL     1       9.067  24.712   4.017  1.00  0.00     0.222 C 
HETATM   20  O3  UNL     1      10.075  25.399   4.336  1.00  0.00    -0.273 OA
ATOM     21  H3  UNL     1       7.744  24.256   2.465  1.00  0.00     0.163 HD
BRANCH  19  22
HETATM   22  C13 UNL     1       8.426  23.804   5.000  1.00  0.00     0.083 C 
HETATM   23  C14 UNL     1       7.171  23.241   4.376  1.00  0.00     0.048 C 
HETATM   24  C15 UNL     1       6.076  24.217   4.663  1.00  0.00     0.147 C 
HETATM   25  C16 UNL     1       6.621  25.151   5.708  1.00  0.00     0.147 C 
HETATM   26  C17 UNL     1       7.903  24.542   6.205  1.00  0.00     0.048 C 
BRANCH  24  27
HETATM   27  O4  UNL     1       5.772  24.894   3.471  1.00  0.00    -0.393 OA
ATOM     28  H4  UNL     1       5.606  25.805   3.683  1.00  0.00     0.210 HD
ENDBRANCH  24  27
BRANCH  25  29
HETATM   29  O5  UNL     1       6.821  26.433   5.193  1.00  0.00    -0.393 OA
ATOM     30  H5  UNL     1       6.773  27.093   5.876  1.00  0.00     0.210 HD
ENDBRANCH  25  29
ENDBRANCH  19  22
ENDBRANCH   1  18
BRANCH   1  31
HETATM   31  C18 UNL     1       8.251  26.892   1.740  1.00  0.00     0.018 C 
HETATM   32  C19 UNL     1       7.807  27.404   0.375  1.00  0.00     0.007 C 
HETATM   33  C20 UNL     1       7.210  28.815   0.531  1.00  0.00     0.000 C 
HETATM   34  C21 UNL     1       8.291  29.811   0.843  1.00  0.00     0.000 C 
HETATM   35  C22 UNL     1       9.336  29.073   1.697  1.00  0.00     0.000 C 
HETATM   36  C23 UNL     1       8.585  28.069   2.553  1.00  0.00     0.007 C 
ENDBRANCH   1  31
TORSDOF 16
ENDMDL
MODEL 3
REMARK VINA RESULT: -6.742812959      2.088      3.269
REMARK  16 active torsions:
REMARK  status: ('A' for Active; 'I' for Inactive)
REMARK    1  A    between atoms: N1_2  and  C2_3 
REMARK    2  A    between atoms: N1_2  and  C5_7 
REMARK    3  A    between atoms: C2_3  and  C3_4 
REMARK    4  A    between atoms: C3_4  and  C4_5 
REMARK    5  A    between atoms: C5_7  and  C6_8 
REMARK    6  A    between atoms: C6_8  and  C7_9 
REMARK    7  A    between atoms: C7_9  and  N2_10 
REMARK    8  A    between atoms: N2_10  and  C8_11 
REMARK       I    between atoms: N2_10  and  C10_15 
REMARK    9  A    between atoms: C8_11  and  C9_12 
REMARK   10  A    between atoms: C9_12  and  O1_13 
REMARK   11  A    between atoms: C10_15  and  C11_17 
REMARK   12  A    between atoms: C11_17  and  N3_18 
REMARK   13  A    between atoms: C11_17  and  C18_31 
REMARK       I    between atoms: N3_18  and  C12_20 
REMARK   14  A    between atoms: C12_20  and  C13_22 
REMARK   15  A    between atoms: C15_24  and  O4_25 
REMARK   16  A    between atoms: C16_27  and  O5_28 
ROOT
HETATM    1  C11 UNL     1       8.276  26.746   0.578  1.00  0.00     0.181 C 
ENDROOT
BRANCH   1   2
HETATM    2  C10 UNL     1       8.869  26.788   1.899  1.00  0.00     0.246 C 
HETATM    3  N2  UNL     1       8.472  26.175   3.111  1.00  0.00    -0.328 N 
HETATM    4  O2  UNL     1       9.949  27.496   2.010  1.00  0.00    -0.271 OA
BRANCH   3   5
HETATM    5  C7  UNL     1       7.354  25.317   3.144  1.00  0.00     0.068 C 
BRANCH   5   6
HETATM    6  C6  UNL     1       6.930  24.507   4.281  1.00  0.00     0.064 C 
BRANCH   6   7
HETATM    7  C5  UNL     1       5.500  24.508   4.636  1.00  0.00     0.126 C 
BRANCH   7   8
HETATM    8  N1  UNL     1       5.101  23.425   5.503  1.00  0.00    -0.397 N 
HETATM    9  C1  UNL     1       6.104  22.755   6.170  1.00  0.00     0.148 C 
BRANCH   8  10
HETATM   10  C2  UNL     1       3.748  23.303   5.740  1.00  0.00     0.058 C 
BRANCH  10  11
HETATM   11  C3  UNL     1       3.207  22.264   6.639  1.00  0.00     0.055 C 
BRANCH  11  12
HETATM   12  C4  UNL     1       2.027  22.662   7.443  1.00  0.00     0.091 C 
HETATM   13  S1  UNL     1       0.564  23.067   6.433  1.00  0.00    -0.097 SA
ENDBRANCH  11  12
ENDBRANCH  10  11
ENDBRANCH   8  10
ENDBRANCH   7   8
ENDBRANCH   6   7
ENDBRANCH   5   6
ENDBRANCH   3   5
BRANCH   3  14
HETATM   14  C8  UNL     1       9.345  26.355   4.251  1.00  0.00     0.157 C 
BRANCH  14  15
HETATM   15  C9  UNL     1       9.023  27.401   5.236  1.00  0.00     0.184 C 
BRANCH  15  16
HETATM   16  O1  UNL     1       9.609  28.609   4.739  1.00  0.00    -0.399 OA
ATOM     17  H1  UNL     1       8.893  29.222   4.623  1.00  0.00     0.209 HD
ENDBRANCH  15  16
ENDBRANCH  14  15
ENDBRANCH   3  14
ENDBRANCH   1   2
BRANCH   1  18
HETATM   18  N3  UNL     1       9.360  26.274  -0.357  1.00  0.00    -0.347 N 
HETATM   19  C12 UNL     1       9.458  24.944  -0.767  1.00  0.00     0.222 C 
HETATM   20  O3  UNL     1       8.616  24.107  -0.340  1.00  0.00    -0.273 OA
ATOM     21  H3  UNL     1      10.044  26.948  -0.702  1.00  0.00     0.163 HD
BRANCH  19  22
HETATM   22  C13 UNL     1      10.539  24.525  -1.692  1.00  0.00     0.083 C 
HETATM   23  C14 UNL     1      10.954  25.725  -2.510  1.00  0.00     0.048 C 
HETATM   24  C15 UNL     1      10.046  25.766  -3.696  1.00  0.00     0.147 C 
HETATM   25  C16 UNL     1       9.348  24.434  -3.727  1.00  0.00     0.147 C 
HETATM   26  C17 UNL     1      10.057  23.552  -2.736  1.00  0.00     0.048 C 
BRANCH  24  27
HETATM   27  O4  UNL     1       9.139  26.822  -3.515  1.00  0.00    -0.393 OA
ATOM     28  H4  UNL     1       8.600  26.886  -4.295  1.00  0.00     0.210 HD
ENDBRANCH  24  27
BRANCH  25  29
HETATM   29  O5  UNL     1       7.990  24.562  -3.429  1.00  0.00    -0.393 OA
ATOM     30  H5  UNL     1       7.645  25.393  -3.734  1.00  0.00     0.210 HD
ENDBRANCH  25  29
ENDBRANCH  19  22
ENDBRANCH   1  18
BRANCH   1  31
HETATM   31  C18 UNL     1       7.863  28.020  -0.070  1.00  0.00     0.018 C 
HETATM   32  C19 UNL     1       9.010  28.823  -0.672  1.00  0.00     0.007 C 
HETATM   33  C20 UNL     1       8.537  30.263  -0.939  1.00  0.00     0.000 C 
HETATM   34  C21 UNL     1       8.354  31.004   0.356  1.00  0.00     0.000 C 
HETATM   35  C22 UNL     1       7.868  29.972   1.388  1.00  0.00     0.000 C 
HETATM   36  C23 UNL     1       7.001  28.971   0.644  1.00  0.00     0.007 C 
ENDBRANCH   1  31
TORSDOF 16
ENDMDL
MODEL 4
REMARK VINA RESULT: -6.686058778      1.694      2.682
REMARK  16 active torsions:
REMARK  status: ('A' for Active; 'I' for Inactive)
REMARK    1  A    between atoms: N1_2  and  C2_3 
REMARK    2  A    between atoms: N1_2  and  C5_7 
REMARK    3  A    between atoms: C2_3  and  C3_4 
REMARK    4  A    between atoms: C3_4  and  C4_5 
REMARK    5  A    between atoms: C5_7  and  C6_8 
REMARK    6  A    between atoms: C6_8  and  C7_9 
REMARK    7  A    between atoms: C7_9  and  N2_10 
REMARK    8  A    between atoms: N2_10  and  C8_11 
REMARK       I    between atoms: N2_10  and  C10_15 
REMARK    9  A    between atoms: C8_11  and  C9_12 
REMARK   10  A    between atoms: C9_12  and  O1_13 
REMARK   11  A    between atoms: C10_15  and  C11_17 
REMARK   12  A    between atoms: C11_17  and  N3_18 
REMARK   13  A    between atoms: C11_17  and  C18_31 
REMARK       I    between atoms: N3_18  and  C12_20 
REMARK   14  A    between atoms: C12_20  and  C13_22 
REMARK   15  A    between atoms: C15_24  and  O4_25 
REMARK   16  A    between atoms: C16_27  and  O5_28 
ROOT
HETATM    1  C11 UNL     1       7.600  25.822   4.017  1.00  0.00     0.181 C 
ENDROOT
BRANCH   1   2
HETATM    2  C10 UNL     1       7.406  24.524   4.629  1.00  0.00     0.246 C 
HETATM    3  N2  UNL     1       6.224  23.865   5.047  1.00  0.00    -0.328 N 
HETATM    4  O2  UNL     1       8.481  23.829   4.830  1.00  0.00    -0.271 OA
BRANCH   3   5
HETATM    5  C7  UNL     1       4.963  24.460   4.836  1.00  0.00     0.068 C 
BRANCH   5   6
HETATM    6  C6  UNL     1       3.675  23.781   4.913  1.00  0.00     0.064 C 
BRANCH   6   7
HETATM    7  C5  UNL     1       3.005  23.714   6.224  1.00  0.00     0.126 C 
BRANCH   7   8
HETATM    8  N1  UNL     1       1.645  23.233   6.174  1.00  0.00    -0.397 N 
HETATM    9  C1  UNL     1       0.728  24.015   5.505  1.00  0.00     0.148 C 
BRANCH   8  10
HETATM   10  C2  UNL     1       1.440  21.944   6.618  1.00  0.00     0.058 C 
BRANCH  10  11
HETATM   11  C3  UNL     1       1.493  21.599   8.052  1.00  0.00     0.055 C 
BRANCH  11  12
HETATM   12  C4  UNL     1       0.427  20.690   8.534  1.00  0.00     0.091 C 
HETATM   13  S1  UNL     1      -1.213  21.054   7.824  1.00  0.00    -0.097 SA
ENDBRANCH  11  12
ENDBRANCH  10  11
ENDBRANCH   8  10
ENDBRANCH   7   8
ENDBRANCH   6   7
ENDBRANCH   5   6
ENDBRANCH   3   5
BRANCH   3  14
HETATM   14  C8  UNL     1       6.372  22.518   5.553  1.00  0.00     0.157 C 
BRANCH  14  15
HETATM   15  C9  UNL     1       6.057  22.250   6.968  1.00  0.00     0.184 C 
BRANCH  15  16
HETATM   16  O1  UNL     1       4.913  21.389   6.964  1.00  0.00    -0.399 OA
ATOM     17  H1  UNL     1       4.156  21.957   6.885  1.00  0.00     0.209 HD
ENDBRANCH  15  16
ENDBRANCH  14  15
ENDBRANCH   3  14
ENDBRANCH   1   2
BRANCH   1  18
HETATM   18  N3  UNL     1       8.613  25.625   2.918  1.00  0.00    -0.347 N 
HETATM   19  C12 UNL     1       8.238  25.477   1.582  1.00  0.00     0.222 C 
HETATM   20  O3  UNL     1       7.013  25.505   1.283  1.00  0.00    -0.273 OA
ATOM     21  H3  UNL     1       9.604  25.599   3.158  1.00  0.00     0.163 HD
BRANCH  19  22
HETATM   22  C13 UNL     1       9.270  25.288   0.534  1.00  0.00     0.083 C 
HETATM   23  C14 UNL     1      10.442  26.183   0.857  1.00  0.00     0.048 C 
HETATM   24  C15 UNL     1      10.149  27.511   0.236  1.00  0.00     0.147 C 
HETATM   25  C16 UNL     1       8.993  27.282  -0.699  1.00  0.00     0.147 C 
HETATM   26  C17 UNL     1       8.819  25.792  -0.812  1.00  0.00     0.048 C 
BRANCH  24  27
HETATM   27  O4  UNL     1       9.814  28.408   1.263  1.00  0.00    -0.393 OA
ATOM     28  H4  UNL     1      10.316  29.204   1.134  1.00  0.00     0.210 HD
ENDBRANCH  24  27
BRANCH  25  29
HETATM   29  O5  UNL     1       7.833  27.907  -0.239  1.00  0.00    -0.393 OA
ATOM     30  H5  UNL     1       7.059  27.565  -0.673  1.00  0.00     0.210 HD
ENDBRANCH  25  29
ENDBRANCH  19  22
ENDBRANCH   1  18
BRANCH   1  31
HETATM   31  C18 UNL     1       8.235  26.908   4.811  1.00  0.00     0.018 C 
HETATM   32  C19 UNL     1       7.363  27.467   5.929  1.00  0.00     0.007 C 
HETATM   33  C20 UNL     1       7.940  28.815   6.398  1.00  0.00     0.000 C 
HETATM   34  C21 UNL     1       7.727  29.871   5.350  1.00  0.00     0.000 C 
HETATM   35  C22 UNL     1       7.830  29.165   3.987  1.00  0.00     0.000 C 
HETATM   36  C23 UNL     1       8.856  28.056   4.136  1.00  0.00     0.007 C 
ENDBRANCH   1  31
TORSDOF 16
ENDMDL
MODEL 5
REMARK VINA RESULT: -6.676701388      1.401      1.789
REMARK  16 active torsions:
REMARK  status: ('A' for Active; 'I' for Inactive)
REMARK    1  A    between atoms: N1_2  and  C2_3 
REMARK    2  A    between atoms: N1_2  and  C5_7 
REMARK    3  A    between atoms: C2_3  and  C3_4 
REMARK    4  A    between atoms: C3_4  and  C4_5 
REMARK    5  A    between atoms: C5_7  and  C6_8 
REMARK    6  A    between atoms: C6_8  and  C7_9 
REMARK    7  A    between atoms: C7_9  and  N2_10 
REMARK    8  A    between atoms: N2_10  and  C8_11 
REMARK       I    between atoms: N2_10  and  C10_15 
REMARK    9  A    between atoms: C8_11  and  C9_12 
REMARK   10  A    between atoms: C9_12  and  O1_13 
REMARK   11  A    between atoms: C10_15  and  C11_17 
REMARK   12  A    between atoms: C11_17  and  N3_18 
REMARK   13  A    between atoms: C11_17  and  C18_31 
REMARK       I    between atoms: N3_18  and  C12_20 
REMARK   14  A    between atoms: C12_20  and  C13_22 
REMARK   15  A    between atoms: C15_24  and  O4_25 
REMARK   16  A    between atoms: C16_27  and  O5_28 
ROOT
HETATM    1  C11 UNL     1       8.070  26.740   3.681  1.00  0.00     0.181 C 
ENDROOT
BRANCH   1   2
HETATM    2  C10 UNL     1       8.096  25.327   3.995  1.00  0.00     0.246 C 
HETATM    3  N2  UNL     1       7.083  24.471   4.491  1.00  0.00    -0.328 N 
HETATM    4  O2  UNL     1       9.224  24.723   3.789  1.00  0.00    -0.271 OA
BRANCH   3   5
HETATM    5  C7  UNL     1       5.777  24.959   4.705  1.00  0.00     0.068 C 
BRANCH   5   6
HETATM    6  C6  UNL     1       4.558  24.159   4.724  1.00  0.00     0.064 C 
BRANCH   6   7
HETATM    7  C5  UNL     1       4.078  23.660   6.024  1.00  0.00     0.126 C 
BRANCH   7   8
HETATM    8  N1  UNL     1       2.792  23.005   5.973  1.00  0.00    -0.397 N 
HETATM    9  C1  UNL     1       1.726  23.754   5.525  1.00  0.00     0.148 C 
BRANCH   8  10
HETATM   10  C2  UNL     1       2.796  21.641   6.178  1.00  0.00     0.058 C 
BRANCH  10  11
HETATM   11  C3  UNL     1       2.573  21.056   7.515  1.00  0.00     0.055 C 
BRANCH  11  12
HETATM   12  C4  UNL     1       1.533  21.718   8.339  1.00  0.00     0.091 C 
HETATM   13  S1  UNL     1      -0.143  21.056   8.061  1.00  0.00    -0.097 SA
ENDBRANCH  11  12
ENDBRANCH  10  11
ENDBRANCH   8  10
ENDBRANCH   7   8
ENDBRANCH   6   7
ENDBRANCH   5   6
ENDBRANCH   3   5
BRANCH   3  14
HETATM   14  C8  UNL     1       7.417  23.069   4.619  1.00  0.00     0.157 C 
BRANCH  14  15
HETATM   15  C9  UNL     1       7.035  22.355   5.851  1.00  0.00     0.184 C 
BRANCH  15  16
HETATM   16  O1  UNL     1       7.542  23.138   6.937  1.00  0.00    -0.399 OA
ATOM     17  H1  UNL     1       8.484  23.019   6.931  1.00  0.00     0.209 HD
ENDBRANCH  15  16
ENDBRANCH  14  15
ENDBRANCH   3  14
ENDBRANCH   1   2
BRANCH   1  18
HETATM   18  N3  UNL     1       9.103  26.953   2.604  1.00  0.00    -0.347 N 
HETATM   19  C12 UNL     1       8.750  27.242   1.285  1.00  0.00     0.222 C 
HETATM   20  O3  UNL     1       7.529  27.325   0.982  1.00  0.00    -0.273 OA
ATOM     21  H3  UNL     1      10.092  26.883   2.846  1.00  0.00     0.163 HD
BRANCH  19  22
HETATM   22  C13 UNL     1       9.801  27.447   0.259  1.00  0.00     0.083 C 
HETATM   23  C14 UNL     1       9.225  27.083  -1.088  1.00  0.00     0.048 C 
HETATM   24  C15 UNL     1       9.437  25.613  -1.260  1.00  0.00     0.147 C 
HETATM   25  C16 UNL     1      10.407  25.209  -0.183  1.00  0.00     0.147 C 
HETATM   26  C17 UNL     1      10.947  26.481   0.410  1.00  0.00     0.048 C 
BRANCH  24  27
HETATM   27  O4  UNL     1       8.197  24.973  -1.108  1.00  0.00    -0.393 OA
ATOM     28  H4  UNL     1       8.131  24.296  -1.771  1.00  0.00     0.210 HD
ENDBRANCH  24  27
BRANCH  25  29
HETATM   29  O5  UNL     1       9.794  24.406   0.780  1.00  0.00    -0.393 OA
ATOM     30  H5  UNL     1      10.430  24.048   1.389  1.00  0.00     0.210 HD
ENDBRANCH  25  29
ENDBRANCH  19  22
ENDBRANCH   1  18
BRANCH   1  31
HETATM   31  C18 UNL     1       8.514  27.718   4.711  1.00  0.00     0.018 C 
HETATM   32  C19 UNL     1       7.588  27.831   5.915  1.00  0.00     0.007 C 
HETATM   33  C20 UNL     1       7.914  29.121   6.689  1.00  0.00     0.000 C 
HETATM   34  C21 UNL     1       7.473  30.328   5.908  1.00  0.00     0.000 C 
HETATM   35  C22 UNL     1       7.665  29.983   4.421  1.00  0.00     0.000 C 
HETATM   36  C23 UNL     1       8.886  29.086   4.325  1.00  0.00     0.007 C 
ENDBRANCH   1  31
TORSDOF 16
ENDMDL
