MODEL 1
REMARK VINA RESULT: -8.248269427      0.000      0.000
REMARK  17 active torsions:
REMARK  status: ('A' for Active; 'I' for Inactive)
REMARK    1  A    between atoms: C4_4  and  C5_5 
REMARK       I    between atoms: C5_5  and  N1_7 
REMARK    2  A    between atoms: N1_7  and  C6_9 
REMARK    3  A    between atoms: C6_9  and  C7_10 
REMARK       I    between atoms: C7_10  and  N2_12 
REMARK    4  A    between atoms: N2_12  and  C8_14 
REMARK    5  A    between atoms: C8_14  and  C9_15 
REMARK    6  A    between atoms: C9_15  and  C10_16 
REMARK    7  A    between atoms: C15_21  and  N3_22 
REMARK    8  A    between atoms: N3_22  and  C16_24 
REMARK    9  A    between atoms: C16_24  and  C17_25 
REMARK   10  A    between atoms: C17_25  and  C18_26 
REMARK   11  A    between atoms: C18_26  and  C19_27 
REMARK   12  A    between atoms: C19_27  and  C20_28 
REMARK   13  A    between atoms: C20_28  and  C21_29 
REMARK   14  A    between atoms: C23_33  and  N5_34 
REMARK   15  A    between atoms: N5_34  and  C24_36 
REMARK   16  A    between atoms: C24_36  and  C25_37 
REMARK   17  A    between atoms: C25_37  and  O3_38 
ROOT
HETATM    1  C1  UNL     1      10.488  30.485   3.155  1.00  0.00     0.018 C 
HETATM    2  C2  UNL     1       9.810  29.648   3.693  1.00  0.00    -0.074 C 
HETATM    3  C3  UNL     1       9.001  28.632   4.311  1.00  0.00     0.060 A 
HETATM    4  C4  UNL     1       8.297  28.866   5.466  1.00  0.00     0.053 A 
HETATM    5  C12 UNL     1       7.515  27.846   6.020  1.00  0.00     0.020 A 
HETATM    6  C13 UNL     1       7.429  26.611   5.440  1.00  0.00     0.018 A 
HETATM    7  C14 UNL     1       8.123  26.349   4.287  1.00  0.00     0.037 A 
HETATM    8  C15 UNL     1       8.060  25.093   3.707  1.00  0.00     0.129 A 
HETATM    9  N4  UNL     1       8.799  24.942   2.599  1.00  0.00    -0.176 N 
ATOM     10  H4  UNL     1       8.790  24.037   2.129  1.00  0.00     0.186 HD
HETATM   11  C23 UNL     1       9.561  25.940   2.072  1.00  0.00     0.683 A 
HETATM   12  N6  UNL     1       9.623  27.154   2.626  1.00  0.00    -0.189 N 
ATOM     13  H6  UNL     1      10.197  27.892   2.218  1.00  0.00     0.184 HD
HETATM   14  C26 UNL     1       8.903  27.367   3.736  1.00  0.00     0.083 A 
ENDROOT
BRANCH   4  15
HETATM   15  C5  UNL     1       8.296  30.151   6.107  1.00  0.00     0.253 C 
HETATM   16  O1  UNL     1       7.611  31.094   5.603  1.00  0.00    -0.268 OA
HETATM   17  N1  UNL     1       9.046  30.396   7.277  1.00  0.00    -0.348 N 
ATOM     18  H1  UNL     1       9.590  29.633   7.679  1.00  0.00     0.163 HD
BRANCH  17  19
HETATM   19  C6  UNL     1       9.073  31.664   7.918  1.00  0.00     0.225 C 
BRANCH  19  20
HETATM   20  C7  UNL     1       9.612  31.721   9.287  1.00  0.00     0.235 C 
HETATM   21  O2  UNL     1      10.331  32.668   9.668  1.00  0.00    -0.272 OA
HETATM   22  N2  UNL     1       9.294  30.679  10.167  1.00  0.00    -0.360 N 
ATOM     23  H2  UNL     1       8.718  29.912   9.822  1.00  0.00     0.162 HD
BRANCH  22  24
HETATM   24  C8  UNL     1       9.737  30.639  11.526  1.00  0.00     0.122 C 
BRANCH  24  25
HETATM   25  C9  UNL     1       9.944  29.257  12.020  1.00  0.00     0.019 C 
BRANCH  25  26
HETATM   26  C10 UNL     1       9.131  28.292  11.179  1.00  0.00    -0.003 C 
HETATM   27  C11 UNL     1       8.879  27.016  11.974  1.00  0.00     0.005 C 
ENDBRANCH  25  26
ENDBRANCH  24  25
ENDBRANCH  22  24
ENDBRANCH  19  20
ENDBRANCH  17  19
ENDBRANCH   4  15
BRANCH   8  28
HETATM   28  N3  UNL     1       7.331  24.156   4.227  1.00  0.00    -0.375 N 
ATOM     29  H3  UNL     1       6.333  24.162   4.018  1.00  0.00     0.161 HD
BRANCH  28  30
HETATM   30  C16 UNL     1       7.828  23.110   5.077  1.00  0.00     0.121 C 
BRANCH  30  31
HETATM   31  C17 UNL     1       6.935  22.928   6.274  1.00  0.00     0.020 C 
BRANCH  31  32
HETATM   32  C18 UNL     1       5.491  22.855   5.967  1.00  0.00     0.002 C 
BRANCH  32  33
HETATM   33  C19 UNL     1       4.670  21.847   6.696  1.00  0.00     0.000 C 
BRANCH  33  34
HETATM   34  C20 UNL     1       3.237  22.306   6.909  1.00  0.00    -0.000 C 
BRANCH  34  35
HETATM   35  C21 UNL     1       2.662  21.831   8.204  1.00  0.00    -0.005 C 
HETATM   36  C22 UNL     1       1.361  21.073   8.070  1.00  0.00     0.005 C 
ENDBRANCH  34  35
ENDBRANCH  33  34
ENDBRANCH  32  33
ENDBRANCH  31  32
ENDBRANCH  30  31
ENDBRANCH  28  30
ENDBRANCH   8  28
BRANCH  11  37
HETATM   37  N5  UNL     1      10.231  25.648   1.054  1.00  0.00    -0.203 N 
ATOM     38  H5  UNL     1      11.217  25.477   1.254  1.00  0.00     0.183 HD
BRANCH  37  39
HETATM   39  C24 UNL     1       9.906  25.508  -0.309  1.00  0.00     0.105 C 
BRANCH  39  40
HETATM   40  C25 UNL     1      10.201  24.091  -0.755  1.00  0.00     0.209 C 
BRANCH  40  41
HETATM   41  O3  UNL     1       9.684  23.231   0.206  1.00  0.00    -0.396 OA
ATOM     42  H3  UNL     1      10.326  22.546   0.355  1.00  0.00     0.209 HD
ENDBRANCH  40  41
ENDBRANCH  39  40
ENDBRANCH  37  39
ENDBRANCH  11  37
TORSDOF 17
ENDMDL
MODEL 2
REMARK VINA RESULT: -8.013763719      7.285     12.039
REMARK  17 active torsions:
REMARK  status: ('A' for Active; 'I' for Inactive)
REMARK    1  A    between atoms: C4_4  and  C5_5 
REMARK       I    between atoms: C5_5  and  N1_7 
REMARK    2  A    between atoms: N1_7  and  C6_9 
REMARK    3  A    between atoms: C6_9  and  C7_10 
REMARK       I    between atoms: C7_10  and  N2_12 
REMARK    4  A    between atoms: N2_12  and  C8_14 
REMARK    5  A    between atoms: C8_14  and  C9_15 
REMARK    6  A    between atoms: C9_15  and  C10_16 
REMARK    7  A    between atoms: C15_21  and  N3_22 
REMARK    8  A    between atoms: N3_22  and  C16_24 
REMARK    9  A    between atoms: C16_24  and  C17_25 
REMARK   10  A    between atoms: C17_25  and  C18_26 
REMARK   11  A    between atoms: C18_26  and  C19_27 
REMARK   12  A    between atoms: C19_27  and  C20_28 
REMARK   13  A    between atoms: C20_28  and  C21_29 
REMARK   14  A    between atoms: C23_33  and  N5_34 
REMARK   15  A    between atoms: N5_34  and  C24_36 
REMARK   16  A    between atoms: C24_36  and  C25_37 
REMARK   17  A    between atoms: C25_37  and  O3_38 
ROOT
HETATM    1  C1  UNL     1       0.013  20.027   7.852  1.00  0.00     0.018 C 
HETATM    2  C2  UNL     1      -0.168  21.216   7.892  1.00  0.00    -0.074 C 
HETATM    3  C3  UNL     1      -0.413  22.633   7.933  1.00  0.00     0.060 A 
HETATM    4  C4  UNL     1       0.606  23.549   7.848  1.00  0.00     0.053 A 
HETATM    5  C12 UNL     1       0.312  24.918   7.882  1.00  0.00     0.020 A 
HETATM    6  C13 UNL     1      -0.972  25.373   7.997  1.00  0.00     0.018 A 
HETATM    7  C14 UNL     1      -2.008  24.480   8.085  1.00  0.00     0.037 A 
HETATM    8  C15 UNL     1      -3.309  24.935   8.225  1.00  0.00     0.129 A 
HETATM    9  N4  UNL     1      -4.238  23.975   8.329  1.00  0.00    -0.176 N 
ATOM     10  H4  UNL     1      -5.214  24.252   8.434  1.00  0.00     0.186 HD
HETATM   11  C23 UNL     1      -3.939  22.645   8.301  1.00  0.00     0.683 A 
HETATM   12  N6  UNL     1      -2.688  22.202   8.163  1.00  0.00    -0.189 N 
ATOM     13  H6  UNL     1      -2.480  21.203   8.142  1.00  0.00     0.184 HD
HETATM   14  C26 UNL     1      -1.714  23.117   8.052  1.00  0.00     0.083 A 
ENDROOT
BRANCH   4  15
HETATM   15  C5  UNL     1       1.974  23.149   7.676  1.00  0.00     0.253 C 
HETATM   16  O1  UNL     1       2.725  23.053   8.695  1.00  0.00    -0.268 OA
HETATM   17  N1  UNL     1       2.509  22.871   6.399  1.00  0.00    -0.348 N 
ATOM     18  H1  UNL     1       1.899  22.946   5.586  1.00  0.00     0.163 HD
BRANCH  17  19
HETATM   19  C6  UNL     1       3.864  22.490   6.203  1.00  0.00     0.225 C 
BRANCH  19  20
HETATM   20  C7  UNL     1       4.758  23.467   5.563  1.00  0.00     0.235 C 
HETATM   21  O2  UNL     1       4.311  24.423   4.895  1.00  0.00    -0.272 OA
HETATM   22  N2  UNL     1       6.140  23.305   5.723  1.00  0.00    -0.360 N 
ATOM     23  H2  UNL     1       6.475  22.506   6.260  1.00  0.00     0.162 HD
BRANCH  22  24
HETATM   24  C8  UNL     1       7.104  24.205   5.170  1.00  0.00     0.122 C 
BRANCH  24  25
HETATM   25  C9  UNL     1       8.406  23.552   4.896  1.00  0.00     0.019 C 
BRANCH  25  26
HETATM   26  C10 UNL     1       9.342  24.546   4.238  1.00  0.00    -0.003 C 
HETATM   27  C11 UNL     1       8.879  25.964   4.554  1.00  0.00     0.005 C 
ENDBRANCH  25  26
ENDBRANCH  24  25
ENDBRANCH  22  24
ENDBRANCH  19  20
ENDBRANCH  17  19
ENDBRANCH   4  15
BRANCH   8  28
HETATM   28  N3  UNL     1      -3.570  26.204   8.253  1.00  0.00    -0.375 N 
ATOM     29  H3  UNL     1      -3.684  26.684   7.361  1.00  0.00     0.161 HD
BRANCH  28  30
HETATM   30  C16 UNL     1      -3.712  26.984   9.451  1.00  0.00     0.121 C 
BRANCH  30  31
HETATM   31  C17 UNL     1      -3.230  28.393   9.229  1.00  0.00     0.020 C 
BRANCH  31  32
HETATM   32  C18 UNL     1      -2.878  28.714   7.830  1.00  0.00     0.002 C 
BRANCH  32  33
HETATM   33  C19 UNL     1      -1.697  29.591   7.589  1.00  0.00     0.000 C 
BRANCH  33  34
HETATM   34  C20 UNL     1      -0.398  28.964   8.069  1.00  0.00    -0.000 C 
BRANCH  34  35
HETATM   35  C21 UNL     1       0.419  29.893   8.909  1.00  0.00    -0.005 C 
HETATM   36  C22 UNL     1      -0.355  31.052   9.492  1.00  0.00     0.005 C 
ENDBRANCH  34  35
ENDBRANCH  33  34
ENDBRANCH  32  33
ENDBRANCH  31  32
ENDBRANCH  30  31
ENDBRANCH  28  30
ENDBRANCH   8  28
BRANCH  11  37
HETATM   37  N5  UNL     1      -4.903  21.857   8.447  1.00  0.00    -0.203 N 
ATOM     38  H5  UNL     1      -5.708  22.284   8.906  1.00  0.00     0.183 HD
BRANCH  37  39
HETATM   39  C24 UNL     1      -5.105  20.506   8.109  1.00  0.00     0.105 C 
BRANCH  39  40
HETATM   40  C25 UNL     1      -4.807  19.634   9.311  1.00  0.00     0.209 C 
BRANCH  40  41
HETATM   41  O3  UNL     1      -5.605  18.500   9.216  1.00  0.00    -0.396 OA
ATOM     42  H3  UNL     1      -5.990  18.347  10.071  1.00  0.00     0.209 HD
ENDBRANCH  40  41
ENDBRANCH  39  40
ENDBRANCH  37  39
ENDBRANCH  11  37
TORSDOF 17
ENDMDL
MODEL 3
REMARK VINA RESULT: -7.939542038      7.021     11.967
REMARK  17 active torsions:
REMARK  status: ('A' for Active; 'I' for Inactive)
REMARK    1  A    between atoms: C4_4  and  C5_5 
REMARK       I    between atoms: C5_5  and  N1_7 
REMARK    2  A    between atoms: N1_7  and  C6_9 
REMARK    3  A    between atoms: C6_9  and  C7_10 
REMARK       I    between atoms: C7_10  and  N2_12 
REMARK    4  A    between atoms: N2_12  and  C8_14 
REMARK    5  A    between atoms: C8_14  and  C9_15 
REMARK    6  A    between atoms: C9_15  and  C10_16 
REMARK    7  A    between atoms: C15_21  and  N3_22 
REMARK    8  A    between atoms: N3_22  and  C16_24 
REMARK    9  A    between atoms: C16_24  and  C17_25 
REMARK   10  A    between atoms: C17_25  and  C18_26 
REMARK   11  A    between atoms: C18_26  and  C19_27 
REMARK   12  A    between atoms: C19_27  and  C20_28 
REMARK   13  A    between atoms: C20_28  and  C21_29 
REMARK   14  A    between atoms: C23_33  and  N5_34 
REMARK   15  A    between atoms: N5_34  and  C24_36 
REMARK   16  A    between atoms: C24_36  and  C25_37 
REMARK   17  A    between atoms: C25_37  and  O3_38 
ROOT
HETATM    1  C1  UNL     1       1.146  19.514   7.811  1.00  0.00     0.018 C 
HETATM    2  C2  UNL     1       0.719  20.640   7.806  1.00  0.00    -0.074 C 
HETATM    3  C3  UNL     1       0.184  21.975   7.793  1.00  0.00     0.060 A 
HETATM    4  C4  UNL     1       0.992  23.081   7.709  1.00  0.00     0.053 A 
HETATM    5  C12 UNL     1       0.418  24.359   7.688  1.00  0.00     0.020 A 
HETATM    6  C13 UNL     1      -0.935  24.538   7.749  1.00  0.00     0.018 A 
HETATM    7  C14 UNL     1      -1.766  23.451   7.836  1.00  0.00     0.037 A 
HETATM    8  C15 UNL     1      -3.137  23.627   7.921  1.00  0.00     0.129 A 
HETATM    9  N4  UNL     1      -3.848  22.497   8.028  1.00  0.00    -0.176 N 
ATOM     10  H4  UNL     1      -4.864  22.566   8.095  1.00  0.00     0.186 HD
HETATM   11  C23 UNL     1      -3.279  21.259   8.053  1.00  0.00     0.683 A 
HETATM   12  N6  UNL     1      -1.958  21.084   7.968  1.00  0.00    -0.189 N 
ATOM     13  H6  UNL     1      -1.547  20.151   7.986  1.00  0.00     0.184 HD
HETATM   14  C26 UNL     1      -1.193  22.179   7.857  1.00  0.00     0.083 A 
ENDROOT
BRANCH   4  15
HETATM   15  C5  UNL     1       2.418  22.972   7.591  1.00  0.00     0.253 C 
HETATM   16  O1  UNL     1       3.135  23.059   8.636  1.00  0.00    -0.268 OA
HETATM   17  N1  UNL     1       3.046  22.781   6.341  1.00  0.00    -0.348 N 
ATOM     18  H1  UNL     1       2.464  22.707   5.507  1.00  0.00     0.163 HD
BRANCH  17  19
HETATM   19  C6  UNL     1       4.457  22.687   6.199  1.00  0.00     0.225 C 
BRANCH  19  20
HETATM   20  C7  UNL     1       5.133  23.744   5.429  1.00  0.00     0.235 C 
HETATM   21  O2  UNL     1       4.495  24.540   4.711  1.00  0.00    -0.272 OA
HETATM   22  N2  UNL     1       6.528  23.842   5.524  1.00  0.00    -0.360 N 
ATOM     23  H2  UNL     1       7.023  23.167   6.106  1.00  0.00     0.162 HD
BRANCH  22  24
HETATM   24  C8  UNL     1       7.291  24.842   4.845  1.00  0.00     0.122 C 
BRANCH  24  25
HETATM   25  C9  UNL     1       8.724  24.486   4.725  1.00  0.00     0.019 C 
BRANCH  25  26
HETATM   26  C10 UNL     1       9.406  25.447   3.771  1.00  0.00    -0.003 C 
HETATM   27  C11 UNL     1       9.296  26.866   4.316  1.00  0.00     0.005 C 
ENDBRANCH  25  26
ENDBRANCH  24  25
ENDBRANCH  22  24
ENDBRANCH  19  20
ENDBRANCH  17  19
ENDBRANCH   4  15
BRANCH   8  28
HETATM   28  N3  UNL     1      -3.657  24.814   7.900  1.00  0.00    -0.375 N 
ATOM     29  H3  UNL     1      -3.609  25.336   7.025  1.00  0.00     0.161 HD
BRANCH  28  30
HETATM   30  C16 UNL     1      -4.298  25.447   9.019  1.00  0.00     0.121 C 
BRANCH  30  31
HETATM   31  C17 UNL     1      -3.307  26.259   9.809  1.00  0.00     0.020 C 
BRANCH  31  32
HETATM   32  C18 UNL     1      -3.111  27.641   9.324  1.00  0.00     0.002 C 
BRANCH  32  33
HETATM   33  C19 UNL     1      -1.843  27.959   8.608  1.00  0.00     0.000 C 
BRANCH  33  34
HETATM   34  C20 UNL     1      -2.042  28.110   7.109  1.00  0.00    -0.000 C 
BRANCH  34  35
HETATM   35  C21 UNL     1      -3.084  29.124   6.761  1.00  0.00    -0.005 C 
HETATM   36  C22 UNL     1      -2.650  30.558   6.955  1.00  0.00     0.005 C 
ENDBRANCH  34  35
ENDBRANCH  33  34
ENDBRANCH  32  33
ENDBRANCH  31  32
ENDBRANCH  30  31
ENDBRANCH  28  30
ENDBRANCH   8  28
BRANCH  11  37
HETATM   37  N5  UNL     1      -4.063  20.291   8.196  1.00  0.00    -0.203 N 
ATOM     38  H5  UNL     1      -3.681  19.409   7.854  1.00  0.00     0.183 HD
BRANCH  37  39
HETATM   39  C24 UNL     1      -5.359  20.168   8.730  1.00  0.00     0.105 C 
BRANCH  39  40
HETATM   40  C25 UNL     1      -5.289  19.467  10.070  1.00  0.00     0.209 C 
BRANCH  40  41
HETATM   41  O3  UNL     1      -5.426  20.433  11.059  1.00  0.00    -0.396 OA
ATOM     42  H3  UNL     1      -4.561  20.776  11.249  1.00  0.00     0.209 HD
ENDBRANCH  40  41
ENDBRANCH  39  40
ENDBRANCH  37  39
ENDBRANCH  11  37
TORSDOF 17
ENDMDL
MODEL 4
REMARK VINA RESULT: -7.912352605      7.348     12.100
REMARK  17 active torsions:
REMARK  status: ('A' for Active; 'I' for Inactive)
REMARK    1  A    between atoms: C4_4  and  C5_5 
REMARK       I    between atoms: C5_5  and  N1_7 
REMARK    2  A    between atoms: N1_7  and  C6_9 
REMARK    3  A    between atoms: C6_9  and  C7_10 
REMARK       I    between atoms: C7_10  and  N2_12 
REMARK    4  A    between atoms: N2_12  and  C8_14 
REMARK    5  A    between atoms: C8_14  and  C9_15 
REMARK    6  A    between atoms: C9_15  and  C10_16 
REMARK    7  A    between atoms: C15_21  and  N3_22 
REMARK    8  A    between atoms: N3_22  and  C16_24 
REMARK    9  A    between atoms: C16_24  and  C17_25 
REMARK   10  A    between atoms: C17_25  and  C18_26 
REMARK   11  A    between atoms: C18_26  and  C19_27 
REMARK   12  A    between atoms: C19_27  and  C20_28 
REMARK   13  A    between atoms: C20_28  and  C21_29 
REMARK   14  A    between atoms: C23_33  and  N5_34 
REMARK   15  A    between atoms: N5_34  and  C24_36 
REMARK   16  A    between atoms: C24_36  and  C25_37 
REMARK   17  A    between atoms: C25_37  and  O3_38 
ROOT
HETATM    1  C1  UNL     1       0.355  19.886   7.922  1.00  0.00     0.018 C 
HETATM    2  C2  UNL     1       0.104  21.063   7.935  1.00  0.00    -0.074 C 
HETATM    3  C3  UNL     1      -0.224  22.464   7.945  1.00  0.00     0.060 A 
HETATM    4  C4  UNL     1       0.738  23.436   7.828  1.00  0.00     0.053 A 
HETATM    5  C12 UNL     1       0.364  24.785   7.832  1.00  0.00     0.020 A 
HETATM    6  C13 UNL     1      -0.943  25.167   7.950  1.00  0.00     0.018 A 
HETATM    7  C14 UNL     1      -1.925  24.217   8.070  1.00  0.00     0.037 A 
HETATM    8  C15 UNL     1      -3.248  24.598   8.213  1.00  0.00     0.129 A 
HETATM    9  N4  UNL     1      -4.117  23.587   8.350  1.00  0.00    -0.176 N 
ATOM     10  H4  UNL     1      -5.107  23.808   8.459  1.00  0.00     0.186 HD
HETATM   11  C23 UNL     1      -3.742  22.277   8.351  1.00  0.00     0.683 A 
HETATM   12  N6  UNL     1      -2.467  21.905   8.209  1.00  0.00    -0.189 N 
ATOM     13  H6  UNL     1      -2.201  20.920   8.210  1.00  0.00     0.184 HD
HETATM   14  C26 UNL     1      -1.550  22.873   8.067  1.00  0.00     0.083 A 
ENDROOT
BRANCH   4  15
HETATM   15  C5  UNL     1       2.125  23.113   7.650  1.00  0.00     0.253 C 
HETATM   16  O1  UNL     1       2.878  23.030   8.670  1.00  0.00    -0.268 OA
HETATM   17  N1  UNL     1       2.678  22.896   6.370  1.00  0.00    -0.348 N 
ATOM     18  H1  UNL     1       2.067  22.960   5.556  1.00  0.00     0.163 HD
BRANCH  17  19
HETATM   19  C6  UNL     1       4.052  22.592   6.169  1.00  0.00     0.225 C 
BRANCH  19  20
HETATM   20  C7  UNL     1       4.880  23.607   5.497  1.00  0.00     0.235 C 
HETATM   21  O2  UNL     1       4.372  24.506   4.797  1.00  0.00    -0.272 OA
HETATM   22  N2  UNL     1       6.269  23.544   5.666  1.00  0.00    -0.360 N 
ATOM     23  H2  UNL     1       6.655  22.788   6.231  1.00  0.00     0.162 HD
BRANCH  22  24
HETATM   24  C8  UNL     1       7.172  24.488   5.085  1.00  0.00     0.122 C 
BRANCH  24  25
HETATM   25  C9  UNL     1       8.415  23.857   4.582  1.00  0.00     0.019 C 
BRANCH  25  26
HETATM   26  C10 UNL     1       9.391  24.934   4.151  1.00  0.00    -0.003 C 
HETATM   27  C11 UNL     1       8.768  26.306   4.386  1.00  0.00     0.005 C 
ENDBRANCH  25  26
ENDBRANCH  24  25
ENDBRANCH  22  24
ENDBRANCH  19  20
ENDBRANCH  17  19
ENDBRANCH   4  15
BRANCH   8  28
HETATM   28  N3  UNL     1      -3.584  25.849   8.214  1.00  0.00    -0.375 N 
ATOM     29  H3  UNL     1      -3.630  26.327   7.314  1.00  0.00     0.161 HD
BRANCH  28  30
HETATM   30  C16 UNL     1      -3.895  26.612   9.391  1.00  0.00     0.121 C 
BRANCH  30  31
HETATM   31  C17 UNL     1      -3.492  28.051   9.213  1.00  0.00     0.020 C 
BRANCH  31  32
HETATM   32  C18 UNL     1      -2.085  28.257   8.813  1.00  0.00     0.002 C 
BRANCH  32  33
HETATM   33  C19 UNL     1      -1.818  28.847   7.470  1.00  0.00     0.000 C 
BRANCH  33  34
HETATM   34  C20 UNL     1      -1.359  30.294   7.551  1.00  0.00    -0.000 C 
BRANCH  34  35
HETATM   35  C21 UNL     1      -2.380  31.256   7.034  1.00  0.00    -0.005 C 
HETATM   36  C22 UNL     1      -3.467  30.623   6.196  1.00  0.00     0.005 C 
ENDBRANCH  34  35
ENDBRANCH  33  34
ENDBRANCH  32  33
ENDBRANCH  31  32
ENDBRANCH  30  31
ENDBRANCH  28  30
ENDBRANCH   8  28
BRANCH  11  37
HETATM   37  N5  UNL     1      -4.655  21.438   8.525  1.00  0.00    -0.203 N 
ATOM     38  H5  UNL     1      -4.942  20.968   7.666  1.00  0.00     0.183 HD
BRANCH  37  39
HETATM   39  C24 UNL     1      -5.368  21.008   9.661  1.00  0.00     0.105 C 
BRANCH  39  40
HETATM   40  C25 UNL     1      -4.961  19.592  10.007  1.00  0.00     0.209 C 
BRANCH  40  41
HETATM   41  O3  UNL     1      -5.082  18.825   8.854  1.00  0.00    -0.396 OA
ATOM     42  H3  UNL     1      -5.966  18.480   8.829  1.00  0.00     0.209 HD
ENDBRANCH  40  41
ENDBRANCH  39  40
ENDBRANCH  37  39
ENDBRANCH  11  37
TORSDOF 17
ENDMDL
MODEL 5
REMARK VINA RESULT: -7.851274315      2.600      8.075
REMARK  17 active torsions:
REMARK  status: ('A' for Active; 'I' for Inactive)
REMARK    1  A    between atoms: C4_4  and  C5_5 
REMARK       I    between atoms: C5_5  and  N1_7 
REMARK    2  A    between atoms: N1_7  and  C6_9 
REMARK    3  A    between atoms: C6_9  and  C7_10 
REMARK       I    between atoms: C7_10  and  N2_12 
REMARK    4  A    between atoms: N2_12  and  C8_14 
REMARK    5  A    between atoms: C8_14  and  C9_15 
REMARK    6  A    between atoms: C9_15  and  C10_16 
REMARK    7  A    between atoms: C15_21  and  N3_22 
REMARK    8  A    between atoms: N3_22  and  C16_24 
REMARK    9  A    between atoms: C16_24  and  C17_25 
REMARK   10  A    between atoms: C17_25  and  C18_26 
REMARK   11  A    between atoms: C18_26  and  C19_27 
REMARK   12  A    between atoms: C19_27  and  C20_28 
REMARK   13  A    between atoms: C20_28  and  C21_29 
REMARK   14  A    between atoms: C23_33  and  N5_34 
REMARK   15  A    between atoms: N5_34  and  C24_36 
REMARK   16  A    between atoms: C24_36  and  C25_37 
REMARK   17  A    between atoms: C25_37  and  O3_38 
ROOT
HETATM    1  C1  UNL     1      10.633  30.001   2.572  1.00  0.00     0.018 C 
HETATM    2  C2  UNL     1      10.189  28.885   2.496  1.00  0.00    -0.074 C 
HETATM    3  C3  UNL     1       9.653  27.551   2.435  1.00  0.00     0.060 A 
HETATM    4  C4  UNL     1       9.870  26.730   1.356  1.00  0.00     0.053 A 
HETATM    5  C12 UNL     1       9.336  25.436   1.351  1.00  0.00     0.020 A 
HETATM    6  C13 UNL     1       8.598  24.961   2.399  1.00  0.00     0.018 A 
HETATM    7  C14 UNL     1       8.364  25.760   3.488  1.00  0.00     0.037 A 
HETATM    8  C15 UNL     1       7.597  25.293   4.543  1.00  0.00     0.129 A 
HETATM    9  N4  UNL     1       7.411  26.168   5.540  1.00  0.00    -0.176 N 
ATOM     10  H4  UNL     1       6.854  25.878   6.344  1.00  0.00     0.186 HD
HETATM   11  C23 UNL     1       7.931  27.428   5.532  1.00  0.00     0.683 A 
HETATM   12  N6  UNL     1       8.674  27.881   4.519  1.00  0.00    -0.189 N 
ATOM     13  H6  UNL     1       9.059  28.826   4.528  1.00  0.00     0.184 HD
HETATM   14  C26 UNL     1       8.896  27.050   3.491  1.00  0.00     0.083 A 
ENDROOT
BRANCH   4  15
HETATM   15  C5  UNL     1      10.676  27.139   0.241  1.00  0.00     0.253 C 
HETATM   16  O1  UNL     1      10.116  27.673  -0.766  1.00  0.00    -0.268 OA
HETATM   17  N1  UNL     1      12.076  26.953   0.230  1.00  0.00    -0.348 N 
ATOM     18  H1  UNL     1      12.519  26.528   1.044  1.00  0.00     0.163 HD
BRANCH  17  19
HETATM   19  C6  UNL     1      12.891  27.335  -0.869  1.00  0.00     0.225 C 
BRANCH  19  20
HETATM   20  C7  UNL     1      13.124  26.333  -1.922  1.00  0.00     0.235 C 
HETATM   21  O2  UNL     1      14.274  26.058  -2.320  1.00  0.00    -0.272 OA
HETATM   22  N2  UNL     1      12.013  25.681  -2.472  1.00  0.00    -0.360 N 
ATOM     23  H2  UNL     1      11.085  25.938  -2.137  1.00  0.00     0.162 HD
BRANCH  22  24
HETATM   24  C8  UNL     1      12.116  24.671  -3.480  1.00  0.00     0.122 C 
BRANCH  24  25
HETATM   25  C9  UNL     1      10.950  23.758  -3.496  1.00  0.00     0.019 C 
BRANCH  25  26
HETATM   26  C10 UNL     1       9.779  24.419  -2.797  1.00  0.00    -0.003 C 
HETATM   27  C11 UNL     1       8.799  24.948  -3.838  1.00  0.00     0.005 C 
ENDBRANCH  25  26
ENDBRANCH  24  25
ENDBRANCH  22  24
ENDBRANCH  19  20
ENDBRANCH  17  19
ENDBRANCH   4  15
BRANCH   8  28
HETATM   28  N3  UNL     1       7.108  24.093   4.529  1.00  0.00    -0.375 N 
ATOM     29  H3  UNL     1       7.628  23.376   4.023  1.00  0.00     0.161 HD
BRANCH  28  30
HETATM   30  C16 UNL     1       5.887  23.699   5.175  1.00  0.00     0.121 C 
BRANCH  30  31
HETATM   31  C17 UNL     1       6.153  22.651   6.221  1.00  0.00     0.020 C 
BRANCH  31  32
HETATM   32  C18 UNL     1       4.959  21.903   6.668  1.00  0.00     0.002 C 
BRANCH  32  33
HETATM   33  C19 UNL     1       3.624  22.368   6.195  1.00  0.00     0.000 C 
BRANCH  33  34
HETATM   34  C20 UNL     1       2.750  22.881   7.328  1.00  0.00    -0.000 C 
BRANCH  34  35
HETATM   35  C21 UNL     1       2.531  21.861   8.399  1.00  0.00    -0.005 C 
HETATM   36  C22 UNL     1       1.230  21.101   8.282  1.00  0.00     0.005 C 
ENDBRANCH  34  35
ENDBRANCH  33  34
ENDBRANCH  32  33
ENDBRANCH  31  32
ENDBRANCH  30  31
ENDBRANCH  28  30
ENDBRANCH   8  28
BRANCH  11  37
HETATM   37  N5  UNL     1       7.646  28.152   6.514  1.00  0.00    -0.203 N 
ATOM     38  H5  UNL     1       7.751  27.678   7.410  1.00  0.00     0.183 HD
BRANCH  37  39
HETATM   39  C24 UNL     1       7.212  29.486   6.636  1.00  0.00     0.105 C 
BRANCH  39  40
HETATM   40  C25 UNL     1       8.373  30.358   7.063  1.00  0.00     0.209 C 
BRANCH  40  41
HETATM   41  O3  UNL     1       9.084  30.703   5.920  1.00  0.00    -0.396 OA
ATOM     42  H3  UNL     1       9.518  29.919   5.603  1.00  0.00     0.209 HD
ENDBRANCH  40  41
ENDBRANCH  39  40
ENDBRANCH  37  39
ENDBRANCH  11  37
TORSDOF 17
ENDMDL
