MODEL 1
REMARK VINA RESULT: -7.764423968      0.000      0.000
REMARK  14 active torsions:
REMARK  status: ('A' for Active; 'I' for Inactive)
REMARK    1  A    between atoms: C2_2  and  C3_3 
REMARK    2  A    between atoms: C3_3  and  C4_4 
REMARK    3  A    between atoms: C4_4  and  C5_5 
REMARK    4  A    between atoms: C5_5  and  C6_6 
REMARK    5  A    between atoms: C6_6  and  C7_7 
REMARK    6  A    between atoms: C7_7  and  C8_8 
REMARK    7  A    between atoms: C10_13  and  C11_14 
REMARK    8  A    between atoms: C11_14  and  C12_15 
REMARK    9  A    between atoms: C12_15  and  C13_16 
REMARK   10  A    between atoms: C17_24  and  C18_25 
REMARK   11  A    between atoms: C18_25  and  N3_26 
REMARK       I    between atoms: N3_26  and  C19_28 
REMARK       I    between atoms: C19_28  and  N4_30 
REMARK   12  A    between atoms: N4_30  and  C20_32 
REMARK   13  A    between atoms: C20_32  and  C21_33 
REMARK   14  A    between atoms: C21_33  and  C22_34 
ROOT
HETATM    1  C8  UNL     1      -1.881  26.593   7.563  1.00  0.00     0.176 C 
HETATM    2  N1  UNL     1      -2.569  26.359   8.816  1.00  0.00    -0.346 N 
ATOM      3  H1  UNL     1      -2.396  27.030   9.563  1.00  0.00     0.163 HD
HETATM    4  C9  UNL     1      -3.449  25.303   9.110  1.00  0.00     0.241 C 
HETATM    5  O1  UNL     1      -3.666  25.116  10.357  1.00  0.00    -0.271 OA
HETATM    6  C10 UNL     1      -4.127  24.420   8.159  1.00  0.00     0.176 C 
HETATM    7  N2  UNL     1      -3.254  23.686   7.270  1.00  0.00    -0.346 N 
ATOM      8  H2  UNL     1      -3.369  23.865   6.273  1.00  0.00     0.163 HD
HETATM    9  C15 UNL     1      -2.263  22.751   7.625  1.00  0.00     0.242 C 
HETATM   10  O2  UNL     1      -2.272  21.637   6.991  1.00  0.00    -0.271 OA
HETATM   11  C16 UNL     1      -1.208  22.904   8.642  1.00  0.00     0.273 C 
HETATM   12  O3  UNL     1       0.044  23.141   8.090  1.00  0.00    -0.356 OA
HETATM   13  C17 UNL     1       0.119  24.165   7.200  1.00  0.00     0.241 C 
HETATM   14  N5  UNL     1       0.389  25.449   7.850  1.00  0.00    -0.331 N 
ATOM     15  H5  UNL     1       1.251  25.511   8.393  1.00  0.00     0.165 HD
HETATM   16  C24 UNL     1      -0.401  26.591   7.808  1.00  0.00     0.242 C 
HETATM   17  O5  UNL     1       0.174  27.720   7.993  1.00  0.00    -0.271 OA
ENDROOT
BRANCH  13  18
HETATM   18  C18 UNL     1       1.165  23.895   6.149  1.00  0.00     0.178 C 
BRANCH  18  19
HETATM   19  N3  UNL     1       2.339  23.239   6.591  1.00  0.00    -0.339 N 
HETATM   20  C19 UNL     1       3.583  23.059   5.963  1.00  0.00     0.316 C 
HETATM   21  O4  UNL     1       3.788  23.549   4.825  1.00  0.00    -0.247 OA
HETATM   22  N4  UNL     1       4.630  22.315   6.620  1.00  0.00    -0.343 N 
ATOM     23  H4  UNL     1       4.483  21.911   7.546  1.00  0.00     0.164 HD
ATOM     24  H3  UNL     1       2.269  22.826   7.521  1.00  0.00     0.164 HD
BRANCH  22  25
HETATM   25  C20 UNL     1       5.879  22.157   5.942  1.00  0.00     0.124 C 
BRANCH  25  26
HETATM   26  C21 UNL     1       6.940  23.104   6.463  1.00  0.00     0.019 C 
BRANCH  26  27
HETATM   27  C22 UNL     1       7.562  23.841   5.287  1.00  0.00    -0.003 C 
HETATM   28  C23 UNL     1       6.924  25.202   5.197  1.00  0.00     0.005 C 
ENDBRANCH  26  27
ENDBRANCH  25  26
ENDBRANCH  22  25
ENDBRANCH  18  19
ENDBRANCH  13  18
BRANCH   1  29
HETATM   29  C7  UNL     1      -2.303  27.996   7.132  1.00  0.00     0.035 C 
BRANCH  29  30
HETATM   30  C6  UNL     1      -3.274  28.634   8.080  1.00  0.00     0.002 C 
BRANCH  30  31
HETATM   31  C5  UNL     1      -4.038  29.766   7.427  1.00  0.00     0.000 C 
BRANCH  31  32
HETATM   32  C4  UNL     1      -3.313  30.400   6.285  1.00  0.00     0.000 C 
BRANCH  32  33
HETATM   33  C3  UNL     1      -3.144  31.894   6.461  1.00  0.00    -0.000 C 
BRANCH  33  34
HETATM   34  C2  UNL     1      -1.678  32.270   6.341  1.00  0.00    -0.005 C 
HETATM   35  C1  UNL     1      -0.821  31.528   7.314  1.00  0.00     0.005 C 
ENDBRANCH  33  34
ENDBRANCH  32  33
ENDBRANCH  31  32
ENDBRANCH  30  31
ENDBRANCH  29  30
ENDBRANCH   1  29
BRANCH   6  36
HETATM   36  C11 UNL     1      -5.152  23.500   8.741  1.00  0.00     0.035 C 
BRANCH  36  37
HETATM   37  C12 UNL     1      -5.233  22.125   8.214  1.00  0.00     0.002 C 
BRANCH  37  38
HETATM   38  C13 UNL     1      -5.056  21.174   9.411  1.00  0.00    -0.004 C 
HETATM   39  C14 UNL     1      -4.575  19.834   8.935  1.00  0.00     0.005 C 
ENDBRANCH  37  38
ENDBRANCH  36  37
ENDBRANCH   6  36
TORSDOF 14
ENDMDL
MODEL 2
REMARK VINA RESULT: -7.720061446      2.082      7.728
REMARK  14 active torsions:
REMARK  status: ('A' for Active; 'I' for Inactive)
REMARK    1  A    between atoms: C2_2  and  C3_3 
REMARK    2  A    between atoms: C3_3  and  C4_4 
REMARK    3  A    between atoms: C4_4  and  C5_5 
REMARK    4  A    between atoms: C5_5  and  C6_6 
REMARK    5  A    between atoms: C6_6  and  C7_7 
REMARK    6  A    between atoms: C7_7  and  C8_8 
REMARK    7  A    between atoms: C10_13  and  C11_14 
REMARK    8  A    between atoms: C11_14  and  C12_15 
REMARK    9  A    between atoms: C12_15  and  C13_16 
REMARK   10  A    between atoms: C17_24  and  C18_25 
REMARK   11  A    between atoms: C18_25  and  N3_26 
REMARK       I    between atoms: N3_26  and  C19_28 
REMARK       I    between atoms: C19_28  and  N4_30 
REMARK   12  A    between atoms: N4_30  and  C20_32 
REMARK   13  A    between atoms: C20_32  and  C21_33 
REMARK   14  A    between atoms: C21_33  and  C22_34 
ROOT
HETATM    1  C8  UNL     1      -0.655  22.478   8.664  1.00  0.00     0.176 C 
HETATM    2  N1  UNL     1      -1.136  21.760   7.501  1.00  0.00    -0.346 N 
ATOM      3  H1  UNL     1      -0.509  21.721   6.698  1.00  0.00     0.163 HD
HETATM    4  C9  UNL     1      -2.375  21.113   7.363  1.00  0.00     0.241 C 
HETATM    5  O1  UNL     1      -2.710  20.843   6.157  1.00  0.00    -0.271 OA
HETATM    6  C10 UNL     1      -3.299  20.722   8.430  1.00  0.00     0.176 C 
HETATM    7  N2  UNL     1      -3.752  21.803   9.277  1.00  0.00    -0.346 N 
ATOM      8  H2  UNL     1      -3.517  21.731  10.267  1.00  0.00     0.163 HD
HETATM    9  C15 UNL     1      -4.481  22.944   8.892  1.00  0.00     0.242 C 
HETATM   10  O2  UNL     1      -5.514  23.229   9.596  1.00  0.00    -0.271 OA
HETATM   11  C16 UNL     1      -4.195  23.855   7.770  1.00  0.00     0.273 C 
HETATM   12  O3  UNL     1      -3.651  25.065   8.183  1.00  0.00    -0.356 OA
HETATM   13  C17 UNL     1      -2.562  24.984   8.992  1.00  0.00     0.241 C 
HETATM   14  N5  UNL     1      -1.311  24.913   8.236  1.00  0.00    -0.331 N 
ATOM     15  H5  UNL     1      -1.113  25.694   7.610  1.00  0.00     0.165 HD
HETATM   16  C24 UNL     1      -0.363  23.897   8.278  1.00  0.00     0.242 C 
HETATM   17  O5  UNL     1       0.843  24.195   7.965  1.00  0.00    -0.271 OA
ENDROOT
BRANCH  13  18
HETATM   18  C18 UNL     1      -2.514  26.143   9.954  1.00  0.00     0.178 C 
BRANCH  18  19
HETATM   19  N3  UNL     1      -3.029  27.372   9.475  1.00  0.00    -0.339 N 
HETATM   20  C19 UNL     1      -2.497  28.298   8.561  1.00  0.00     0.316 C 
HETATM   21  O4  UNL     1      -1.393  28.070   8.008  1.00  0.00    -0.247 OA
HETATM   22  N4  UNL     1      -3.213  29.512   8.253  1.00  0.00    -0.343 N 
ATOM     23  H4  UNL     1      -4.113  29.714   8.692  1.00  0.00     0.164 HD
ATOM     24  H3  UNL     1      -3.939  27.629   9.858  1.00  0.00     0.164 HD
BRANCH  22  25
HETATM   25  C20 UNL     1      -2.633  30.425   7.319  1.00  0.00     0.124 C 
BRANCH  25  26
HETATM   26  C21 UNL     1      -3.532  30.677   6.127  1.00  0.00     0.019 C 
BRANCH  26  27
HETATM   27  C22 UNL     1      -3.423  32.141   5.730  1.00  0.00    -0.003 C 
HETATM   28  C23 UNL     1      -4.233  32.349   4.478  1.00  0.00     0.005 C 
ENDBRANCH  26  27
ENDBRANCH  25  26
ENDBRANCH  22  25
ENDBRANCH  18  19
ENDBRANCH  13  18
BRANCH   1  29
HETATM   29  C7  UNL     1       0.658  21.794   9.040  1.00  0.00     0.035 C 
BRANCH  29  30
HETATM   30  C6  UNL     1       1.133  20.823   8.001  1.00  0.00     0.002 C 
BRANCH  30  31
HETATM   31  C5  UNL     1       2.559  21.103   7.578  1.00  0.00     0.000 C 
BRANCH  31  32
HETATM   32  C4  UNL     1       2.666  21.908   6.324  1.00  0.00     0.000 C 
BRANCH  32  33
HETATM   33  C3  UNL     1       3.893  22.793   6.304  1.00  0.00    -0.000 C 
BRANCH  33  34
HETATM   34  C2  UNL     1       5.135  21.969   6.591  1.00  0.00    -0.005 C 
HETATM   35  C1  UNL     1       6.390  22.681   6.206  1.00  0.00     0.005 C 
ENDBRANCH  33  34
ENDBRANCH  32  33
ENDBRANCH  31  32
ENDBRANCH  30  31
ENDBRANCH  29  30
ENDBRANCH   1  29
BRANCH   6  36
HETATM   36  C11 UNL     1      -4.461  19.881   8.011  1.00  0.00     0.035 C 
BRANCH  36  37
HETATM   37  C12 UNL     1      -5.538  19.644   8.991  1.00  0.00     0.002 C 
BRANCH  37  38
HETATM   38  C13 UNL     1      -4.902  18.925  10.193  1.00  0.00    -0.004 C 
HETATM   39  C14 UNL     1      -5.590  19.341  11.461  1.00  0.00     0.005 C 
ENDBRANCH  37  38
ENDBRANCH  36  37
ENDBRANCH   6  36
TORSDOF 14
ENDMDL
MODEL 3
REMARK VINA RESULT: -7.526174912      6.763     13.289
REMARK  14 active torsions:
REMARK  status: ('A' for Active; 'I' for Inactive)
REMARK    1  A    between atoms: C2_2  and  C3_3 
REMARK    2  A    between atoms: C3_3  and  C4_4 
REMARK    3  A    between atoms: C4_4  and  C5_5 
REMARK    4  A    between atoms: C5_5  and  C6_6 
REMARK    5  A    between atoms: C6_6  and  C7_7 
REMARK    6  A    between atoms: C7_7  and  C8_8 
REMARK    7  A    between atoms: C10_13  and  C11_14 
REMARK    8  A    between atoms: C11_14  and  C12_15 
REMARK    9  A    between atoms: C12_15  and  C13_16 
REMARK   10  A    between atoms: C17_24  and  C18_25 
REMARK   11  A    between atoms: C18_25  and  N3_26 
REMARK       I    between atoms: N3_26  and  C19_28 
REMARK       I    between atoms: C19_28  and  N4_30 
REMARK   12  A    between atoms: N4_30  and  C20_32 
REMARK   13  A    between atoms: C20_32  and  C21_33 
REMARK   14  A    between atoms: C21_33  and  C22_34 
ROOT
HETATM    1  C8  UNL     1       9.644  27.860   1.273  1.00  0.00     0.176 C 
HETATM    2  N1  UNL     1      10.436  28.917   1.867  1.00  0.00    -0.346 N 
ATOM      3  H1  UNL     1      11.397  29.007   1.537  1.00  0.00     0.163 HD
HETATM    4  C9  UNL     1      10.021  29.831   2.850  1.00  0.00     0.241 C 
HETATM    5  O1  UNL     1      10.972  30.442   3.452  1.00  0.00    -0.271 OA
HETATM    6  C10 UNL     1       8.648  30.151   3.245  1.00  0.00     0.176 C 
HETATM    7  N2  UNL     1       7.861  29.025   3.700  1.00  0.00    -0.346 N 
ATOM      8  H2  UNL     1       7.024  28.810   3.159  1.00  0.00     0.163 HD
HETATM    9  C15 UNL     1       8.119  28.192   4.806  1.00  0.00     0.242 C 
HETATM   10  O2  UNL     1       7.140  27.980   5.605  1.00  0.00    -0.271 OA
HETATM   11  C16 UNL     1       9.389  27.531   5.153  1.00  0.00     0.273 C 
HETATM   12  O3  UNL     1       9.382  26.170   4.875  1.00  0.00    -0.356 OA
HETATM   13  C17 UNL     1       9.018  25.821   3.613  1.00  0.00     0.241 C 
HETATM   14  N5  UNL     1      10.156  25.795   2.693  1.00  0.00    -0.331 N 
ATOM     15  H5  UNL     1      10.918  25.159   2.930  1.00  0.00     0.165 HD
HETATM   16  C24 UNL     1      10.311  26.542   1.532  1.00  0.00     0.242 C 
HETATM   17  O5  UNL     1      11.078  26.073   0.620  1.00  0.00    -0.271 OA
ENDROOT
BRANCH  13  18
HETATM   18  C18 UNL     1       8.319  24.485   3.600  1.00  0.00     0.178 C 
BRANCH  18  19
HETATM   19  N3  UNL     1       7.075  24.426   4.271  1.00  0.00    -0.339 N 
HETATM   20  C19 UNL     1       6.501  23.411   5.056  1.00  0.00     0.316 C 
HETATM   21  O4  UNL     1       7.137  22.350   5.270  1.00  0.00    -0.247 OA
HETATM   22  N4  UNL     1       5.183  23.581   5.618  1.00  0.00    -0.343 N 
ATOM     23  H4  UNL     1       4.652  24.437   5.456  1.00  0.00     0.164 HD
ATOM     24  H3  UNL     1       6.497  25.261   4.168  1.00  0.00     0.164 HD
BRANCH  22  25
HETATM   25  C20 UNL     1       4.640  22.521   6.409  1.00  0.00     0.124 C 
BRANCH  25  26
HETATM   26  C21 UNL     1       3.128  22.562   6.465  1.00  0.00     0.019 C 
BRANCH  26  27
HETATM   27  C22 UNL     1       2.683  22.342   7.902  1.00  0.00    -0.003 C 
HETATM   28  C23 UNL     1       1.728  21.177   7.925  1.00  0.00     0.005 C 
ENDBRANCH  26  27
ENDBRANCH  25  26
ENDBRANCH  22  25
ENDBRANCH  18  19
ENDBRANCH  13  18
BRANCH   1  29
HETATM   29  C7  UNL     1       9.671  28.135  -0.229  1.00  0.00     0.035 C 
BRANCH  29  30
HETATM   30  C6  UNL     1      10.632  29.222  -0.609  1.00  0.00     0.002 C 
BRANCH  30  31
HETATM   31  C5  UNL     1      11.651  28.746  -1.622  1.00  0.00     0.000 C 
BRANCH  31  32
HETATM   32  C4  UNL     1      12.988  28.440  -1.030  1.00  0.00     0.000 C 
BRANCH  32  33
HETATM   33  C3  UNL     1      13.581  27.155  -1.566  1.00  0.00    -0.000 C 
BRANCH  33  34
HETATM   34  C2  UNL     1      15.086  27.155  -1.369  1.00  0.00    -0.005 C 
HETATM   35  C1  UNL     1      15.513  26.249  -0.261  1.00  0.00     0.005 C 
ENDBRANCH  33  34
ENDBRANCH  32  33
ENDBRANCH  31  32
ENDBRANCH  30  31
ENDBRANCH  29  30
ENDBRANCH   1  29
BRANCH   6  36
HETATM   36  C11 UNL     1       8.491  31.298   4.191  1.00  0.00     0.035 C 
BRANCH  36  37
HETATM   37  C12 UNL     1       7.557  32.379   3.824  1.00  0.00     0.002 C 
BRANCH  37  38
HETATM   38  C13 UNL     1       7.341  32.290   2.303  1.00  0.00    -0.004 C 
HETATM   39  C14 UNL     1       5.874  32.350   1.990  1.00  0.00     0.005 C 
ENDBRANCH  37  38
ENDBRANCH  36  37
ENDBRANCH   6  36
TORSDOF 14
ENDMDL
MODEL 4
REMARK VINA RESULT: -7.519999869      7.005     13.315
REMARK  14 active torsions:
REMARK  status: ('A' for Active; 'I' for Inactive)
REMARK    1  A    between atoms: C2_2  and  C3_3 
REMARK    2  A    between atoms: C3_3  and  C4_4 
REMARK    3  A    between atoms: C4_4  and  C5_5 
REMARK    4  A    between atoms: C5_5  and  C6_6 
REMARK    5  A    between atoms: C6_6  and  C7_7 
REMARK    6  A    between atoms: C7_7  and  C8_8 
REMARK    7  A    between atoms: C10_13  and  C11_14 
REMARK    8  A    between atoms: C11_14  and  C12_15 
REMARK    9  A    between atoms: C12_15  and  C13_16 
REMARK   10  A    between atoms: C17_24  and  C18_25 
REMARK   11  A    between atoms: C18_25  and  N3_26 
REMARK       I    between atoms: N3_26  and  C19_28 
REMARK       I    between atoms: C19_28  and  N4_30 
REMARK   12  A    between atoms: N4_30  and  C20_32 
REMARK   13  A    between atoms: C20_32  and  C21_33 
REMARK   14  A    between atoms: C21_33  and  C22_34 
ROOT
HETATM    1  C8  UNL     1       9.488  27.913   1.295  1.00  0.00     0.176 C 
HETATM    2  N1  UNL     1      10.302  28.951   1.894  1.00  0.00    -0.346 N 
ATOM      3  H1  UNL     1      11.249  29.055   1.528  1.00  0.00     0.163 HD
HETATM    4  C9  UNL     1       9.927  29.829   2.924  1.00  0.00     0.241 C 
HETATM    5  O1  UNL     1      10.900  30.421   3.508  1.00  0.00    -0.271 OA
HETATM    6  C10 UNL     1       8.570  30.130   3.385  1.00  0.00     0.176 C 
HETATM    7  N2  UNL     1       7.804  28.987   3.832  1.00  0.00    -0.346 N 
ATOM      8  H2  UNL     1       6.946  28.789   3.318  1.00  0.00     0.163 HD
HETATM    9  C15 UNL     1       8.108  28.117   4.896  1.00  0.00     0.242 C 
HETATM   10  O2  UNL     1       7.162  27.874   5.727  1.00  0.00    -0.271 OA
HETATM   11  C16 UNL     1       9.392  27.447   5.169  1.00  0.00     0.273 C 
HETATM   12  O3  UNL     1       9.376  26.097   4.843  1.00  0.00    -0.356 OA
HETATM   13  C17 UNL     1       8.961  25.791   3.586  1.00  0.00     0.241 C 
HETATM   14  N5  UNL     1      10.061  25.801   2.620  1.00  0.00    -0.331 N 
ATOM     15  H5  UNL     1      10.832  25.159   2.804  1.00  0.00     0.165 HD
HETATM   16  C24 UNL     1      10.167  26.589   1.481  1.00  0.00     0.242 C 
HETATM   17  O5  UNL     1      10.897  26.154   0.522  1.00  0.00    -0.271 OA
ENDROOT
BRANCH  13  18
HETATM   18  C18 UNL     1       8.264  24.455   3.555  1.00  0.00     0.178 C 
BRANCH  18  19
HETATM   19  N3  UNL     1       7.041  24.373   4.263  1.00  0.00    -0.339 N 
HETATM   20  C19 UNL     1       6.510  23.348   5.065  1.00  0.00     0.316 C 
HETATM   21  O4  UNL     1       7.173  22.299   5.260  1.00  0.00    -0.247 OA
HETATM   22  N4  UNL     1       5.207  23.493   5.666  1.00  0.00    -0.343 N 
ATOM     23  H4  UNL     1       4.655  24.338   5.520  1.00  0.00     0.164 HD
ATOM     24  H3  UNL     1       6.445  25.196   4.177  1.00  0.00     0.164 HD
BRANCH  22  25
HETATM   25  C20 UNL     1       4.708  22.423   6.473  1.00  0.00     0.124 C 
BRANCH  25  26
HETATM   26  C21 UNL     1       3.197  22.340   6.447  1.00  0.00     0.019 C 
BRANCH  26  27
HETATM   27  C22 UNL     1       2.741  21.353   7.511  1.00  0.00    -0.003 C 
HETATM   28  C23 UNL     1       2.320  22.135   8.727  1.00  0.00     0.005 C 
ENDBRANCH  26  27
ENDBRANCH  25  26
ENDBRANCH  22  25
ENDBRANCH  18  19
ENDBRANCH  13  18
BRANCH   1  29
HETATM   29  C7  UNL     1       9.454  28.240  -0.196  1.00  0.00     0.035 C 
BRANCH  29  30
HETATM   30  C6  UNL     1      10.378  29.360  -0.571  1.00  0.00     0.002 C 
BRANCH  30  31
HETATM   31  C5  UNL     1      11.458  28.904  -1.528  1.00  0.00     0.000 C 
BRANCH  31  32
HETATM   32  C4  UNL     1      12.820  28.851  -0.915  1.00  0.00     0.000 C 
BRANCH  32  33
HETATM   33  C3  UNL     1      13.748  27.902  -1.640  1.00  0.00    -0.000 C 
BRANCH  33  34
HETATM   34  C2  UNL     1      13.992  26.664  -0.795  1.00  0.00    -0.005 C 
HETATM   35  C1  UNL     1      15.446  26.401  -0.581  1.00  0.00     0.005 C 
ENDBRANCH  33  34
ENDBRANCH  32  33
ENDBRANCH  31  32
ENDBRANCH  30  31
ENDBRANCH  29  30
ENDBRANCH   1  29
BRANCH   6  36
HETATM   36  C11 UNL     1       8.450  31.243   4.376  1.00  0.00     0.035 C 
BRANCH  36  37
HETATM   37  C12 UNL     1       8.069  32.579   3.880  1.00  0.00     0.002 C 
BRANCH  37  38
HETATM   38  C13 UNL     1       8.900  33.606   4.670  1.00  0.00    -0.004 C 
HETATM   39  C14 UNL     1       9.712  32.907   5.721  1.00  0.00     0.005 C 
ENDBRANCH  37  38
ENDBRANCH  36  37
ENDBRANCH   6  36
TORSDOF 14
ENDMDL
MODEL 5
REMARK VINA RESULT: -7.457361777      8.343     13.116
REMARK  14 active torsions:
REMARK  status: ('A' for Active; 'I' for Inactive)
REMARK    1  A    between atoms: C2_2  and  C3_3 
REMARK    2  A    between atoms: C3_3  and  C4_4 
REMARK    3  A    between atoms: C4_4  and  C5_5 
REMARK    4  A    between atoms: C5_5  and  C6_6 
REMARK    5  A    between atoms: C6_6  and  C7_7 
REMARK    6  A    between atoms: C7_7  and  C8_8 
REMARK    7  A    between atoms: C10_13  and  C11_14 
REMARK    8  A    between atoms: C11_14  and  C12_15 
REMARK    9  A    between atoms: C12_15  and  C13_16 
REMARK   10  A    between atoms: C17_24  and  C18_25 
REMARK   11  A    between atoms: C18_25  and  N3_26 
REMARK       I    between atoms: N3_26  and  C19_28 
REMARK       I    between atoms: C19_28  and  N4_30 
REMARK   12  A    between atoms: N4_30  and  C20_32 
REMARK   13  A    between atoms: C20_32  and  C21_33 
REMARK   14  A    between atoms: C21_33  and  C22_34 
ROOT
HETATM    1  C8  UNL     1       9.301  26.445   2.889  1.00  0.00     0.176 C 
HETATM    2  N1  UNL     1      10.544  26.263   2.166  1.00  0.00    -0.346 N 
ATOM      3  H1  UNL     1      11.312  25.832   2.681  1.00  0.00     0.163 HD
HETATM    4  C9  UNL     1      10.803  26.619   0.832  1.00  0.00     0.241 C 
HETATM    5  O1  UNL     1      12.044  26.672   0.521  1.00  0.00    -0.271 OA
HETATM    6  C10 UNL     1       9.824  26.924  -0.214  1.00  0.00     0.176 C 
HETATM    7  N2  UNL     1       8.918  28.010   0.091  1.00  0.00    -0.346 N 
ATOM      8  H2  UNL     1       7.926  27.776   0.121  1.00  0.00     0.163 HD
HETATM    9  C15 UNL     1       9.249  29.353   0.349  1.00  0.00     0.242 C 
HETATM   10  O2  UNL     1       8.583  30.242  -0.292  1.00  0.00    -0.271 OA
HETATM   11  C16 UNL     1      10.276  29.862   1.276  1.00  0.00     0.273 C 
HETATM   12  O3  UNL     1       9.736  30.383   2.445  1.00  0.00    -0.356 OA
HETATM   13  C17 UNL     1       8.876  29.574   3.118  1.00  0.00     0.241 C 
HETATM   14  N5  UNL     1       9.565  28.699   4.068  1.00  0.00    -0.331 N 
ATOM     15  H5  UNL     1      10.114  29.160   4.795  1.00  0.00     0.165 HD
HETATM   16  C24 UNL     1       9.553  27.310   4.088  1.00  0.00     0.242 C 
HETATM   17  O5  UNL     1       9.773  26.728   5.207  1.00  0.00    -0.271 OA
ENDROOT
BRANCH  13  18
HETATM   18  C18 UNL     1       7.823  30.378   3.835  1.00  0.00     0.178 C 
BRANCH  18  19
HETATM   19  N3  UNL     1       7.964  30.481   5.239  1.00  0.00    -0.339 N 
HETATM   20  C19 UNL     1       7.568  29.611   6.269  1.00  0.00     0.316 C 
HETATM   21  O4  UNL     1       7.004  28.524   5.989  1.00  0.00    -0.247 OA
HETATM   22  N4  UNL     1       7.804  29.959   7.649  1.00  0.00    -0.343 N 
ATOM     23  H4  UNL     1       8.262  30.837   7.896  1.00  0.00     0.164 HD
ATOM     24  H3  UNL     1       8.433  31.329   5.558  1.00  0.00     0.164 HD
BRANCH  22  25
HETATM   25  C20 UNL     1       7.382  29.043   8.663  1.00  0.00     0.124 C 
BRANCH  25  26
HETATM   26  C21 UNL     1       8.506  28.668   9.604  1.00  0.00     0.019 C 
BRANCH  26  27
HETATM   27  C22 UNL     1       7.914  28.297  10.955  1.00  0.00    -0.003 C 
HETATM   28  C23 UNL     1       8.843  27.317  11.621  1.00  0.00     0.005 C 
ENDBRANCH  26  27
ENDBRANCH  25  26
ENDBRANCH  22  25
ENDBRANCH  18  19
ENDBRANCH  13  18
BRANCH   1  29
HETATM   29  C7  UNL     1       8.909  25.048   3.367  1.00  0.00     0.035 C 
BRANCH  29  30
HETATM   30  C6  UNL     1       7.426  24.869   3.501  1.00  0.00     0.002 C 
BRANCH  30  31
HETATM   31  C5  UNL     1       7.011  24.658   4.942  1.00  0.00     0.000 C 
BRANCH  31  32
HETATM   32  C4  UNL     1       7.531  23.390   5.536  1.00  0.00     0.000 C 
BRANCH  32  33
HETATM   33  C3  UNL     1       6.465  22.618   6.283  1.00  0.00    -0.000 C 
BRANCH  33  34
HETATM   34  C2  UNL     1       5.089  23.142   5.915  1.00  0.00    -0.005 C 
HETATM   35  C1  UNL     1       4.000  22.192   6.295  1.00  0.00     0.005 C 
ENDBRANCH  33  34
ENDBRANCH  32  33
ENDBRANCH  31  32
ENDBRANCH  30  31
ENDBRANCH  29  30
ENDBRANCH   1  29
BRANCH   6  36
HETATM   36  C11 UNL     1      10.374  27.091  -1.593  1.00  0.00     0.035 C 
BRANCH  36  37
HETATM   37  C12 UNL     1       9.892  26.181  -2.650  1.00  0.00     0.002 C 
BRANCH  37  38
HETATM   38  C13 UNL     1       9.738  24.790  -2.010  1.00  0.00    -0.004 C 
HETATM   39  C14 UNL     1      10.165  23.729  -2.981  1.00  0.00     0.005 C 
ENDBRANCH  37  38
ENDBRANCH  36  37
ENDBRANCH   6  36
TORSDOF 14
ENDMDL
