MODEL 1
REMARK VINA RESULT: -9.155963569      0.000      0.000
REMARK  6 active torsions:
REMARK  status: ('A' for Active; 'I' for Inactive)
REMARK    1  A    between atoms: C6_7  and  N1_8 
REMARK       I    between atoms: N1_8  and  C7_10 
REMARK    2  A    between atoms: C7_10  and  C8_12 
REMARK    3  A    between atoms: C8_12  and  C9_13 
REMARK    4  A    between atoms: C9_13  and  C10_14 
REMARK       I    between atoms: C10_14  and  N2_16 
REMARK    5  A    between atoms: N2_16  and  C11_18 
REMARK    6  A    between atoms: C18_25  and  C19_26 
ROOT
HETATM    1  N1  UNL     1     -25.043   6.595  -3.236  1.00  0.00    -0.320 N 
ATOM      2  H1  UNL     1     -25.935   6.892  -3.632  1.00  0.00     0.169 HD
HETATM    3  C7  UNL     1     -24.047   7.559  -2.829  1.00  0.00     0.223 C 
HETATM    4  O1  UNL     1     -22.980   7.119  -2.354  1.00  0.00    -0.273 OA
ENDROOT
BRANCH   1   5
HETATM    5  C6  UNL     1     -24.733   5.203  -3.063  1.00  0.00     0.093 A 
HETATM    6  S1  UNL     1     -23.872   4.221  -4.200  1.00  0.00    -0.075 SA
HETATM    7  C5  UNL     1     -23.887   2.766  -3.359  1.00  0.00    -0.008 A 
HETATM    8  C4  UNL     1     -23.357   1.360  -3.595  1.00  0.00     0.047 C 
HETATM    9  C20 UNL     1     -24.564   3.053  -2.193  1.00  0.00    -0.026 A 
HETATM   10  C3  UNL     1     -24.460   0.359  -3.359  1.00  0.00     0.009 C 
HETATM   11  C2  UNL     1     -25.259   0.670  -2.124  1.00  0.00    -0.014 C 
HETATM   12  C1  UNL     1     -26.706   0.989  -2.409  1.00  0.00     0.010 C 
HETATM   13  C21 UNL     1     -24.660   1.812  -1.328  1.00  0.00     0.045 C 
HETATM   14  C18 UNL     1     -25.004   4.328  -2.042  1.00  0.00     0.070 A 
BRANCH  14  15
HETATM   15  C19 UNL     1     -25.752   4.830  -0.843  1.00  0.00     0.268 C 
HETATM   16  N3  UNL     1     -25.226   5.853  -0.010  1.00  0.00    -0.057 NA
HETATM   17  O3  UNL     1     -26.870   4.369  -0.529  1.00  0.00    -0.271 OA
ENDBRANCH  14  15
ENDBRANCH   1   5
BRANCH   3  18
HETATM   18  C8  UNL     1     -24.301   9.003  -2.979  1.00  0.00     0.112 C 
BRANCH  18  19
HETATM   19  C9  UNL     1     -25.757   9.198  -3.308  1.00  0.00     0.112 C 
BRANCH  19  20
HETATM   20  C10 UNL     1     -26.000  10.403  -4.118  1.00  0.00     0.218 C 
HETATM   21  O2  UNL     1     -26.224  11.483  -3.509  1.00  0.00    -0.274 OA
HETATM   22  N2  UNL     1     -25.975  10.304  -5.528  1.00  0.00    -0.356 N 
ATOM     23  H2  UNL     1     -25.789   9.403  -5.967  1.00  0.00     0.162 HD
BRANCH  22  24
HETATM   24  C11 UNL     1     -26.207  11.453  -6.344  1.00  0.00     0.084 C 
HETATM   25  C12 UNL     1     -27.533  11.463  -7.041  1.00  0.00     0.025 C 
HETATM   26  C13 UNL     1     -27.435  11.520  -8.532  1.00  0.00     0.002 C 
HETATM   27  C14 UNL     1     -26.536  12.596  -9.052  1.00  0.00     0.004 C 
HETATM   28  C15 UNL     1     -25.401  12.926  -8.101  1.00  0.00    -0.017 C 
HETATM   29  C16 UNL     1     -24.191  13.369  -8.854  1.00  0.00     0.010 C 
HETATM   30  C17 UNL     1     -25.080  11.620  -7.367  1.00  0.00     0.029 C 
ENDBRANCH  22  24
ENDBRANCH  19  20
ENDBRANCH  18  19
ENDBRANCH   3  18
TORSDOF 6
ENDMDL
MODEL 2
REMARK VINA RESULT: -9.083517585      1.522      2.297
REMARK  6 active torsions:
REMARK  status: ('A' for Active; 'I' for Inactive)
REMARK    1  A    between atoms: C6_7  and  N1_8 
REMARK       I    between atoms: N1_8  and  C7_10 
REMARK    2  A    between atoms: C7_10  and  C8_12 
REMARK    3  A    between atoms: C8_12  and  C9_13 
REMARK    4  A    between atoms: C9_13  and  C10_14 
REMARK       I    between atoms: C10_14  and  N2_16 
REMARK    5  A    between atoms: N2_16  and  C11_18 
REMARK    6  A    between atoms: C18_25  and  C19_26 
ROOT
HETATM    1  N1  UNL     1     -25.511   6.934  -3.007  1.00  0.00    -0.320 N 
ATOM      2  H1  UNL     1     -26.400   7.393  -3.206  1.00  0.00     0.169 HD
HETATM    3  C7  UNL     1     -24.285   7.691  -2.905  1.00  0.00     0.223 C 
HETATM    4  O1  UNL     1     -23.236   7.060  -2.658  1.00  0.00    -0.273 OA
ENDROOT
BRANCH   1   5
HETATM    5  C6  UNL     1     -25.434   5.512  -2.816  1.00  0.00     0.093 A 
HETATM    6  S1  UNL     1     -25.586   4.696  -1.297  1.00  0.00    -0.075 SA
HETATM    7  C5  UNL     1     -25.394   3.113  -1.825  1.00  0.00    -0.008 A 
HETATM    8  C4  UNL     1     -25.389   1.735  -1.178  1.00  0.00     0.047 C 
HETATM    9  C20 UNL     1     -25.211   3.227  -3.187  1.00  0.00    -0.026 A 
HETATM   10  C3  UNL     1     -24.163   0.976  -1.618  1.00  0.00     0.009 C 
HETATM   11  C2  UNL     1     -23.898   1.122  -3.090  1.00  0.00    -0.014 C 
HETATM   12  C1  UNL     1     -22.593   1.814  -3.401  1.00  0.00     0.010 C 
HETATM   13  C21 UNL     1     -25.017   1.855  -3.803  1.00  0.00     0.045 C 
HETATM   14  C18 UNL     1     -25.233   4.482  -3.701  1.00  0.00     0.070 A 
BRANCH  14  15
HETATM   15  C19 UNL     1     -25.060   4.806  -5.156  1.00  0.00     0.268 C 
HETATM   16  N3  UNL     1     -23.872   5.407  -5.650  1.00  0.00    -0.057 NA
HETATM   17  O3  UNL     1     -25.955   4.559  -5.990  1.00  0.00    -0.271 OA
ENDBRANCH  14  15
ENDBRANCH   1   5
BRANCH   3  18
HETATM   18  C8  UNL     1     -24.293   9.153  -3.089  1.00  0.00     0.112 C 
BRANCH  18  19
HETATM   19  C9  UNL     1     -25.722   9.626  -3.067  1.00  0.00     0.112 C 
BRANCH  19  20
HETATM   20  C10 UNL     1     -25.960  10.756  -3.981  1.00  0.00     0.218 C 
HETATM   21  O2  UNL     1     -26.140  11.894  -3.471  1.00  0.00    -0.274 OA
HETATM   22  N2  UNL     1     -25.979  10.525  -5.375  1.00  0.00    -0.356 N 
ATOM     23  H2  UNL     1     -25.827   9.582  -5.732  1.00  0.00     0.162 HD
BRANCH  22  24
HETATM   24  C11 UNL     1     -26.208  11.598  -6.289  1.00  0.00     0.084 C 
HETATM   25  C12 UNL     1     -27.511  11.522  -7.024  1.00  0.00     0.025 C 
HETATM   26  C13 UNL     1     -27.367  11.458  -8.511  1.00  0.00     0.002 C 
HETATM   27  C14 UNL     1     -26.473  12.508  -9.092  1.00  0.00     0.004 C 
HETATM   28  C15 UNL     1     -25.375  12.939  -8.138  1.00  0.00    -0.017 C 
HETATM   29  C16 UNL     1     -24.151  13.345  -8.889  1.00  0.00     0.010 C 
HETATM   30  C17 UNL     1     -25.052  11.705  -7.290  1.00  0.00     0.029 C 
ENDBRANCH  22  24
ENDBRANCH  19  20
ENDBRANCH  18  19
ENDBRANCH   3  18
TORSDOF 6
ENDMDL
MODEL 3
REMARK VINA RESULT: -9.056197630      2.365      9.062
REMARK  6 active torsions:
REMARK  status: ('A' for Active; 'I' for Inactive)
REMARK    1  A    between atoms: C6_7  and  N1_8 
REMARK       I    between atoms: N1_8  and  C7_10 
REMARK    2  A    between atoms: C7_10  and  C8_12 
REMARK    3  A    between atoms: C8_12  and  C9_13 
REMARK    4  A    between atoms: C9_13  and  C10_14 
REMARK       I    between atoms: C10_14  and  N2_16 
REMARK    5  A    between atoms: N2_16  and  C11_18 
REMARK    6  A    between atoms: C18_25  and  C19_26 
ROOT
HETATM    1  N1  UNL     1     -26.370   9.168  -3.184  1.00  0.00    -0.320 N 
ATOM      2  H1  UNL     1     -27.281   8.716  -3.101  1.00  0.00     0.169 HD
HETATM    3  C7  UNL     1     -25.282   8.829  -2.297  1.00  0.00     0.223 C 
HETATM    4  O1  UNL     1     -24.197   9.424  -2.460  1.00  0.00    -0.273 OA
ENDROOT
BRANCH   1   5
HETATM    5  C6  UNL     1     -26.124  10.165  -4.189  1.00  0.00     0.093 A 
HETATM    6  S1  UNL     1     -26.287  11.873  -3.965  1.00  0.00    -0.075 SA
HETATM    7  C5  UNL     1     -25.854  12.386  -5.505  1.00  0.00    -0.008 A 
HETATM    8  C4  UNL     1     -25.710  13.725  -6.213  1.00  0.00     0.047 C 
HETATM    9  C20 UNL     1     -25.584  11.220  -6.190  1.00  0.00    -0.026 A 
HETATM   10  C3  UNL     1     -26.460  13.688  -7.521  1.00  0.00     0.009 C 
HETATM   11  C2  UNL     1     -26.235  12.406  -8.273  1.00  0.00    -0.014 C 
HETATM   12  C1  UNL     1     -27.490  11.587  -8.454  1.00  0.00     0.010 C 
HETATM   13  C21 UNL     1     -25.181  11.536  -7.617  1.00  0.00     0.045 C 
HETATM   14  C18 UNL     1     -25.726  10.062  -5.498  1.00  0.00     0.070 A 
BRANCH  14  15
HETATM   15  C19 UNL     1     -25.471   8.698  -6.068  1.00  0.00     0.268 C 
HETATM   16  N3  UNL     1     -26.128   8.245  -7.243  1.00  0.00    -0.057 NA
HETATM   17  O3  UNL     1     -24.669   7.905  -5.532  1.00  0.00    -0.271 OA
ENDBRANCH  14  15
ENDBRANCH   1   5
BRANCH   3  18
HETATM   18  C8  UNL     1     -25.467   7.814  -1.243  1.00  0.00     0.112 C 
BRANCH  18  19
HETATM   19  C9  UNL     1     -24.162   7.091  -1.045  1.00  0.00     0.112 C 
BRANCH  19  20
HETATM   20  C10 UNL     1     -23.894   6.103  -2.104  1.00  0.00     0.218 C 
HETATM   21  O2  UNL     1     -23.014   6.386  -2.960  1.00  0.00    -0.274 OA
HETATM   22  N2  UNL     1     -24.624   4.892  -2.120  1.00  0.00    -0.356 N 
ATOM     23  H2  UNL     1     -25.325   4.717  -1.400  1.00  0.00     0.162 HD
BRANCH  22  24
HETATM   24  C11 UNL     1     -24.389   3.913  -3.132  1.00  0.00     0.084 C 
HETATM   25  C12 UNL     1     -25.596   3.559  -3.947  1.00  0.00     0.025 C 
HETATM   26  C13 UNL     1     -25.972   2.113  -3.879  1.00  0.00     0.002 C 
HETATM   27  C14 UNL     1     -24.842   1.167  -4.136  1.00  0.00     0.004 C 
HETATM   28  C15 UNL     1     -23.497   1.728  -3.715  1.00  0.00    -0.017 C 
HETATM   29  C16 UNL     1     -22.582   0.634  -3.276  1.00  0.00     0.010 C 
HETATM   30  C17 UNL     1     -23.784   2.645  -2.521  1.00  0.00     0.029 C 
ENDBRANCH  22  24
ENDBRANCH  19  20
ENDBRANCH  18  19
ENDBRANCH   3  18
TORSDOF 6
ENDMDL
MODEL 4
REMARK VINA RESULT: -9.038167750      2.714      4.495
REMARK  6 active torsions:
REMARK  status: ('A' for Active; 'I' for Inactive)
REMARK    1  A    between atoms: C6_7  and  N1_8 
REMARK       I    between atoms: N1_8  and  C7_10 
REMARK    2  A    between atoms: C7_10  and  C8_12 
REMARK    3  A    between atoms: C8_12  and  C9_13 
REMARK    4  A    between atoms: C9_13  and  C10_14 
REMARK       I    between atoms: C10_14  and  N2_16 
REMARK    5  A    between atoms: N2_16  and  C11_18 
REMARK    6  A    between atoms: C18_25  and  C19_26 
ROOT
HETATM    1  N1  UNL     1     -24.932   3.530  -1.148  1.00  0.00    -0.320 N 
ATOM      2  H1  UNL     1     -24.137   3.932  -0.651  1.00  0.00     0.169 HD
HETATM    3  C7  UNL     1     -26.144   4.287  -1.357  1.00  0.00     0.223 C 
HETATM    4  O1  UNL     1     -27.074   3.728  -1.974  1.00  0.00    -0.273 OA
ENDROOT
BRANCH   1   5
HETATM    5  C6  UNL     1     -24.886   2.190  -1.665  1.00  0.00     0.093 A 
HETATM    6  S1  UNL     1     -25.876   0.876  -1.128  1.00  0.00    -0.075 SA
HETATM    7  C5  UNL     1     -25.289  -0.330  -2.141  1.00  0.00    -0.008 A 
HETATM    8  C4  UNL     1     -25.582  -1.805  -2.372  1.00  0.00     0.047 C 
HETATM    9  C20 UNL     1     -24.321   0.299  -2.895  1.00  0.00    -0.026 A 
HETATM   10  C3  UNL     1     -24.293  -2.586  -2.345  1.00  0.00     0.009 C 
HETATM   11  C2  UNL     1     -23.194  -1.904  -3.111  1.00  0.00    -0.014 C 
HETATM   12  C1  UNL     1     -22.026  -1.492  -2.249  1.00  0.00     0.010 C 
HETATM   13  C21 UNL     1     -23.694  -0.685  -3.862  1.00  0.00     0.045 C 
HETATM   14  C18 UNL     1     -24.114   1.616  -2.644  1.00  0.00     0.070 A 
BRANCH  14  15
HETATM   15  C19 UNL     1     -23.112   2.469  -3.364  1.00  0.00     0.268 C 
HETATM   16  N3  UNL     1     -23.464   3.731  -3.914  1.00  0.00    -0.057 NA
HETATM   17  O3  UNL     1     -21.926   2.105  -3.508  1.00  0.00    -0.271 OA
ENDBRANCH  14  15
ENDBRANCH   1   5
BRANCH   3  18
HETATM   18  C8  UNL     1     -26.258   5.667  -0.852  1.00  0.00     0.112 C 
BRANCH  18  19
HETATM   19  C9  UNL     1     -24.874   6.245  -0.732  1.00  0.00     0.112 C 
BRANCH  19  20
HETATM   20  C10 UNL     1     -24.368   6.777  -2.009  1.00  0.00     0.218 C 
HETATM   21  O2  UNL     1     -23.127   6.715  -2.219  1.00  0.00    -0.274 OA
HETATM   22  N2  UNL     1     -25.280   7.329  -2.938  1.00  0.00    -0.356 N 
ATOM     23  H2  UNL     1     -26.275   7.353  -2.714  1.00  0.00     0.162 HD
BRANCH  22  24
HETATM   24  C11 UNL     1     -24.823   7.854  -4.185  1.00  0.00     0.084 C 
HETATM   25  C12 UNL     1     -25.210   9.279  -4.439  1.00  0.00     0.025 C 
HETATM   26  C13 UNL     1     -26.037   9.473  -5.669  1.00  0.00     0.002 C 
HETATM   27  C14 UNL     1     -25.477   8.830  -6.899  1.00  0.00     0.004 C 
HETATM   28  C15 UNL     1     -24.664   7.586  -6.595  1.00  0.00    -0.017 C 
HETATM   29  C16 UNL     1     -24.758   6.606  -7.717  1.00  0.00     0.010 C 
HETATM   30  C17 UNL     1     -25.298   6.970  -5.343  1.00  0.00     0.029 C 
ENDBRANCH  22  24
ENDBRANCH  19  20
ENDBRANCH  18  19
ENDBRANCH   3  18
TORSDOF 6
ENDMDL
MODEL 5
REMARK VINA RESULT: -8.955308465      2.502      9.251
REMARK  6 active torsions:
REMARK  status: ('A' for Active; 'I' for Inactive)
REMARK    1  A    between atoms: C6_7  and  N1_8 
REMARK       I    between atoms: N1_8  and  C7_10 
REMARK    2  A    between atoms: C7_10  and  C8_12 
REMARK    3  A    between atoms: C8_12  and  C9_13 
REMARK    4  A    between atoms: C9_13  and  C10_14 
REMARK       I    between atoms: C10_14  and  N2_16 
REMARK    5  A    between atoms: N2_16  and  C11_18 
REMARK    6  A    between atoms: C18_25  and  C19_26 
ROOT
HETATM    1  N1  UNL     1     -25.657   6.663  -2.970  1.00  0.00    -0.320 N 
ATOM      2  H1  UNL     1     -26.553   6.281  -2.666  1.00  0.00     0.169 HD
HETATM    3  C7  UNL     1     -24.430   6.330  -2.284  1.00  0.00     0.223 C 
HETATM    4  O1  UNL     1     -23.373   6.836  -2.714  1.00  0.00    -0.273 OA
ENDROOT
BRANCH   1   5
HETATM    5  C6  UNL     1     -25.570   7.551  -4.096  1.00  0.00     0.093 A 
HETATM    6  S1  UNL     1     -25.697   9.276  -4.022  1.00  0.00    -0.075 SA
HETATM    7  C5  UNL     1     -25.510   9.627  -5.655  1.00  0.00    -0.008 A 
HETATM    8  C4  UNL     1     -25.478  10.886  -6.508  1.00  0.00     0.047 C 
HETATM    9  C20 UNL     1     -25.349   8.395  -6.252  1.00  0.00    -0.026 A 
HETATM   10  C3  UNL     1     -26.422  10.731  -7.672  1.00  0.00     0.009 C 
HETATM   11  C2  UNL     1     -26.318   9.377  -8.317  1.00  0.00    -0.014 C 
HETATM   12  C1  UNL     1     -27.585   8.564  -8.219  1.00  0.00     0.010 C 
HETATM   13  C21 UNL     1     -25.174   8.561  -7.749  1.00  0.00     0.045 C 
HETATM   14  C18 UNL     1     -25.381   7.313  -5.434  1.00  0.00     0.070 A 
BRANCH  14  15
HETATM   15  C19 UNL     1     -25.218   5.895  -5.897  1.00  0.00     0.268 C 
HETATM   16  N3  UNL     1     -26.208   5.248  -6.684  1.00  0.00    -0.057 NA
HETATM   17  O3  UNL     1     -24.204   5.227  -5.609  1.00  0.00    -0.271 OA
ENDBRANCH  14  15
ENDBRANCH   1   5
BRANCH   3  18
HETATM   18  C8  UNL     1     -24.448   5.424  -1.121  1.00  0.00     0.112 C 
BRANCH  18  19
HETATM   19  C9  UNL     1     -25.752   4.672  -1.125  1.00  0.00     0.112 C 
BRANCH  19  20
HETATM   20  C10 UNL     1     -25.575   3.231  -1.371  1.00  0.00     0.218 C 
HETATM   21  O2  UNL     1     -26.594   2.494  -1.293  1.00  0.00    -0.274 OA
HETATM   22  N2  UNL     1     -24.288   2.736  -1.681  1.00  0.00    -0.356 N 
ATOM     23  H2  UNL     1     -23.498   3.379  -1.730  1.00  0.00     0.162 HD
BRANCH  22  24
HETATM   24  C11 UNL     1     -24.081   1.344  -1.925  1.00  0.00     0.084 C 
HETATM   25  C12 UNL     1     -23.866   0.521  -0.691  1.00  0.00     0.025 C 
HETATM   26  C13 UNL     1     -22.553  -0.194  -0.659  1.00  0.00     0.002 C 
HETATM   27  C14 UNL     1     -22.243  -0.974  -1.897  1.00  0.00     0.004 C 
HETATM   28  C15 UNL     1     -22.867  -0.374  -3.143  1.00  0.00    -0.017 C 
HETATM   29  C16 UNL     1     -22.019  -0.643  -4.341  1.00  0.00     0.010 C 
HETATM   30  C17 UNL     1     -22.915   1.138  -2.898  1.00  0.00     0.029 C 
ENDBRANCH  22  24
ENDBRANCH  19  20
ENDBRANCH  18  19
ENDBRANCH   3  18
TORSDOF 6
ENDMDL
