MODEL 1
REMARK VINA RESULT: -7.969790917      0.000      0.000
REMARK  7 active torsions:
REMARK  status: ('A' for Active; 'I' for Inactive)
REMARK    1  A    between atoms: C2_2  and  C3_3 
REMARK    2  A    between atoms: C2_2  and  C22_26 
REMARK       I    between atoms: C3_3  and  N1_5 
REMARK    3  A    between atoms: N1_5  and  C4_7 
REMARK    4  A    between atoms: C4_7  and  C6_9 
REMARK    5  A    between atoms: C4_7  and  C12_16 
REMARK    6  A    between atoms: C22_26  and  N3_27 
REMARK    7  A    between atoms: C22_26  and  C23_31 
ROOT
HETATM    1  C4  UNL     1     -26.299  10.276  -6.631  1.00  0.00     0.040 C 
HETATM    2  C5  UNL     1     -27.724  10.003  -6.057  1.00  0.00     0.039 C 
ENDROOT
BRANCH   1   3
HETATM    3  N1  UNL     1     -25.368   9.755  -5.655  1.00  0.00    -0.351 N 
HETATM    4  C3  UNL     1     -25.562   9.708  -4.249  1.00  0.00     0.224 C 
HETATM    5  O1  UNL     1     -26.578  10.101  -3.642  1.00  0.00    -0.273 OA
ATOM      6  H1  UNL     1     -24.486   9.387  -6.011  1.00  0.00     0.163 HD
BRANCH   4   7
HETATM    7  C2  UNL     1     -24.475   9.143  -3.403  1.00  0.00     0.105 C 
HETATM    8  C1  UNL     1     -24.368   7.644  -3.572  1.00  0.00     0.022 C 
BRANCH   7   9
HETATM    9  C22 UNL     1     -24.682   9.474  -1.940  1.00  0.00     0.206 C 
BRANCH   9  10
HETATM   10  N3  UNL     1     -25.576   8.449  -1.408  1.00  0.00    -0.073 N 
ATOM     11  H33 UNL     1     -26.504   8.462  -1.830  1.00  0.00     0.274 HD
ATOM     12  H32 UNL     1     -25.322   7.503  -1.693  1.00  0.00     0.274 HD
ATOM     13  H31 UNL     1     -25.589   8.576  -0.396  1.00  0.00     0.274 HD
ENDBRANCH   9  10
BRANCH   9  14
HETATM   14  C23 UNL     1     -23.360   9.299  -1.206  1.00  0.00     0.119 C 
HETATM   15  S1  UNL     1     -23.730   8.554   0.419  1.00  0.00    -0.096 SA
ENDBRANCH   9  14
ENDBRANCH   7   9
ENDBRANCH   4   7
ENDBRANCH   1   3
BRANCH   1  16
HETATM   16  C6  UNL     1     -26.189  11.722  -6.723  1.00  0.00     0.017 C 
HETATM   17  C7  UNL     1     -26.955  12.592  -5.771  1.00  0.00     0.037 C 
HETATM   18  C8  UNL     1     -27.015  13.977  -6.400  1.00  0.00     0.272 C 
HETATM   19  N2  UNL     1     -26.425  14.030  -7.720  1.00  0.00     0.084 N 
HETATM   20  C9  UNL     1     -26.478  15.419  -8.141  1.00  0.00     0.309 C 
HETATM   21  C10 UNL     1     -25.030  13.651  -7.694  1.00  0.00     0.272 C 
HETATM   22  C11 UNL     1     -24.838  12.347  -6.899  1.00  0.00     0.037 C 
ENDBRANCH   1  16
BRANCH   1  23
HETATM   23  C12 UNL     1     -26.222   9.445  -7.862  1.00  0.00    -0.014 C 
HETATM   24  C13 UNL     1     -27.543   8.702  -7.979  1.00  0.00     0.016 C 
HETATM   25  C14 UNL     1     -27.595   7.815  -9.201  1.00  0.00    -0.013 C 
HETATM   26  C15 UNL     1     -27.517   8.759 -10.405  1.00  0.00     0.009 C 
HETATM   27  C19 UNL     1     -26.512   6.790  -9.253  1.00  0.00     0.009 C 
HETATM   28  C16 UNL     1     -26.173   9.387 -10.360  1.00  0.00    -0.013 C 
HETATM   29  C17 UNL     1     -25.043   8.368 -10.358  1.00  0.00     0.009 C 
HETATM   30  C21 UNL     1     -25.933  10.234  -9.117  1.00  0.00     0.016 C 
HETATM   31  C18 UNL     1     -25.181   7.546  -9.135  1.00  0.00    -0.013 C 
HETATM   32  C20 UNL     1     -25.217   8.314  -7.828  1.00  0.00     0.016 C 
ENDBRANCH   1  23
TORSDOF 7
ENDMDL
MODEL 2
REMARK VINA RESULT: -7.938874774      0.238      1.377
REMARK  7 active torsions:
REMARK  status: ('A' for Active; 'I' for Inactive)
REMARK    1  A    between atoms: C2_2  and  C3_3 
REMARK    2  A    between atoms: C2_2  and  C22_26 
REMARK       I    between atoms: C3_3  and  N1_5 
REMARK    3  A    between atoms: N1_5  and  C4_7 
REMARK    4  A    between atoms: C4_7  and  C6_9 
REMARK    5  A    between atoms: C4_7  and  C12_16 
REMARK    6  A    between atoms: C22_26  and  N3_27 
REMARK    7  A    between atoms: C22_26  and  C23_31 
ROOT
HETATM    1  C4  UNL     1     -26.334  10.228  -6.566  1.00  0.00     0.040 C 
HETATM    2  C5  UNL     1     -27.751  10.003  -5.952  1.00  0.00     0.039 C 
ENDROOT
BRANCH   1   3
HETATM    3  N1  UNL     1     -25.392   9.715  -5.597  1.00  0.00    -0.351 N 
HETATM    4  C3  UNL     1     -25.553   9.714  -4.186  1.00  0.00     0.224 C 
HETATM    5  O1  UNL     1     -26.544  10.150  -3.568  1.00  0.00    -0.273 OA
ATOM      6  H1  UNL     1     -24.528   9.314  -5.962  1.00  0.00     0.163 HD
BRANCH   4   7
HETATM    7  C2  UNL     1     -24.459   9.149  -3.349  1.00  0.00     0.105 C 
HETATM    8  C1  UNL     1     -24.347   7.651  -3.527  1.00  0.00     0.022 C 
BRANCH   7   9
HETATM    9  C22 UNL     1     -24.659   9.471  -1.883  1.00  0.00     0.206 C 
BRANCH   9  10
HETATM   10  N3  UNL     1     -25.554   8.445  -1.354  1.00  0.00    -0.073 N 
ATOM     11  H33 UNL     1     -26.520   8.759  -1.262  1.00  0.00     0.274 HD
ATOM     12  H32 UNL     1     -25.731   7.685  -2.010  1.00  0.00     0.274 HD
ATOM     13  H31 UNL     1     -25.145   8.132  -0.474  1.00  0.00     0.274 HD
ENDBRANCH   9  10
BRANCH   9  14
HETATM   14  C23 UNL     1     -23.335   9.288  -1.155  1.00  0.00     0.119 C 
HETATM   15  S1  UNL     1     -23.707   8.601   0.494  1.00  0.00    -0.096 SA
ENDBRANCH   9  14
ENDBRANCH   7   9
ENDBRANCH   4   7
ENDBRANCH   1   3
BRANCH   1  16
HETATM   16  C6  UNL     1     -26.195  11.668  -6.702  1.00  0.00     0.017 C 
HETATM   17  C7  UNL     1     -26.953  12.582  -5.786  1.00  0.00     0.037 C 
HETATM   18  C8  UNL     1     -26.979  13.947  -6.460  1.00  0.00     0.272 C 
HETATM   19  N2  UNL     1     -26.375  13.948  -7.775  1.00  0.00     0.084 N 
HETATM   20  C9  UNL     1     -26.397  15.323  -8.240  1.00  0.00     0.309 C 
HETATM   21  C10 UNL     1     -24.988  13.542  -7.721  1.00  0.00     0.272 C 
HETATM   22  C11 UNL     1     -24.830  12.261  -6.883  1.00  0.00     0.037 C 
ENDBRANCH   1  16
BRANCH   1  23
HETATM   23  C12 UNL     1     -26.304   9.361  -7.774  1.00  0.00    -0.014 C 
HETATM   24  C13 UNL     1     -25.192   8.346  -7.564  1.00  0.00     0.016 C 
HETATM   25  C14 UNL     1     -25.055   7.397  -8.731  1.00  0.00    -0.013 C 
HETATM   26  C15 UNL     1     -26.365   6.605  -8.779  1.00  0.00     0.009 C 
HETATM   27  C19 UNL     1     -24.789   8.072 -10.035  1.00  0.00     0.009 C 
HETATM   28  C16 UNL     1     -27.433   7.579  -9.113  1.00  0.00    -0.013 C 
HETATM   29  C17 UNL     1     -27.168   8.325 -10.413  1.00  0.00     0.009 C 
HETATM   30  C21 UNL     1     -27.615   8.672  -8.069  1.00  0.00     0.016 C 
HETATM   31  C18 UNL     1     -25.915   9.094 -10.242  1.00  0.00    -0.013 C 
HETATM   32  C20 UNL     1     -25.882  10.042  -9.058  1.00  0.00     0.016 C 
ENDBRANCH   1  23
TORSDOF 7
ENDMDL
MODEL 3
REMARK VINA RESULT: -7.802304100      3.705      6.794
REMARK  7 active torsions:
REMARK  status: ('A' for Active; 'I' for Inactive)
REMARK    1  A    between atoms: C2_2  and  C3_3 
REMARK    2  A    between atoms: C2_2  and  C22_26 
REMARK       I    between atoms: C3_3  and  N1_5 
REMARK    3  A    between atoms: N1_5  and  C4_7 
REMARK    4  A    between atoms: C4_7  and  C6_9 
REMARK    5  A    between atoms: C4_7  and  C12_16 
REMARK    6  A    between atoms: C22_26  and  N3_27 
REMARK    7  A    between atoms: C22_26  and  C23_31 
ROOT
HETATM    1  C4  UNL     1     -23.932   5.227  -4.723  1.00  0.00     0.040 C 
HETATM    2  C5  UNL     1     -22.523   4.794  -5.235  1.00  0.00     0.039 C 
ENDROOT
BRANCH   1   3
HETATM    3  N1  UNL     1     -23.704   6.294  -3.776  1.00  0.00    -0.351 N 
HETATM    4  C3  UNL     1     -24.640   6.796  -2.833  1.00  0.00     0.224 C 
HETATM    5  O1  UNL     1     -25.804   6.381  -2.674  1.00  0.00    -0.273 OA
ATOM      6  H1  UNL     1     -22.781   6.729  -3.784  1.00  0.00     0.163 HD
BRANCH   4   7
HETATM    7  C2  UNL     1     -24.219   7.915  -1.945  1.00  0.00     0.105 C 
HETATM    8  C1  UNL     1     -24.195   7.487  -0.494  1.00  0.00     0.022 C 
BRANCH   7   9
HETATM    9  C22 UNL     1     -25.124   9.119  -2.103  1.00  0.00     0.206 C 
BRANCH   9  10
HETATM   10  N3  UNL     1     -24.795  10.028  -1.008  1.00  0.00    -0.073 N 
ATOM     11  H33 UNL     1     -25.323   9.843  -0.156  1.00  0.00     0.274 HD
ATOM     12  H32 UNL     1     -23.866   9.871  -0.617  1.00  0.00     0.274 HD
ATOM     13  H31 UNL     1     -24.927  10.973  -1.370  1.00  0.00     0.274 HD
ENDBRANCH   9  10
BRANCH   9  14
HETATM   14  C23 UNL     1     -24.748   9.851  -3.383  1.00  0.00     0.119 C 
HETATM   15  S1  UNL     1     -26.299  10.300  -4.233  1.00  0.00    -0.096 SA
ENDBRANCH   9  14
ENDBRANCH   7   9
ENDBRANCH   4   7
ENDBRANCH   1   3
BRANCH   1  16
HETATM   16  C6  UNL     1     -24.477   4.057  -4.054  1.00  0.00     0.017 C 
HETATM   17  C7  UNL     1     -24.969   2.895  -4.864  1.00  0.00     0.037 C 
HETATM   18  C8  UNL     1     -25.880   2.084  -3.952  1.00  0.00     0.272 C 
HETATM   19  N2  UNL     1     -26.075   2.692  -2.653  1.00  0.00     0.084 N 
HETATM   20  C9  UNL     1     -26.881   1.765  -1.880  1.00  0.00     0.309 C 
HETATM   21  C10 UNL     1     -24.823   2.852  -1.948  1.00  0.00     0.272 C 
HETATM   22  C11 UNL     1     -23.764   3.491  -2.864  1.00  0.00     0.037 C 
ENDBRANCH   1  16
BRANCH   1  23
HETATM   23  C12 UNL     1     -24.616   5.782  -5.921  1.00  0.00    -0.014 C 
HETATM   24  C13 UNL     1     -23.810   5.346  -7.134  1.00  0.00     0.016 C 
HETATM   25  C14 UNL     1     -24.404   5.850  -8.428  1.00  0.00    -0.013 C 
HETATM   26  C15 UNL     1     -25.773   5.175  -8.549  1.00  0.00     0.009 C 
HETATM   27  C19 UNL     1     -24.531   7.336  -8.500  1.00  0.00     0.009 C 
HETATM   28  C16 UNL     1     -26.601   5.703  -7.437  1.00  0.00    -0.013 C 
HETATM   29  C17 UNL     1     -26.710   7.220  -7.448  1.00  0.00     0.009 C 
HETATM   30  C21 UNL     1     -26.060   5.363  -6.054  1.00  0.00     0.016 C 
HETATM   31  C18 UNL     1     -25.347   7.769  -7.274  1.00  0.00    -0.013 C 
HETATM   32  C20 UNL     1     -24.597   7.291  -6.046  1.00  0.00     0.016 C 
ENDBRANCH   1  23
TORSDOF 7
ENDMDL
MODEL 4
REMARK VINA RESULT: -7.789203492      3.874      6.811
REMARK  7 active torsions:
REMARK  status: ('A' for Active; 'I' for Inactive)
REMARK    1  A    between atoms: C2_2  and  C3_3 
REMARK    2  A    between atoms: C2_2  and  C22_26 
REMARK       I    between atoms: C3_3  and  N1_5 
REMARK    3  A    between atoms: N1_5  and  C4_7 
REMARK    4  A    between atoms: C4_7  and  C6_9 
REMARK    5  A    between atoms: C4_7  and  C12_16 
REMARK    6  A    between atoms: C22_26  and  N3_27 
REMARK    7  A    between atoms: C22_26  and  C23_31 
ROOT
HETATM    1  C4  UNL     1     -24.503   5.533  -4.383  1.00  0.00     0.040 C 
HETATM    2  C5  UNL     1     -22.949   5.581  -4.512  1.00  0.00     0.039 C 
ENDROOT
BRANCH   1   3
HETATM    3  N1  UNL     1     -24.860   6.580  -3.453  1.00  0.00    -0.351 N 
HETATM    4  C3  UNL     1     -24.022   7.137  -2.451  1.00  0.00     0.224 C 
HETATM    5  O1  UNL     1     -22.839   6.811  -2.229  1.00  0.00    -0.273 OA
ATOM      6  H1  UNL     1     -25.806   6.956  -3.523  1.00  0.00     0.163 HD
BRANCH   4   7
HETATM    7  C2  UNL     1     -24.578   8.206  -1.577  1.00  0.00     0.105 C 
HETATM    8  C1  UNL     1     -24.690   9.521  -2.317  1.00  0.00     0.022 C 
BRANCH   7   9
HETATM    9  C22 UNL     1     -23.739   8.397  -0.331  1.00  0.00     0.206 C 
BRANCH   9  10
HETATM   10  N3  UNL     1     -22.852   9.526  -0.600  1.00  0.00    -0.073 N 
ATOM     11  H33 UNL     1     -22.395   9.474  -1.511  1.00  0.00     0.274 HD
ATOM     12  H32 UNL     1     -23.349  10.402  -0.760  1.00  0.00     0.274 HD
ATOM     13  H31 UNL     1     -22.197   9.570   0.180  1.00  0.00     0.274 HD
ENDBRANCH   9  10
BRANCH   9  14
HETATM   14  C23 UNL     1     -24.645   8.839   0.809  1.00  0.00     0.119 C 
HETATM   15  S1  UNL     1     -25.399   7.338   1.523  1.00  0.00    -0.096 SA
ENDBRANCH   9  14
ENDBRANCH   7   9
ENDBRANCH   4   7
ENDBRANCH   1   3
BRANCH   1  16
HETATM   16  C6  UNL     1     -24.805   4.226  -3.822  1.00  0.00     0.017 C 
HETATM   17  C7  UNL     1     -23.720   3.199  -3.695  1.00  0.00     0.037 C 
HETATM   18  C8  UNL     1     -24.413   1.852  -3.543  1.00  0.00     0.272 C 
HETATM   19  N2  UNL     1     -25.853   1.934  -3.656  1.00  0.00     0.084 N 
HETATM   20  C9  UNL     1     -26.366   0.600  -3.401  1.00  0.00     0.309 C 
HETATM   21  C10 UNL     1     -26.416   2.802  -2.645  1.00  0.00     0.272 C 
HETATM   22  C11 UNL     1     -25.645   4.133  -2.585  1.00  0.00     0.037 C 
ENDBRANCH   1  16
BRANCH   1  23
HETATM   23  C12 UNL     1     -25.006   5.895  -5.735  1.00  0.00    -0.014 C 
HETATM   24  C13 UNL     1     -23.852   5.700  -6.704  1.00  0.00     0.016 C 
HETATM   25  C14 UNL     1     -24.235   6.036  -8.126  1.00  0.00    -0.013 C 
HETATM   26  C15 UNL     1     -25.311   5.020  -8.520  1.00  0.00     0.009 C 
HETATM   27  C19 UNL     1     -24.726   7.434  -8.308  1.00  0.00     0.009 C 
HETATM   28  C16 UNL     1     -26.486   5.299  -7.658  1.00  0.00    -0.013 C 
HETATM   29  C17 UNL     1     -26.983   6.732  -7.778  1.00  0.00     0.009 C 
HETATM   30  C21 UNL     1     -26.217   5.106  -6.171  1.00  0.00     0.016 C 
HETATM   31  C18 UNL     1     -25.891   7.624  -7.328  1.00  0.00    -0.013 C 
HETATM   32  C20 UNL     1     -25.353   7.355  -5.935  1.00  0.00     0.016 C 
ENDBRANCH   1  23
TORSDOF 7
ENDMDL
MODEL 5
REMARK VINA RESULT: -7.775254242      3.851      6.738
REMARK  7 active torsions:
REMARK  status: ('A' for Active; 'I' for Inactive)
REMARK    1  A    between atoms: C2_2  and  C3_3 
REMARK    2  A    between atoms: C2_2  and  C22_26 
REMARK       I    between atoms: C3_3  and  N1_5 
REMARK    3  A    between atoms: N1_5  and  C4_7 
REMARK    4  A    between atoms: C4_7  and  C6_9 
REMARK    5  A    between atoms: C4_7  and  C12_16 
REMARK    6  A    between atoms: C22_26  and  N3_27 
REMARK    7  A    between atoms: C22_26  and  C23_31 
ROOT
HETATM    1  C4  UNL     1     -24.435   5.459  -4.533  1.00  0.00     0.040 C 
HETATM    2  C5  UNL     1     -22.880   5.483  -4.657  1.00  0.00     0.039 C 
ENDROOT
BRANCH   1   3
HETATM    3  N1  UNL     1     -24.783   6.557  -3.658  1.00  0.00    -0.351 N 
HETATM    4  C3  UNL     1     -23.996   7.064  -2.591  1.00  0.00     0.224 C 
HETATM    5  O1  UNL     1     -22.873   6.643  -2.253  1.00  0.00    -0.273 OA
ATOM      6  H1  UNL     1     -25.682   7.011  -3.825  1.00  0.00     0.163 HD
BRANCH   4   7
HETATM    7  C2  UNL     1     -24.535   8.199  -1.792  1.00  0.00     0.105 C 
HETATM    8  C1  UNL     1     -24.510   9.489  -2.581  1.00  0.00     0.022 C 
BRANCH   7   9
HETATM    9  C22 UNL     1     -23.767   8.382  -0.500  1.00  0.00     0.206 C 
BRANCH   9  10
HETATM   10  N3  UNL     1     -22.906   9.545  -0.693  1.00  0.00    -0.073 N 
ATOM     11  H33 UNL     1     -22.490   9.592  -1.623  1.00  0.00     0.274 HD
ATOM     12  H32 UNL     1     -23.419  10.425  -0.741  1.00  0.00     0.274 HD
ATOM     13  H31 UNL     1     -22.216   9.520   0.058  1.00  0.00     0.274 HD
ENDBRANCH   9  10
BRANCH   9  14
HETATM   14  C23 UNL     1     -24.745   8.763   0.602  1.00  0.00     0.119 C 
HETATM   15  S1  UNL     1     -25.718   7.274   1.011  1.00  0.00    -0.096 SA
ENDBRANCH   9  14
ENDBRANCH   7   9
ENDBRANCH   4   7
ENDBRANCH   1   3
BRANCH   1  16
HETATM   16  C6  UNL     1     -24.755   4.187  -3.908  1.00  0.00     0.017 C 
HETATM   17  C7  UNL     1     -23.677   3.165  -3.700  1.00  0.00     0.037 C 
HETATM   18  C8  UNL     1     -24.379   1.830  -3.489  1.00  0.00     0.272 C 
HETATM   19  N2  UNL     1     -25.816   1.910  -3.638  1.00  0.00     0.084 N 
HETATM   20  C9  UNL     1     -26.339   0.594  -3.322  1.00  0.00     0.309 C 
HETATM   21  C10 UNL     1     -26.397   2.834  -2.690  1.00  0.00     0.272 C 
HETATM   22  C11 UNL     1     -25.622   4.164  -2.686  1.00  0.00     0.037 C 
ENDBRANCH   1  16
BRANCH   1  23
HETATM   23  C12 UNL     1     -24.929   5.758  -5.903  1.00  0.00    -0.014 C 
HETATM   24  C13 UNL     1     -25.385   7.208  -5.904  1.00  0.00     0.016 C 
HETATM   25  C14 UNL     1     -25.914   7.642  -7.250  1.00  0.00    -0.013 C 
HETATM   26  C15 UNL     1     -24.724   7.558  -8.212  1.00  0.00     0.009 C 
HETATM   27  C19 UNL     1     -27.060   6.823  -7.745  1.00  0.00     0.009 C 
HETATM   28  C16 UNL     1     -24.363   6.123  -8.310  1.00  0.00    -0.013 C 
HETATM   29  C17 UNL     1     -25.525   5.250  -8.761  1.00  0.00     0.009 C 
HETATM   30  C21 UNL     1     -23.910   5.512  -6.990  1.00  0.00     0.016 C 
HETATM   31  C18 UNL     1     -26.593   5.361  -7.743  1.00  0.00    -0.013 C 
HETATM   32  C20 UNL     1     -26.184   5.024  -6.322  1.00  0.00     0.016 C 
ENDBRANCH   1  23
TORSDOF 7
ENDMDL
