MODEL 1
REMARK VINA RESULT: -6.597186965      0.000      0.000
REMARK  11 active torsions:
REMARK  status: ('A' for Active; 'I' for Inactive)
REMARK    1  A    between atoms: N1_1  and  C1_5 
REMARK    2  A    between atoms: C1_5  and  C2_6 
REMARK    3  A    between atoms: C2_6  and  C3_7 
REMARK    4  A    between atoms: C3_7  and  N2_8 
REMARK       I    between atoms: N2_8  and  C4_10 
REMARK    5  A    between atoms: N4_12  and  C5_14 
REMARK    6  A    between atoms: C5_14  and  C6_15 
REMARK    7  A    between atoms: C6_15  and  C7_16 
REMARK    8  A    between atoms: C7_16  and  C8_17 
REMARK    9  A    between atoms: C9_18  and  C10_19 
REMARK   10  A    between atoms: C10_19  and  C11_20 
REMARK   11  A    between atoms: C11_20  and  N5_21 
ROOT
HETATM    1  C8  UNL     1      -3.186  29.869 -15.450  1.00  0.00     0.033 A 
HETATM    2  C9  UNL     1      -4.002  30.945 -15.588  1.00  0.00     0.027 A 
HETATM    3  N6  UNL     1      -4.600  31.450 -14.472  1.00  0.00    -0.312 N 
ATOM      4  H6  UNL     1      -5.214  32.258 -14.566  1.00  0.00     0.170 HD
HETATM    5  C12 UNL     1      -4.408  30.922 -13.252  1.00  0.00     0.327 A 
HETATM    6  O1  UNL     1      -4.972  31.405 -12.218  1.00  0.00    -0.247 OA
HETATM    7  N7  UNL     1      -3.612  29.865 -13.081  1.00  0.00    -0.275 N 
ATOM      8  H7  UNL     1      -3.466  29.464 -12.155  1.00  0.00     0.173 HD
HETATM    9  C13 UNL     1      -3.010  29.345 -14.162  1.00  0.00     0.257 A 
HETATM   10  O2  UNL     1      -2.250  28.336 -14.012  1.00  0.00    -0.267 OA
ENDROOT
BRANCH   1  11
HETATM   11  C7  UNL     1      -2.523  29.190 -16.556  1.00  0.00     0.048 C 
BRANCH  11  12
HETATM   12  C6  UNL     1      -1.145  29.786 -16.752  1.00  0.00     0.025 C 
BRANCH  12  13
HETATM   13  C5  UNL     1      -1.020  30.582 -18.007  1.00  0.00     0.122 C 
BRANCH  13  14
HETATM   14  N4  UNL     1      -0.582  31.920 -17.725  1.00  0.00    -0.365 N 
HETATM   15  C4  UNL     1      -1.028  32.900 -18.408  1.00  0.00     0.183 C 
HETATM   16  N2  UNL     1      -0.548  34.193 -18.072  1.00  0.00    -0.365 N 
HETATM   17  N3  UNL     1      -1.956  32.674 -19.437  1.00  0.00    -0.064 NA
ATOM     18  H2  UNL     1      -1.176  34.907 -17.702  1.00  0.00     0.162 HD
ATOM     19  H4  UNL     1       0.089  32.088 -16.975  1.00  0.00     0.162 HD
BRANCH  16  20
HETATM   20  C3  UNL     1       0.851  34.466 -18.271  1.00  0.00     0.124 C 
BRANCH  20  21
HETATM   21  C2  UNL     1       0.975  35.251 -19.558  1.00  0.00     0.047 C 
BRANCH  21  22
HETATM   22  C1  UNL     1       1.127  34.314 -20.735  1.00  0.00     0.231 C 
BRANCH  22  23
HETATM   23  N1  UNL     1      -0.030  34.318 -21.600  1.00  0.00    -0.079 N 
ATOM     24  H13 UNL     1      -0.295  33.368 -21.864  1.00  0.00     0.274 HD
ATOM     25  H12 UNL     1      -0.871  34.587 -21.087  1.00  0.00     0.274 HD
ATOM     26  H11 UNL     1       0.099  34.905 -22.424  1.00  0.00     0.274 HD
ENDBRANCH  22  23
ENDBRANCH  21  22
ENDBRANCH  20  21
ENDBRANCH  16  20
ENDBRANCH  13  14
ENDBRANCH  12  13
ENDBRANCH  11  12
ENDBRANCH   1  11
BRANCH   2  27
HETATM   27  C10 UNL     1      -4.240  31.627 -16.841  1.00  0.00     0.085 C 
BRANCH  27  28
HETATM   28  C11 UNL     1      -5.008  32.941 -16.671  1.00  0.00     0.235 C 
BRANCH  28  29
HETATM   29  N5  UNL     1      -4.098  34.073 -16.772  1.00  0.00    -0.079 N 
ATOM     30  H53 UNL     1      -4.390  34.850 -16.178  1.00  0.00     0.274 HD
ATOM     31  H52 UNL     1      -3.198  33.878 -16.335  1.00  0.00     0.274 HD
ATOM     32  H51 UNL     1      -3.995  34.356 -17.746  1.00  0.00     0.274 HD
ENDBRANCH  28  29
ENDBRANCH  27  28
ENDBRANCH   2  27
TORSDOF 11
ENDMDL
MODEL 2
REMARK VINA RESULT: -6.432717936      2.150      2.475
REMARK  11 active torsions:
REMARK  status: ('A' for Active; 'I' for Inactive)
REMARK    1  A    between atoms: N1_1  and  C1_5 
REMARK    2  A    between atoms: C1_5  and  C2_6 
REMARK    3  A    between atoms: C2_6  and  C3_7 
REMARK    4  A    between atoms: C3_7  and  N2_8 
REMARK       I    between atoms: N2_8  and  C4_10 
REMARK    5  A    between atoms: N4_12  and  C5_14 
REMARK    6  A    between atoms: C5_14  and  C6_15 
REMARK    7  A    between atoms: C6_15  and  C7_16 
REMARK    8  A    between atoms: C7_16  and  C8_17 
REMARK    9  A    between atoms: C9_18  and  C10_19 
REMARK   10  A    between atoms: C10_19  and  C11_20 
REMARK   11  A    between atoms: C11_20  and  N5_21 
ROOT
HETATM    1  C8  UNL     1      -3.349  29.635 -16.447  1.00  0.00     0.033 A 
HETATM    2  C9  UNL     1      -4.381  30.506 -16.587  1.00  0.00     0.027 A 
HETATM    3  N6  UNL     1      -5.507  30.075 -17.223  1.00  0.00    -0.312 N 
ATOM      4  H6  UNL     1      -6.287  30.723 -17.332  1.00  0.00     0.170 HD
HETATM    5  C12 UNL     1      -5.627  28.830 -17.710  1.00  0.00     0.327 A 
HETATM    6  O1  UNL     1      -6.686  28.442 -18.301  1.00  0.00    -0.247 OA
HETATM    7  N7  UNL     1      -4.632  27.949 -17.589  1.00  0.00    -0.275 N 
ATOM      8  H7  UNL     1      -4.722  27.003 -17.959  1.00  0.00     0.173 HD
HETATM    9  C13 UNL     1      -3.509  28.344 -16.968  1.00  0.00     0.257 A 
HETATM   10  O2  UNL     1      -2.553  27.514 -16.848  1.00  0.00    -0.267 OA
ENDROOT
BRANCH   1  11
HETATM   11  C7  UNL     1      -2.066  29.968 -15.840  1.00  0.00     0.048 C 
BRANCH  11  12
HETATM   12  C6  UNL     1      -1.014  30.074 -16.924  1.00  0.00     0.025 C 
BRANCH  12  13
HETATM   13  C5  UNL     1      -1.328  31.109 -17.950  1.00  0.00     0.122 C 
BRANCH  13  14
HETATM   14  N4  UNL     1      -0.570  32.307 -17.719  1.00  0.00    -0.365 N 
HETATM   15  C4  UNL     1      -0.875  33.387 -18.324  1.00  0.00     0.183 C 
HETATM   16  N2  UNL     1      -0.079  34.530 -18.046  1.00  0.00    -0.365 N 
HETATM   17  N3  UNL     1      -1.958  33.411 -19.216  1.00  0.00    -0.064 NA
ATOM     18  H2  UNL     1      -0.477  35.348 -17.585  1.00  0.00     0.162 HD
ATOM     19  H4  UNL     1       0.216  32.294 -17.068  1.00  0.00     0.162 HD
BRANCH  16  20
HETATM   20  C3  UNL     1       1.307  34.498 -18.435  1.00  0.00     0.124 C 
BRANCH  20  21
HETATM   21  C2  UNL     1       1.415  35.217 -19.762  1.00  0.00     0.047 C 
BRANCH  21  22
HETATM   22  C1  UNL     1       1.209  34.248 -20.904  1.00  0.00     0.231 C 
BRANCH  22  23
HETATM   23  N1  UNL     1       0.024  34.546 -21.676  1.00  0.00    -0.079 N 
ATOM     24  H13 UNL     1      -0.806  34.134 -21.248  1.00  0.00     0.274 HD
ATOM     25  H12 UNL     1      -0.225  35.532 -21.601  1.00  0.00     0.274 HD
ATOM     26  H11 UNL     1       0.111  34.263 -22.652  1.00  0.00     0.274 HD
ENDBRANCH  22  23
ENDBRANCH  21  22
ENDBRANCH  20  21
ENDBRANCH  16  20
ENDBRANCH  13  14
ENDBRANCH  12  13
ENDBRANCH  11  12
ENDBRANCH   1  11
BRANCH   2  27
HETATM   27  C10 UNL     1      -4.384  31.851 -16.057  1.00  0.00     0.085 C 
BRANCH  27  28
HETATM   28  C11 UNL     1      -4.757  32.906 -17.104  1.00  0.00     0.235 C 
BRANCH  28  29
HETATM   29  N5  UNL     1      -4.066  34.157 -16.826  1.00  0.00    -0.079 N 
ATOM     30  H53 UNL     1      -4.607  34.761 -16.207  1.00  0.00     0.274 HD
ATOM     31  H52 UNL     1      -3.252  34.018 -16.228  1.00  0.00     0.274 HD
ATOM     32  H51 UNL     1      -3.822  34.626 -17.699  1.00  0.00     0.274 HD
ENDBRANCH  28  29
ENDBRANCH  27  28
ENDBRANCH   2  27
TORSDOF 11
ENDMDL
MODEL 3
REMARK VINA RESULT: -6.335381359      2.249      2.986
REMARK  11 active torsions:
REMARK  status: ('A' for Active; 'I' for Inactive)
REMARK    1  A    between atoms: N1_1  and  C1_5 
REMARK    2  A    between atoms: C1_5  and  C2_6 
REMARK    3  A    between atoms: C2_6  and  C3_7 
REMARK    4  A    between atoms: C3_7  and  N2_8 
REMARK       I    between atoms: N2_8  and  C4_10 
REMARK    5  A    between atoms: N4_12  and  C5_14 
REMARK    6  A    between atoms: C5_14  and  C6_15 
REMARK    7  A    between atoms: C6_15  and  C7_16 
REMARK    8  A    between atoms: C7_16  and  C8_17 
REMARK    9  A    between atoms: C9_18  and  C10_19 
REMARK   10  A    between atoms: C10_19  and  C11_20 
REMARK   11  A    between atoms: C11_20  and  N5_21 
ROOT
HETATM    1  C8  UNL     1      -2.353  28.675 -16.185  1.00  0.00     0.033 A 
HETATM    2  C9  UNL     1      -3.261  29.599 -15.780  1.00  0.00     0.027 A 
HETATM    3  N6  UNL     1      -4.396  29.758 -16.519  1.00  0.00    -0.312 N 
ATOM      4  H6  UNL     1      -5.083  30.450 -16.222  1.00  0.00     0.170 HD
HETATM    5  C12 UNL     1      -4.641  29.035 -17.623  1.00  0.00     0.327 A 
HETATM    6  O1  UNL     1      -5.706  29.194 -18.304  1.00  0.00    -0.247 OA
HETATM    7  N7  UNL     1      -3.770  28.119 -18.050  1.00  0.00    -0.275 N 
ATOM      8  H7  UNL     1      -3.956  27.570 -18.888  1.00  0.00     0.173 HD
HETATM    9  C13 UNL     1      -2.643  27.940 -17.343  1.00  0.00     0.257 A 
HETATM   10  O2  UNL     1      -1.805  27.070 -17.739  1.00  0.00    -0.267 OA
ENDROOT
BRANCH   1  11
HETATM   11  C7  UNL     1      -1.075  28.433 -15.529  1.00  0.00     0.048 C 
BRANCH  11  12
HETATM   12  C6  UNL     1      -0.138  29.586 -15.822  1.00  0.00     0.025 C 
BRANCH  12  13
HETATM   13  C5  UNL     1      -0.175  30.028 -17.245  1.00  0.00     0.122 C 
BRANCH  13  14
HETATM   14  N4  UNL     1      -0.350  31.451 -17.337  1.00  0.00    -0.365 N 
HETATM   15  C4  UNL     1      -1.272  31.939 -18.069  1.00  0.00     0.183 C 
HETATM   16  N2  UNL     1      -1.382  33.355 -18.110  1.00  0.00    -0.365 N 
HETATM   17  N3  UNL     1      -2.125  31.087 -18.786  1.00  0.00    -0.064 NA
ATOM     18  H2  UNL     1      -2.208  33.828 -17.745  1.00  0.00     0.162 HD
ATOM     19  H4  UNL     1       0.266  32.073 -16.813  1.00  0.00     0.162 HD
BRANCH  16  20
HETATM   20  C3  UNL     1      -0.291  34.100 -18.683  1.00  0.00     0.124 C 
BRANCH  20  21
HETATM   21  C2  UNL     1      -0.293  33.822 -20.170  1.00  0.00     0.047 C 
BRANCH  21  22
HETATM   22  C1  UNL     1       1.013  34.266 -20.790  1.00  0.00     0.231 C 
BRANCH  22  23
HETATM   23  N1  UNL     1       0.827  35.269 -21.814  1.00  0.00    -0.079 N 
ATOM     24  H13 UNL     1       0.974  34.875 -22.744  1.00  0.00     0.274 HD
ATOM     25  H12 UNL     1      -0.156  35.528 -21.899  1.00  0.00     0.274 HD
ATOM     26  H11 UNL     1       1.412  36.091 -21.667  1.00  0.00     0.274 HD
ENDBRANCH  22  23
ENDBRANCH  21  22
ENDBRANCH  20  21
ENDBRANCH  16  20
ENDBRANCH  13  14
ENDBRANCH  12  13
ENDBRANCH  11  12
ENDBRANCH   1  11
BRANCH   2  27
HETATM   27  C10 UNL     1      -3.127  30.395 -14.580  1.00  0.00     0.085 C 
BRANCH  27  28
HETATM   28  C11 UNL     1      -4.476  30.805 -13.980  1.00  0.00     0.235 C 
BRANCH  28  29
HETATM   29  N5  UNL     1      -4.273  31.542 -12.741  1.00  0.00    -0.079 N 
ATOM     30  H53 UNL     1      -4.037  30.923 -11.964  1.00  0.00     0.274 HD
ATOM     31  H52 UNL     1      -3.415  32.092 -12.761  1.00  0.00     0.274 HD
ATOM     32  H51 UNL     1      -5.090  32.117 -12.535  1.00  0.00     0.274 HD
ENDBRANCH  28  29
ENDBRANCH  27  28
ENDBRANCH   2  27
TORSDOF 11
ENDMDL
MODEL 4
REMARK VINA RESULT: -6.318973225      2.401      3.243
REMARK  11 active torsions:
REMARK  status: ('A' for Active; 'I' for Inactive)
REMARK    1  A    between atoms: N1_1  and  C1_5 
REMARK    2  A    between atoms: C1_5  and  C2_6 
REMARK    3  A    between atoms: C2_6  and  C3_7 
REMARK    4  A    between atoms: C3_7  and  N2_8 
REMARK       I    between atoms: N2_8  and  C4_10 
REMARK    5  A    between atoms: N4_12  and  C5_14 
REMARK    6  A    between atoms: C5_14  and  C6_15 
REMARK    7  A    between atoms: C6_15  and  C7_16 
REMARK    8  A    between atoms: C7_16  and  C8_17 
REMARK    9  A    between atoms: C9_18  and  C10_19 
REMARK   10  A    between atoms: C10_19  and  C11_20 
REMARK   11  A    between atoms: C11_20  and  N5_21 
ROOT
HETATM    1  C8  UNL     1      -4.259  30.264 -17.668  1.00  0.00     0.033 A 
HETATM    2  C9  UNL     1      -4.951  30.609 -16.553  1.00  0.00     0.027 A 
HETATM    3  N6  UNL     1      -6.044  31.412 -16.693  1.00  0.00    -0.312 N 
ATOM      4  H6  UNL     1      -6.570  31.676 -15.860  1.00  0.00     0.170 HD
HETATM    5  C12 UNL     1      -6.453  31.868 -17.887  1.00  0.00     0.327 A 
HETATM    6  O1  UNL     1      -7.476  32.617 -18.003  1.00  0.00    -0.247 OA
HETATM    7  N7  UNL     1      -5.795  31.549 -19.003  1.00  0.00    -0.275 N 
ATOM      8  H7  UNL     1      -6.105  31.895 -19.911  1.00  0.00     0.173 HD
HETATM    9  C13 UNL     1      -4.715  30.759 -18.898  1.00  0.00     0.257 A 
HETATM   10  O2  UNL     1      -4.079  30.449 -19.954  1.00  0.00    -0.267 OA
ENDROOT
BRANCH   1  11
HETATM   11  C7  UNL     1      -3.044  29.459 -17.669  1.00  0.00     0.048 C 
BRANCH  11  12
HETATM   12  C6  UNL     1      -1.908  30.273 -17.087  1.00  0.00     0.025 C 
BRANCH  12  13
HETATM   13  C5  UNL     1      -0.939  30.752 -18.114  1.00  0.00     0.122 C 
BRANCH  13  14
HETATM   14  N4  UNL     1      -0.492  32.084 -17.817  1.00  0.00    -0.365 N 
HETATM   15  C4  UNL     1      -0.888  33.068 -18.523  1.00  0.00     0.183 C 
HETATM   16  N2  UNL     1      -0.401  34.355 -18.169  1.00  0.00    -0.365 N 
HETATM   17  N3  UNL     1      -1.769  32.854 -19.595  1.00  0.00    -0.064 NA
ATOM     18  H2  UNL     1      -1.033  35.081 -17.832  1.00  0.00     0.162 HD
ATOM     19  H4  UNL     1       0.146  32.244 -17.036  1.00  0.00     0.162 HD
BRANCH  16  20
HETATM   20  C3  UNL     1       1.011  34.602 -18.302  1.00  0.00     0.124 C 
BRANCH  20  21
HETATM   21  C2  UNL     1       1.209  35.383 -19.583  1.00  0.00     0.047 C 
BRANCH  21  22
HETATM   22  C1  UNL     1       1.297  34.445 -20.765  1.00  0.00     0.231 C 
BRANCH  22  23
HETATM   23  N1  UNL     1       0.166  34.567 -21.655  1.00  0.00    -0.079 N 
ATOM     24  H13 UNL     1      -0.009  33.691 -22.149  1.00  0.00     0.274 HD
ATOM     25  H12 UNL     1      -0.707  34.637 -21.132  1.00  0.00     0.274 HD
ATOM     26  H11 UNL     1       0.265  35.343 -22.309  1.00  0.00     0.274 HD
ENDBRANCH  22  23
ENDBRANCH  21  22
ENDBRANCH  20  21
ENDBRANCH  16  20
ENDBRANCH  13  14
ENDBRANCH  12  13
ENDBRANCH  11  12
ENDBRANCH   1  11
BRANCH   2  27
HETATM   27  C10 UNL     1      -4.635  30.135 -15.224  1.00  0.00     0.085 C 
BRANCH  27  28
HETATM   28  C11 UNL     1      -4.961  31.158 -14.130  1.00  0.00     0.235 C 
BRANCH  28  29
HETATM   29  N5  UNL     1      -3.745  31.561 -13.440  1.00  0.00    -0.079 N 
ATOM     30  H53 UNL     1      -3.145  32.138 -14.031  1.00  0.00     0.274 HD
ATOM     31  H52 UNL     1      -3.933  32.243 -12.704  1.00  0.00     0.274 HD
ATOM     32  H51 UNL     1      -3.254  30.742 -13.082  1.00  0.00     0.274 HD
ENDBRANCH  28  29
ENDBRANCH  27  28
ENDBRANCH   2  27
TORSDOF 11
ENDMDL
MODEL 5
REMARK VINA RESULT: -6.314223044      1.008      1.032
REMARK  11 active torsions:
REMARK  status: ('A' for Active; 'I' for Inactive)
REMARK    1  A    between atoms: N1_1  and  C1_5 
REMARK    2  A    between atoms: C1_5  and  C2_6 
REMARK    3  A    between atoms: C2_6  and  C3_7 
REMARK    4  A    between atoms: C3_7  and  N2_8 
REMARK       I    between atoms: N2_8  and  C4_10 
REMARK    5  A    between atoms: N4_12  and  C5_14 
REMARK    6  A    between atoms: C5_14  and  C6_15 
REMARK    7  A    between atoms: C6_15  and  C7_16 
REMARK    8  A    between atoms: C7_16  and  C8_17 
REMARK    9  A    between atoms: C9_18  and  C10_19 
REMARK   10  A    between atoms: C10_19  and  C11_20 
REMARK   11  A    between atoms: C11_20  and  N5_21 
ROOT
HETATM    1  C8  UNL     1      -3.396  29.698 -14.836  1.00  0.00     0.033 A 
HETATM    2  C9  UNL     1      -4.220  30.753 -15.062  1.00  0.00     0.027 A 
HETATM    3  N6  UNL     1      -4.853  31.319 -13.995  1.00  0.00    -0.312 N 
ATOM      4  H6  UNL     1      -5.474  32.111 -14.156  1.00  0.00     0.170 HD
HETATM    5  C12 UNL     1      -4.687  30.871 -12.740  1.00  0.00     0.327 A 
HETATM    6  O1  UNL     1      -5.284  31.410 -11.753  1.00  0.00    -0.247 OA
HETATM    7  N7  UNL     1      -3.884  29.837 -12.483  1.00  0.00    -0.275 N 
ATOM      8  H7  UNL     1      -3.757  29.496 -11.531  1.00  0.00     0.173 HD
HETATM    9  C13 UNL     1      -3.247  29.258 -13.514  1.00  0.00     0.257 A 
HETATM   10  O2  UNL     1      -2.480  28.271 -13.282  1.00  0.00    -0.267 OA
ENDROOT
BRANCH   1  11
HETATM   11  C7  UNL     1      -2.696  28.961 -15.881  1.00  0.00     0.048 C 
BRANCH  11  12
HETATM   12  C6  UNL     1      -1.328  29.573 -16.091  1.00  0.00     0.025 C 
BRANCH  12  13
HETATM   13  C5  UNL     1      -1.131  30.120 -17.464  1.00  0.00     0.122 C 
BRANCH  13  14
HETATM   14  N4  UNL     1      -0.885  31.535 -17.423  1.00  0.00    -0.365 N 
HETATM   15  C4  UNL     1      -1.422  32.306 -18.284  1.00  0.00     0.183 C 
HETATM   16  N2  UNL     1      -1.131  33.692 -18.181  1.00  0.00    -0.365 N 
HETATM   17  N3  UNL     1      -2.263  31.775 -19.275  1.00  0.00    -0.064 NA
ATOM     18  H2  UNL     1      -1.863  34.368 -17.962  1.00  0.00     0.162 HD
ATOM     19  H4  UNL     1      -0.278  31.924 -16.702  1.00  0.00     0.162 HD
BRANCH  16  20
HETATM   20  C3  UNL     1       0.229  34.113 -18.395  1.00  0.00     0.124 C 
BRANCH  20  21
HETATM   21  C2  UNL     1       0.466  34.115 -19.889  1.00  0.00     0.047 C 
BRANCH  21  22
HETATM   22  C1  UNL     1       1.272  35.329 -20.293  1.00  0.00     0.231 C 
BRANCH  22  23
HETATM   23  N1  UNL     1       1.553  36.204 -19.178  1.00  0.00    -0.079 N 
ATOM     24  H13 UNL     1       1.202  37.146 -19.353  1.00  0.00     0.274 HD
ATOM     25  H12 UNL     1       0.980  35.962 -18.368  1.00  0.00     0.274 HD
ATOM     26  H11 UNL     1       2.543  36.222 -18.934  1.00  0.00     0.274 HD
ENDBRANCH  22  23
ENDBRANCH  21  22
ENDBRANCH  20  21
ENDBRANCH  16  20
ENDBRANCH  13  14
ENDBRANCH  12  13
ENDBRANCH  11  12
ENDBRANCH   1  11
BRANCH   2  27
HETATM   27  C10 UNL     1      -4.434  31.352 -16.361  1.00  0.00     0.085 C 
BRANCH  27  28
HETATM   28  C11 UNL     1      -5.249  32.648 -16.296  1.00  0.00     0.235 C 
BRANCH  28  29
HETATM   29  N5  UNL     1      -4.440  33.774 -16.742  1.00  0.00    -0.079 N 
ATOM     30  H53 UNL     1      -4.775  34.658 -16.358  1.00  0.00     0.274 HD
ATOM     31  H52 UNL     1      -3.512  33.766 -16.319  1.00  0.00     0.274 HD
ATOM     32  H51 UNL     1      -4.395  33.793 -17.761  1.00  0.00     0.274 HD
ENDBRANCH  28  29
ENDBRANCH  27  28
ENDBRANCH   2  27
TORSDOF 11
ENDMDL
