MODEL 1
REMARK VINA RESULT: -8.700165127      0.000      0.000
REMARK  14 active torsions:
REMARK  status: ('A' for Active; 'I' for Inactive)
REMARK    1  A    between atoms: C2_2  and  O1_3 
REMARK    2  A    between atoms: O1_3  and  C3_4 
REMARK       I    between atoms: C3_4  and  N1_6 
REMARK       I    between atoms: N2_9  and  C6_10 
REMARK    3  A    between atoms: C6_10  and  C7_12 
REMARK    4  A    between atoms: C7_12  and  C8_13 
REMARK    5  A    between atoms: C8_13  and  C9_14 
REMARK    6  A    between atoms: C9_14  and  C10_15 
REMARK    7  A    between atoms: C10_15  and  C11_16 
REMARK    8  A    between atoms: C11_16  and  C12_17 
REMARK    9  A    between atoms: C12_17  and  C13_18 
REMARK   10  A    between atoms: C13_18  and  C14_19 
REMARK       I    between atoms: C14_19  and  N3_21 
REMARK   11  A    between atoms: N3_21  and  C15_23 
REMARK   12  A    between atoms: C24_34  and  C25_35 
REMARK   13  A    between atoms: C25_35  and  O6_36 
REMARK   14  A    between atoms: N5_38  and  O7_40 
ROOT
HETATM    1  C14 UNL     1      10.597 -13.832  -0.907  1.00  0.00     0.217 C 
HETATM    2  O4  UNL     1      11.148 -14.256  -1.936  1.00  0.00    -0.274 OA
HETATM    3  N3  UNL     1       9.190 -13.884  -0.809  1.00  0.00    -0.356 N 
ATOM      4  H3  UNL     1       8.770 -13.528   0.051  1.00  0.00     0.162 HD
ENDROOT
BRANCH   1   5
HETATM    5  C13 UNL     1      11.392 -13.282   0.192  1.00  0.00     0.103 C 
BRANCH   5   6
HETATM    6  C12 UNL     1      12.388 -14.373   0.634  1.00  0.00     0.009 C 
BRANCH   6   7
HETATM    7  C11 UNL     1      13.758 -13.782   0.825  1.00  0.00     0.000 C 
BRANCH   7   8
HETATM    8  C10 UNL     1      13.853 -13.175   2.195  1.00  0.00     0.000 C 
BRANCH   8   9
HETATM    9  C9  UNL     1      14.758 -13.935   3.099  1.00  0.00     0.000 C 
BRANCH   9  10
HETATM   10  C8  UNL     1      14.251 -13.936   4.539  1.00  0.00     0.009 C 
BRANCH  10  11
HETATM   11  C7  UNL     1      12.840 -13.429   4.633  1.00  0.00     0.103 C 
BRANCH  11  12
HETATM   12  C6  UNL     1      11.901 -14.465   5.090  1.00  0.00     0.219 C 
HETATM   13  N2  UNL     1      10.646 -14.603   4.439  1.00  0.00    -0.349 N 
HETATM   14  C5  UNL     1       9.715 -15.623   4.884  1.00  0.00     0.145 C 
HETATM   15  C26 UNL     1      10.268 -13.737   3.324  1.00  0.00     0.145 C 
HETATM   16  C4  UNL     1       9.064 -16.219   3.649  1.00  0.00     0.148 C 
HETATM   17  N1  UNL     1       8.415 -15.209   2.873  1.00  0.00    -0.325 N 
HETATM   18  C3  UNL     1       7.453 -15.523   1.878  1.00  0.00     0.362 C 
HETATM   19  C27 UNL     1       8.761 -13.825   3.122  1.00  0.00     0.148 C 
HETATM   20  O2  UNL     1       6.902 -14.609   1.213  1.00  0.00    -0.238 OA
HETATM   21  O3  UNL     1      12.228 -15.198   6.042  1.00  0.00    -0.273 OA
BRANCH  18  22
HETATM   22  O1  UNL     1       7.077 -16.820   1.587  1.00  0.00    -0.304 OA
BRANCH  22  23
HETATM   23  C2  UNL     1       5.696 -17.172   1.527  1.00  0.00     0.176 C 
HETATM   24  C1  UNL     1       5.505 -17.891   0.197  1.00  0.00     0.034 C 
ENDBRANCH  22  23
ENDBRANCH  18  22
ENDBRANCH  11  12
ENDBRANCH  10  11
ENDBRANCH   9  10
ENDBRANCH   8   9
ENDBRANCH   7   8
ENDBRANCH   6   7
ENDBRANCH   5   6
ENDBRANCH   1   5
BRANCH   3  25
HETATM   25  C15 UNL     1       8.313 -14.384  -1.794  1.00  0.00     0.097 C 
HETATM   26  C16 UNL     1       8.766 -14.334  -3.212  1.00  0.00     0.032 C 
HETATM   27  C17 UNL     1       7.677 -15.130  -3.921  1.00  0.00     0.013 C 
HETATM   28  C18 UNL     1       6.906 -15.866  -2.838  1.00  0.00     0.006 C 
HETATM   29  C23 UNL     1       8.217 -16.176  -4.839  1.00  0.00     0.096 C 
HETATM   30  C19 UNL     1       6.567 -17.197  -3.354  1.00  0.00     0.014 C 
HETATM   31  C24 UNL     1       7.812 -15.793  -1.630  1.00  0.00     0.089 C 
HETATM   32  C20 UNL     1       7.374 -17.387  -4.623  1.00  0.00     0.032 C 
HETATM   33  C21 UNL     1       6.519 -17.442  -5.865  1.00  0.00     0.200 C 
HETATM   34  O5  UNL     1       6.741 -16.247  -6.545  1.00  0.00    -0.303 OA
HETATM   35  N4  UNL     1       7.963 -15.830  -6.225  1.00  0.00    -0.196 NA
HETATM   36  C22 UNL     1       8.991 -16.500  -7.025  1.00  0.00     0.144 C 
BRANCH  31  37
HETATM   37  C25 UNL     1       8.841 -16.818  -1.559  1.00  0.00     0.141 C 
HETATM   38  N5  UNL     1       8.858 -17.836  -0.768  1.00  0.00    -0.251 N 
ATOM     39  H5  UNL     1       8.076 -17.945  -0.122  1.00  0.00     0.196 HD
BRANCH  37  40
HETATM   40  O6  UNL     1       9.958 -16.744  -2.418  1.00  0.00    -0.348 OA
ATOM     41  H6  UNL     1      10.733 -16.271  -2.139  1.00  0.00     0.219 HD
ENDBRANCH  37  40
BRANCH  38  42
HETATM   42  O7  UNL     1       9.837 -18.771  -0.732  1.00  0.00    -0.288 OA
ATOM     43  H7  UNL     1      10.766 -18.587  -0.807  1.00  0.00     0.244 HD
ENDBRANCH  38  42
ENDBRANCH  31  37
ENDBRANCH   3  25
TORSDOF 14
ENDMDL
MODEL 2
REMARK VINA RESULT: -8.626807636      2.272      8.828
REMARK  14 active torsions:
REMARK  status: ('A' for Active; 'I' for Inactive)
REMARK    1  A    between atoms: C2_2  and  O1_3 
REMARK    2  A    between atoms: O1_3  and  C3_4 
REMARK       I    between atoms: C3_4  and  N1_6 
REMARK       I    between atoms: N2_9  and  C6_10 
REMARK    3  A    between atoms: C6_10  and  C7_12 
REMARK    4  A    between atoms: C7_12  and  C8_13 
REMARK    5  A    between atoms: C8_13  and  C9_14 
REMARK    6  A    between atoms: C9_14  and  C10_15 
REMARK    7  A    between atoms: C10_15  and  C11_16 
REMARK    8  A    between atoms: C11_16  and  C12_17 
REMARK    9  A    between atoms: C12_17  and  C13_18 
REMARK   10  A    between atoms: C13_18  and  C14_19 
REMARK       I    between atoms: C14_19  and  N3_21 
REMARK   11  A    between atoms: N3_21  and  C15_23 
REMARK   12  A    between atoms: C24_34  and  C25_35 
REMARK   13  A    between atoms: C25_35  and  O6_36 
REMARK   14  A    between atoms: N5_38  and  O7_40 
ROOT
HETATM    1  C14 UNL     1       7.916 -14.880  -1.514  1.00  0.00     0.217 C 
HETATM    2  O4  UNL     1       8.217 -13.687  -1.682  1.00  0.00    -0.274 OA
HETATM    3  N3  UNL     1       8.021 -15.441  -0.223  1.00  0.00    -0.356 N 
ATOM      4  H3  UNL     1       7.764 -16.423  -0.120  1.00  0.00     0.162 HD
ENDROOT
BRANCH   1   5
HETATM    5  C13 UNL     1       7.459 -15.699  -2.638  1.00  0.00     0.103 C 
BRANCH   5   6
HETATM    6  C12 UNL     1       8.619 -15.787  -3.648  1.00  0.00     0.009 C 
BRANCH   6   7
HETATM    7  C11 UNL     1       8.240 -15.113  -4.939  1.00  0.00     0.000 C 
BRANCH   7   8
HETATM    8  C10 UNL     1       9.233 -15.478  -6.003  1.00  0.00     0.000 C 
BRANCH   8   9
HETATM    9  C9  UNL     1       8.607 -16.168  -7.163  1.00  0.00     0.000 C 
BRANCH   9  10
HETATM   10  C8  UNL     1       7.137 -15.788  -7.323  1.00  0.00     0.009 C 
BRANCH  10  11
HETATM   11  C7  UNL     1       6.268 -16.997  -7.514  1.00  0.00     0.103 C 
BRANCH  11  12
HETATM   12  C6  UNL     1       4.951 -16.850  -6.874  1.00  0.00     0.219 C 
HETATM   13  N2  UNL     1       4.736 -17.411  -5.588  1.00  0.00    -0.349 N 
HETATM   14  C5  UNL     1       3.439 -17.268  -4.949  1.00  0.00     0.145 C 
HETATM   15  C26 UNL     1       5.794 -18.135  -4.886  1.00  0.00     0.145 C 
HETATM   16  C4  UNL     1       3.682 -17.012  -3.473  1.00  0.00     0.148 C 
HETATM   17  N1  UNL     1       4.448 -18.067  -2.888  1.00  0.00    -0.325 N 
HETATM   18  C3  UNL     1       4.522 -18.258  -1.484  1.00  0.00     0.362 C 
HETATM   19  C27 UNL     1       5.168 -18.962  -3.770  1.00  0.00     0.148 C 
HETATM   20  O2  UNL     1       5.207 -19.197  -1.003  1.00  0.00    -0.238 OA
HETATM   21  O3  UNL     1       4.053 -16.233  -7.478  1.00  0.00    -0.273 OA
BRANCH  18  22
HETATM   22  O1  UNL     1       3.864 -17.442  -0.585  1.00  0.00    -0.304 OA
BRANCH  22  23
HETATM   23  C2  UNL     1       4.568 -16.404   0.094  1.00  0.00     0.176 C 
HETATM   24  C1  UNL     1       4.857 -16.938   1.491  1.00  0.00     0.034 C 
ENDBRANCH  22  23
ENDBRANCH  18  22
ENDBRANCH  11  12
ENDBRANCH  10  11
ENDBRANCH   9  10
ENDBRANCH   8   9
ENDBRANCH   7   8
ENDBRANCH   6   7
ENDBRANCH   5   6
ENDBRANCH   1   5
BRANCH   3  25
HETATM   25  C15 UNL     1       8.449 -14.763   0.937  1.00  0.00     0.097 C 
HETATM   26  C16 UNL     1       8.020 -15.308   2.255  1.00  0.00     0.032 C 
HETATM   27  C17 UNL     1       8.828 -14.458   3.228  1.00  0.00     0.013 C 
HETATM   28  C18 UNL     1       9.901 -13.763   2.406  1.00  0.00     0.006 C 
HETATM   29  C23 UNL     1       9.545 -15.265   4.260  1.00  0.00     0.096 C 
HETATM   30  C19 UNL     1      11.131 -13.736   3.205  1.00  0.00     0.014 C 
HETATM   31  C24 UNL     1       9.927 -14.538   1.107  1.00  0.00     0.089 C 
HETATM   32  C20 UNL     1      10.903 -14.664   4.382  1.00  0.00     0.032 C 
HETATM   33  C21 UNL     1      10.845 -13.938   5.703  1.00  0.00     0.200 C 
HETATM   34  O5  UNL     1       9.513 -13.973   6.110  1.00  0.00    -0.303 OA
HETATM   35  N4  UNL     1       8.964 -15.059   5.573  1.00  0.00    -0.196 NA
HETATM   36  C22 UNL     1       9.257 -16.260   6.360  1.00  0.00     0.144 C 
BRANCH  31  37
HETATM   37  C25 UNL     1      10.744 -15.740   1.114  1.00  0.00     0.141 C 
HETATM   38  N5  UNL     1      10.321 -16.956   1.159  1.00  0.00    -0.251 N 
ATOM     39  H5  UNL     1       9.312 -17.104   1.194  1.00  0.00     0.196 HD
BRANCH  37  40
HETATM   40  O6  UNL     1      12.150 -15.626   1.068  1.00  0.00    -0.348 OA
ATOM     41  H6  UNL     1      12.667 -16.334   0.701  1.00  0.00     0.219 HD
ENDBRANCH  37  40
BRANCH  38  42
HETATM   42  O7  UNL     1      11.116 -18.052   1.163  1.00  0.00    -0.288 OA
ATOM     43  H7  UNL     1      10.858 -18.911   0.850  1.00  0.00     0.244 HD
ENDBRANCH  38  42
ENDBRANCH  31  37
ENDBRANCH   3  25
TORSDOF 14
ENDMDL
MODEL 3
REMARK VINA RESULT: -8.611156915      1.888      8.923
REMARK  14 active torsions:
REMARK  status: ('A' for Active; 'I' for Inactive)
REMARK    1  A    between atoms: C2_2  and  O1_3 
REMARK    2  A    between atoms: O1_3  and  C3_4 
REMARK       I    between atoms: C3_4  and  N1_6 
REMARK       I    between atoms: N2_9  and  C6_10 
REMARK    3  A    between atoms: C6_10  and  C7_12 
REMARK    4  A    between atoms: C7_12  and  C8_13 
REMARK    5  A    between atoms: C8_13  and  C9_14 
REMARK    6  A    between atoms: C9_14  and  C10_15 
REMARK    7  A    between atoms: C10_15  and  C11_16 
REMARK    8  A    between atoms: C11_16  and  C12_17 
REMARK    9  A    between atoms: C12_17  and  C13_18 
REMARK   10  A    between atoms: C13_18  and  C14_19 
REMARK       I    between atoms: C14_19  and  N3_21 
REMARK   11  A    between atoms: N3_21  and  C15_23 
REMARK   12  A    between atoms: C24_34  and  C25_35 
REMARK   13  A    between atoms: C25_35  and  O6_36 
REMARK   14  A    between atoms: N5_38  and  O7_40 
ROOT
HETATM    1  C14 UNL     1       7.405 -15.978   1.253  1.00  0.00     0.217 C 
HETATM    2  O4  UNL     1       8.166 -16.712   0.601  1.00  0.00    -0.274 OA
HETATM    3  N3  UNL     1       7.922 -15.250   2.347  1.00  0.00    -0.356 N 
ATOM      4  H3  UNL     1       7.270 -14.655   2.859  1.00  0.00     0.162 HD
ENDROOT
BRANCH   1   5
HETATM    5  C13 UNL     1       5.990 -15.867   0.897  1.00  0.00     0.103 C 
BRANCH   5   6
HETATM    6  C12 UNL     1       5.264 -17.086   1.499  1.00  0.00     0.009 C 
BRANCH   6   7
HETATM    7  C11 UNL     1       4.048 -17.425   0.682  1.00  0.00     0.000 C 
BRANCH   7   8
HETATM    8  C10 UNL     1       4.394 -17.366  -0.778  1.00  0.00     0.000 C 
BRANCH   8   9
HETATM    9  C9  UNL     1       5.026 -18.619  -1.271  1.00  0.00     0.000 C 
BRANCH   9  10
HETATM   10  C8  UNL     1       4.790 -18.824  -2.766  1.00  0.00     0.009 C 
BRANCH  10  11
HETATM   11  C7  UNL     1       5.028 -17.562  -3.544  1.00  0.00     0.103 C 
BRANCH  11  12
HETATM   12  C6  UNL     1       6.393 -17.486  -4.088  1.00  0.00     0.219 C 
HETATM   13  N2  UNL     1       7.294 -16.516  -3.574  1.00  0.00    -0.349 N 
HETATM   14  C5  UNL     1       8.643 -16.436  -4.105  1.00  0.00     0.145 C 
HETATM   15  C26 UNL     1       6.893 -15.589  -2.516  1.00  0.00     0.145 C 
HETATM   16  C4  UNL     1       9.577 -16.165  -2.940  1.00  0.00     0.148 C 
HETATM   17  N1  UNL     1       9.207 -14.970  -2.251  1.00  0.00    -0.325 N 
HETATM   18  C3  UNL     1      10.090 -14.306  -1.362  1.00  0.00     0.362 C 
HETATM   19  C27 UNL     1       7.882 -14.431  -2.477  1.00  0.00     0.148 C 
HETATM   20  O2  UNL     1       9.731 -13.255  -0.771  1.00  0.00    -0.238 OA
HETATM   21  O3  UNL     1       6.727 -18.277  -4.990  1.00  0.00    -0.273 OA
BRANCH  18  22
HETATM   22  O1  UNL     1      11.366 -14.764  -1.097  1.00  0.00    -0.304 OA
BRANCH  22  23
HETATM   23  C2  UNL     1      12.337 -13.895  -0.516  1.00  0.00     0.176 C 
HETATM   24  C1  UNL     1      13.238 -14.783   0.334  1.00  0.00     0.034 C 
ENDBRANCH  22  23
ENDBRANCH  18  22
ENDBRANCH  11  12
ENDBRANCH  10  11
ENDBRANCH   9  10
ENDBRANCH   8   9
ENDBRANCH   7   8
ENDBRANCH   6   7
ENDBRANCH   5   6
ENDBRANCH   1   5
BRANCH   3  25
HETATM   25  C15 UNL     1       9.260 -15.272   2.792  1.00  0.00     0.097 C 
HETATM   26  C16 UNL     1      10.144 -14.145   2.383  1.00  0.00     0.032 C 
HETATM   27  C17 UNL     1      11.399 -14.412   3.205  1.00  0.00     0.013 C 
HETATM   28  C18 UNL     1      11.012 -15.429   4.266  1.00  0.00     0.006 C 
HETATM   29  C23 UNL     1      11.889 -13.206   3.937  1.00  0.00     0.096 C 
HETATM   30  C19 UNL     1      11.705 -15.069   5.508  1.00  0.00     0.014 C 
HETATM   31  C24 UNL     1       9.500 -15.395   4.272  1.00  0.00     0.089 C 
HETATM   32  C20 UNL     1      12.275 -13.679   5.297  1.00  0.00     0.032 C 
HETATM   33  C21 UNL     1      13.783 -13.660   5.259  1.00  0.00     0.200 C 
HETATM   34  O5  UNL     1      14.137 -13.419   3.933  1.00  0.00    -0.303 OA
HETATM   35  N4  UNL     1      13.141 -12.734   3.375  1.00  0.00    -0.196 NA
HETATM   36  C22 UNL     1      13.231 -11.304   3.680  1.00  0.00     0.144 C 
BRANCH  31  37
HETATM   37  C25 UNL     1       8.903 -14.352   5.090  1.00  0.00     0.141 C 
HETATM   38  N5  UNL     1       8.517 -13.189   4.690  1.00  0.00    -0.251 N 
ATOM     39  H5  UNL     1       8.638 -12.965   3.702  1.00  0.00     0.196 HD
BRANCH  37  40
HETATM   40  O6  UNL     1       8.701 -14.578   6.468  1.00  0.00    -0.348 OA
ATOM     41  H6  UNL     1       9.394 -14.969   6.987  1.00  0.00     0.219 HD
ENDBRANCH  37  40
BRANCH  38  42
HETATM   42  O7  UNL     1       7.964 -12.242   5.485  1.00  0.00    -0.288 OA
ATOM     43  H7  UNL     1       7.055 -11.970   5.452  1.00  0.00     0.244 HD
ENDBRANCH  38  42
ENDBRANCH  31  37
ENDBRANCH   3  25
TORSDOF 14
ENDMDL
MODEL 4
REMARK VINA RESULT: -8.590766176      2.873      5.012
REMARK  14 active torsions:
REMARK  status: ('A' for Active; 'I' for Inactive)
REMARK    1  A    between atoms: C2_2  and  O1_3 
REMARK    2  A    between atoms: O1_3  and  C3_4 
REMARK       I    between atoms: C3_4  and  N1_6 
REMARK       I    between atoms: N2_9  and  C6_10 
REMARK    3  A    between atoms: C6_10  and  C7_12 
REMARK    4  A    between atoms: C7_12  and  C8_13 
REMARK    5  A    between atoms: C8_13  and  C9_14 
REMARK    6  A    between atoms: C9_14  and  C10_15 
REMARK    7  A    between atoms: C10_15  and  C11_16 
REMARK    8  A    between atoms: C11_16  and  C12_17 
REMARK    9  A    between atoms: C12_17  and  C13_18 
REMARK   10  A    between atoms: C13_18  and  C14_19 
REMARK       I    between atoms: C14_19  and  N3_21 
REMARK   11  A    between atoms: N3_21  and  C15_23 
REMARK   12  A    between atoms: C24_34  and  C25_35 
REMARK   13  A    between atoms: C25_35  and  O6_36 
REMARK   14  A    between atoms: N5_38  and  O7_40 
ROOT
HETATM    1  C14 UNL     1       6.681 -16.190   0.640  1.00  0.00     0.217 C 
HETATM    2  O4  UNL     1       6.731 -17.339   1.111  1.00  0.00    -0.274 OA
HETATM    3  N3  UNL     1       5.872 -15.945  -0.490  1.00  0.00    -0.356 N 
ATOM      4  H3  UNL     1       5.853 -14.991  -0.850  1.00  0.00     0.162 HD
ENDROOT
BRANCH   1   5
HETATM    5  C13 UNL     1       7.451 -15.103   1.245  1.00  0.00     0.103 C 
BRANCH   5   6
HETATM    6  C12 UNL     1       8.176 -14.360   0.106  1.00  0.00     0.009 C 
BRANCH   6   7
HETATM    7  C11 UNL     1       9.176 -15.268  -0.556  1.00  0.00     0.000 C 
BRANCH   7   8
HETATM    8  C10 UNL     1      10.155 -14.445  -1.342  1.00  0.00     0.000 C 
BRANCH   8   9
HETATM    9  C9  UNL     1      10.730 -13.323  -0.552  1.00  0.00     0.000 C 
BRANCH   9  10
HETATM   10  C8  UNL     1      12.247 -13.439  -0.422  1.00  0.00     0.009 C 
BRANCH  10  11
HETATM   11  C7  UNL     1      12.641 -14.488   0.578  1.00  0.00     0.103 C 
BRANCH  11  12
HETATM   12  C6  UNL     1      12.959 -13.915   1.896  1.00  0.00     0.219 C 
HETATM   13  N2  UNL     1      12.066 -14.125   2.980  1.00  0.00    -0.349 N 
HETATM   14  C5  UNL     1      12.374 -13.565   4.283  1.00  0.00     0.145 C 
HETATM   15  C26 UNL     1      10.835 -14.896   2.814  1.00  0.00     0.145 C 
HETATM   16  C4  UNL     1      11.976 -14.591   5.328  1.00  0.00     0.148 C 
HETATM   17  N1  UNL     1      10.594 -14.934   5.211  1.00  0.00    -0.325 N 
HETATM   18  C3  UNL     1       9.887 -15.588   6.252  1.00  0.00     0.362 C 
HETATM   19  C27 UNL     1       9.905 -14.596   3.983  1.00  0.00     0.148 C 
HETATM   20  O2  UNL     1       8.670 -15.876   6.115  1.00  0.00    -0.238 OA
HETATM   21  O3  UNL     1      14.008 -13.258   2.030  1.00  0.00    -0.273 OA
BRANCH  18  22
HETATM   22  O1  UNL     1      10.480 -15.941   7.449  1.00  0.00    -0.304 OA
BRANCH  22  23
HETATM   23  C2  UNL     1       9.990 -15.411   8.679  1.00  0.00     0.176 C 
HETATM   24  C1  UNL     1      10.431 -13.953   8.711  1.00  0.00     0.034 C 
ENDBRANCH  22  23
ENDBRANCH  18  22
ENDBRANCH  11  12
ENDBRANCH  10  11
ENDBRANCH   9  10
ENDBRANCH   8   9
ENDBRANCH   7   8
ENDBRANCH   6   7
ENDBRANCH   5   6
ENDBRANCH   1   5
BRANCH   3  25
HETATM   25  C15 UNL     1       5.087 -16.904  -1.165  1.00  0.00     0.097 C 
HETATM   26  C16 UNL     1       3.886 -16.420  -1.901  1.00  0.00     0.032 C 
HETATM   27  C17 UNL     1       3.443 -17.675  -2.644  1.00  0.00     0.013 C 
HETATM   28  C18 UNL     1       4.603 -18.654  -2.567  1.00  0.00     0.006 C 
HETATM   29  C23 UNL     1       3.185 -17.440  -4.095  1.00  0.00     0.096 C 
HETATM   30  C19 UNL     1       4.686 -19.352  -3.855  1.00  0.00     0.014 C 
HETATM   31  C24 UNL     1       5.779 -17.797  -2.158  1.00  0.00     0.089 C 
HETATM   32  C20 UNL     1       3.780 -18.603  -4.813  1.00  0.00     0.032 C 
HETATM   33  C21 UNL     1       2.575 -19.406  -5.235  1.00  0.00     0.200 C 
HETATM   34  O5  UNL     1       1.478 -18.829  -4.598  1.00  0.00    -0.303 OA
HETATM   35  N4  UNL     1       1.768 -17.547  -4.393  1.00  0.00    -0.196 NA
HETATM   36  C22 UNL     1       1.524 -16.738  -5.590  1.00  0.00     0.144 C 
BRANCH  31  37
HETATM   37  C25 UNL     1       6.460 -17.112  -3.245  1.00  0.00     0.141 C 
HETATM   38  N5  UNL     1       7.191 -17.656  -4.157  1.00  0.00    -0.251 N 
ATOM     39  H5  UNL     1       7.312 -18.668  -4.124  1.00  0.00     0.196 HD
BRANCH  37  40
HETATM   40  O6  UNL     1       6.347 -15.711  -3.365  1.00  0.00    -0.348 OA
ATOM     41  H6  UNL     1       7.081 -15.207  -3.698  1.00  0.00     0.219 HD
ENDBRANCH  37  40
BRANCH  38  42
HETATM   42  O7  UNL     1       7.811 -16.983  -5.155  1.00  0.00    -0.288 OA
ATOM     43  H7  UNL     1       8.249 -17.389  -5.893  1.00  0.00     0.244 HD
ENDBRANCH  38  42
ENDBRANCH  31  37
ENDBRANCH   3  25
TORSDOF 14
ENDMDL
MODEL 5
REMARK VINA RESULT: -8.550815014      2.105      4.479
REMARK  14 active torsions:
REMARK  status: ('A' for Active; 'I' for Inactive)
REMARK    1  A    between atoms: C2_2  and  O1_3 
REMARK    2  A    between atoms: O1_3  and  C3_4 
REMARK       I    between atoms: C3_4  and  N1_6 
REMARK       I    between atoms: N2_9  and  C6_10 
REMARK    3  A    between atoms: C6_10  and  C7_12 
REMARK    4  A    between atoms: C7_12  and  C8_13 
REMARK    5  A    between atoms: C8_13  and  C9_14 
REMARK    6  A    between atoms: C9_14  and  C10_15 
REMARK    7  A    between atoms: C10_15  and  C11_16 
REMARK    8  A    between atoms: C11_16  and  C12_17 
REMARK    9  A    between atoms: C12_17  and  C13_18 
REMARK   10  A    between atoms: C13_18  and  C14_19 
REMARK       I    between atoms: C14_19  and  N3_21 
REMARK   11  A    between atoms: N3_21  and  C15_23 
REMARK   12  A    between atoms: C24_34  and  C25_35 
REMARK   13  A    between atoms: C25_35  and  O6_36 
REMARK   14  A    between atoms: N5_38  and  O7_40 
ROOT
HETATM    1  C14 UNL     1       9.062 -14.338   1.966  1.00  0.00     0.217 C 
HETATM    2  O4  UNL     1       7.866 -14.068   2.164  1.00  0.00    -0.274 OA
HETATM    3  N3  UNL     1       9.493 -14.628   0.654  1.00  0.00    -0.356 N 
ATOM      4  H3  UNL     1      10.482 -14.844   0.526  1.00  0.00     0.162 HD
ENDROOT
BRANCH   1   5
HETATM    5  C13 UNL     1      10.015 -14.359   3.077  1.00  0.00     0.103 C 
BRANCH   5   6
HETATM    6  C12 UNL     1       9.455 -15.313   4.149  1.00  0.00     0.009 C 
BRANCH   6   7
HETATM    7  C11 UNL     1       9.120 -14.551   5.402  1.00  0.00     0.000 C 
BRANCH   7   8
HETATM    8  C10 UNL     1       8.556 -15.495   6.424  1.00  0.00     0.000 C 
BRANCH   8   9
HETATM    9  C9  UNL     1       9.500 -15.762   7.543  1.00  0.00     0.000 C 
BRANCH   9  10
HETATM   10  C8  UNL     1       9.937 -14.475   8.238  1.00  0.00     0.009 C 
BRANCH  10  11
HETATM   11  C7  UNL     1      11.427 -14.416   8.413  1.00  0.00     0.103 C 
BRANCH  11  12
HETATM   12  C6  UNL     1      12.005 -13.168   7.890  1.00  0.00     0.219 C 
HETATM   13  N2  UNL     1      12.638 -13.175   6.618  1.00  0.00    -0.349 N 
HETATM   14  C5  UNL     1      13.210 -11.947   6.095  1.00  0.00     0.145 C 
HETATM   15  C26 UNL     1      12.729 -14.395   5.819  1.00  0.00     0.145 C 
HETATM   16  C4  UNL     1      12.914 -11.903   4.607  1.00  0.00     0.148 C 
HETATM   17  N1  UNL     1      13.435 -13.056   3.944  1.00  0.00    -0.325 N 
HETATM   18  C3  UNL     1      13.606 -13.106   2.537  1.00  0.00     0.362 C 
HETATM   19  C27 UNL     1      13.797 -14.204   4.750  1.00  0.00     0.148 C 
HETATM   20  O2  UNL     1      14.067 -14.139   1.986  1.00  0.00    -0.238 OA
HETATM   21  O3  UNL     1      11.926 -12.132   8.576  1.00  0.00    -0.273 OA
BRANCH  18  22
HETATM   22  O1  UNL     1      13.280 -12.050   1.708  1.00  0.00    -0.304 OA
BRANCH  22  23
HETATM   23  C2  UNL     1      12.156 -12.141   0.835  1.00  0.00     0.176 C 
HETATM   24  C1  UNL     1      12.725 -12.164  -0.579  1.00  0.00     0.034 C 
ENDBRANCH  22  23
ENDBRANCH  18  22
ENDBRANCH  11  12
ENDBRANCH  10  11
ENDBRANCH   9  10
ENDBRANCH   8   9
ENDBRANCH   7   8
ENDBRANCH   6   7
ENDBRANCH   5   6
ENDBRANCH   1   5
BRANCH   3  25
HETATM   25  C15 UNL     1       8.677 -14.644  -0.497  1.00  0.00     0.097 C 
HETATM   26  C16 UNL     1       9.349 -14.555  -1.823  1.00  0.00     0.032 C 
HETATM   27  C17 UNL     1       8.193 -14.809  -2.782  1.00  0.00     0.013 C 
HETATM   28  C18 UNL     1       7.055 -15.372  -1.947  1.00  0.00     0.006 C 
HETATM   29  C23 UNL     1       8.504 -15.837  -3.819  1.00  0.00     0.096 C 
HETATM   30  C19 UNL     1       6.388 -16.412  -2.739  1.00  0.00     0.014 C 
HETATM   31  C24 UNL     1       7.722 -15.795  -0.657  1.00  0.00     0.089 C 
HETATM   32  C20 UNL     1       7.287 -16.692  -3.928  1.00  0.00     0.032 C 
HETATM   33  C21 UNL     1       6.679 -16.267  -5.241  1.00  0.00     0.200 C 
HETATM   34  O5  UNL     1       7.389 -15.142  -5.655  1.00  0.00    -0.303 OA
HETATM   35  N4  UNL     1       8.610 -15.231  -5.133  1.00  0.00    -0.196 NA
HETATM   36  C22 UNL     1       9.479 -16.099  -5.932  1.00  0.00     0.144 C 
BRANCH  31  37
HETATM   37  C25 UNL     1       8.331 -17.114  -0.673  1.00  0.00     0.141 C 
HETATM   38  N5  UNL     1       9.578 -17.382  -0.856  1.00  0.00    -0.251 N 
ATOM     39  H5  UNL     1      10.213 -16.597  -1.007  1.00  0.00     0.196 HD
BRANCH  37  40
HETATM   40  O6  UNL     1       7.526 -18.256  -0.473  1.00  0.00    -0.348 OA
ATOM     41  H6  UNL     1       7.803 -18.924   0.143  1.00  0.00     0.219 HD
ENDBRANCH  37  40
BRANCH  38  42
HETATM   42  O7  UNL     1      10.109 -18.628  -0.864  1.00  0.00    -0.288 OA
ATOM     43  H7  UNL     1      10.788 -18.925  -1.458  1.00  0.00     0.244 HD
ENDBRANCH  38  42
ENDBRANCH  31  37
ENDBRANCH   3  25
TORSDOF 14
ENDMDL
