MODEL 1
REMARK VINA RESULT: -7.586687039      0.000      0.000
REMARK  8 active torsions:
REMARK  status: ('A' for Active; 'I' for Inactive)
REMARK       I    between atoms: C2_2  and  N1_4 
REMARK    1  A    between atoms: N1_4  and  C3_6 
REMARK    2  A    between atoms: C4_9  and  N3_10 
REMARK       I    between atoms: N3_10  and  C5_12 
REMARK    3  A    between atoms: N5_14  and  C6_16 
REMARK    4  A    between atoms: C6_16  and  C8_18 
REMARK       I    between atoms: C8_18  and  N6_20 
REMARK    5  A    between atoms: N6_20  and  O3_22 
REMARK    6  A    between atoms: O3_22  and  C9_23 
REMARK    7  A    between atoms: C10_27  and  N9_28 
REMARK    8  A    between atoms: C12_32  and  N11_33 
ROOT
HETATM    1  C8  UNL     1     -25.835  -6.621   9.186  1.00  0.00     0.263 C 
HETATM    2  O2  UNL     1     -26.656  -6.590  10.129  1.00  0.00    -0.269 OA
HETATM    3  N6  UNL     1     -25.754  -7.691   8.256  1.00  0.00    -0.229 N 
ATOM      4  H6  UNL     1     -25.048  -7.615   7.524  1.00  0.00     0.197 HD
ENDROOT
BRANCH   3   5
HETATM    5  O3  UNL     1     -26.521  -8.795   8.250  1.00  0.00    -0.225 OA
BRANCH   5   6
HETATM    6  C9  UNL     1     -26.759  -9.294   7.000  1.00  0.00     0.414 C 
HETATM    7  N7  UNL     1     -28.089  -9.135   6.490  1.00  0.00    -0.075 NA
HETATM    8  N8  UNL     1     -27.905  -9.213   5.082  1.00  0.00    -0.263 N 
HETATM    9  C10 UNL     1     -26.693  -8.872   4.803  1.00  0.00     0.261 C 
ATOM     10  H8  UNL     1     -28.615  -9.493   4.405  1.00  0.00     0.186 HD
HETATM   11  O4  UNL     1     -26.035  -8.557   5.989  1.00  0.00    -0.270 OA
BRANCH   9  12
HETATM   12  N9  UNL     1     -26.114  -8.826   3.477  1.00  0.00    -0.104 N 
HETATM   13  C11 UNL     1     -26.798  -9.341   2.420  1.00  0.00     0.228 A 
HETATM   14  N10 UNL     1     -26.303  -9.314   1.178  1.00  0.00    -0.186 N 
HETATM   15  C12 UNL     1     -25.102  -8.771   0.936  1.00  0.00     0.691 A 
ATOM     16  H10 UNL     1     -26.843  -9.709   0.409  1.00  0.00     0.185 HD
HETATM   17  N12 UNL     1     -24.416  -8.258   1.979  1.00  0.00    -0.022 N 
HETATM   18  C13 UNL     1     -24.911  -8.281   3.249  1.00  0.00     0.701 A 
ATOM     19  H12 UNL     1     -23.501  -7.841   1.813  1.00  0.00     0.203 HD
HETATM   20  N13 UNL     1     -24.232  -7.781   4.248  1.00  0.00    -0.233 N 
ATOM     21 2H13 UNL     1     -24.603  -7.799   5.198  1.00  0.00     0.174 HD
ATOM     22 1H13 UNL     1     -23.317  -7.367   4.074  1.00  0.00     0.174 HD
BRANCH  15  23
HETATM   23  N11 UNL     1     -24.590  -8.726  -0.256  1.00  0.00    -0.234 N 
ATOM     24 2H11 UNL     1     -24.206  -7.850  -0.609  1.00  0.00     0.174 HD
ATOM     25 1H11 UNL     1     -24.556  -9.544  -0.865  1.00  0.00     0.174 HD
ENDBRANCH  15  23
ENDBRANCH   9  12
ENDBRANCH   5   6
ENDBRANCH   3   5
BRANCH   1  26
HETATM   26  C6  UNL     1     -24.897  -5.461   9.046  1.00  0.00     0.174 C 
HETATM   27  C7  UNL     1     -25.519  -4.216   9.612  1.00  0.00     0.042 C 
BRANCH  26  28
HETATM   28  N5  UNL     1     -23.620  -5.754   9.597  1.00  0.00    -0.351 N 
HETATM   29  C5  UNL     1     -22.668  -6.301   8.966  1.00  0.00     0.192 C 
HETATM   30  N3  UNL     1     -21.409  -6.550   9.638  1.00  0.00    -0.294 N 
HETATM   31  N4  UNL     1     -22.841  -6.664   7.605  1.00  0.00    -0.063 NA
ATOM     32  H3  UNL     1     -21.097  -5.959  10.408  1.00  0.00     0.172 HD
ATOM     33  H5  UNL     1     -23.458  -5.505  10.573  1.00  0.00     0.163 HD
BRANCH  30  34
HETATM   34  C4  UNL     1     -20.698  -7.546   9.230  1.00  0.00     0.264 A 
HETATM   35  N2  UNL     1     -21.081  -8.846   9.355  1.00  0.00    -0.151 N 
HETATM   36  C3  UNL     1     -20.109  -9.612   8.828  1.00  0.00     0.708 A 
ATOM     37  H2  UNL     1     -21.948  -9.179   9.774  1.00  0.00     0.188 HD
HETATM   38  N14 UNL     1     -19.157  -8.770   8.393  1.00  0.00    -0.087 N 
HETATM   39  O5  UNL     1     -19.540  -7.563   8.647  1.00  0.00    -0.185 OA
ATOM     40  H14 UNL     1     -18.283  -9.039   7.941  1.00  0.00     0.214 HD
BRANCH  36  41
HETATM   41  N1  UNL     1     -20.091 -11.047   8.736  1.00  0.00    -0.158 N 
HETATM   42  C2  UNL     1     -20.299 -11.801   9.909  1.00  0.00     0.232 C 
HETATM   43  C1  UNL     1     -20.290 -13.291   9.895  1.00  0.00     0.118 C 
HETATM   44  O1  UNL     1     -20.500 -11.218  11.006  1.00  0.00    -0.273 OA
ATOM     45  H1  UNL     1     -19.930 -11.510   7.841  1.00  0.00     0.187 HD
ENDBRANCH  36  41
ENDBRANCH  30  34
ENDBRANCH  26  28
ENDBRANCH   1  26
TORSDOF 8
ENDMDL
MODEL 2
REMARK VINA RESULT: -7.483113063      1.334      1.557
REMARK  8 active torsions:
REMARK  status: ('A' for Active; 'I' for Inactive)
REMARK       I    between atoms: C2_2  and  N1_4 
REMARK    1  A    between atoms: N1_4  and  C3_6 
REMARK    2  A    between atoms: C4_9  and  N3_10 
REMARK       I    between atoms: N3_10  and  C5_12 
REMARK    3  A    between atoms: N5_14  and  C6_16 
REMARK    4  A    between atoms: C6_16  and  C8_18 
REMARK       I    between atoms: C8_18  and  N6_20 
REMARK    5  A    between atoms: N6_20  and  O3_22 
REMARK    6  A    between atoms: O3_22  and  C9_23 
REMARK    7  A    between atoms: C10_27  and  N9_28 
REMARK    8  A    between atoms: C12_32  and  N11_33 
ROOT
HETATM    1  C8  UNL     1     -25.810  -6.781   9.105  1.00  0.00     0.263 C 
HETATM    2  O2  UNL     1     -26.699  -6.618   9.970  1.00  0.00    -0.269 OA
HETATM    3  N6  UNL     1     -25.789  -7.878   8.203  1.00  0.00    -0.229 N 
ATOM      4  H6  UNL     1     -25.017  -7.914   7.537  1.00  0.00     0.197 HD
ENDROOT
BRANCH   3   5
HETATM    5  O3  UNL     1     -26.692  -8.872   8.144  1.00  0.00    -0.225 OA
BRANCH   5   6
HETATM    6  C9  UNL     1     -26.901  -9.353   6.882  1.00  0.00     0.414 C 
HETATM    7  N7  UNL     1     -28.212  -9.165   6.335  1.00  0.00    -0.075 NA
HETATM    8  N8  UNL     1     -27.988  -9.231   4.932  1.00  0.00    -0.263 N 
HETATM    9  C10 UNL     1     -26.762  -8.908   4.693  1.00  0.00     0.261 C 
ATOM     10  H8  UNL     1     -28.682  -9.490   4.231  1.00  0.00     0.186 HD
HETATM   11  O4  UNL     1     -26.134  -8.618   5.902  1.00  0.00    -0.270 OA
BRANCH   9  12
HETATM   12  N9  UNL     1     -26.144  -8.857   3.386  1.00  0.00    -0.104 N 
HETATM   13  C11 UNL     1     -26.776  -9.406   2.314  1.00  0.00     0.228 A 
HETATM   14  N10 UNL     1     -26.243  -9.375   1.088  1.00  0.00    -0.186 N 
HETATM   15  C12 UNL     1     -25.054  -8.795   0.878  1.00  0.00     0.691 A 
ATOM     16  H10 UNL     1     -26.745  -9.797   0.307  1.00  0.00     0.185 HD
HETATM   17  N12 UNL     1     -24.419  -8.249   1.935  1.00  0.00    -0.022 N 
HETATM   18  C13 UNL     1     -24.953  -8.274   3.189  1.00  0.00     0.701 A 
ATOM     19  H12 UNL     1     -23.513  -7.803   1.792  1.00  0.00     0.203 HD
HETATM   20  N13 UNL     1     -24.323  -7.741   4.203  1.00  0.00    -0.233 N 
ATOM     21 2H13 UNL     1     -24.723  -7.761   5.141  1.00  0.00     0.174 HD
ATOM     22 1H13 UNL     1     -23.416  -7.298   4.052  1.00  0.00     0.174 HD
BRANCH  15  23
HETATM   23  N11 UNL     1     -24.506  -8.746  -0.299  1.00  0.00    -0.234 N 
ATOM     24 2H11 UNL     1     -24.816  -9.388  -1.029  1.00  0.00     0.174 HD
ATOM     25 1H11 UNL     1     -23.766  -8.083  -0.527  1.00  0.00     0.174 HD
ENDBRANCH  15  23
ENDBRANCH   9  12
ENDBRANCH   5   6
ENDBRANCH   3   5
BRANCH   1  26
HETATM   26  C6  UNL     1     -24.719  -5.757   9.034  1.00  0.00     0.174 C 
HETATM   27  C7  UNL     1     -25.205  -4.439   9.564  1.00  0.00     0.042 C 
BRANCH  26  28
HETATM   28  N5  UNL     1     -23.531  -6.216   9.666  1.00  0.00    -0.351 N 
HETATM   29  C5  UNL     1     -22.591  -6.830   9.081  1.00  0.00     0.192 C 
HETATM   30  N3  UNL     1     -21.427  -7.250   9.836  1.00  0.00    -0.294 N 
HETATM   31  N4  UNL     1     -22.682  -7.101   7.691  1.00  0.00    -0.063 NA
ATOM     32  H3  UNL     1     -21.122  -6.736  10.663  1.00  0.00     0.172 HD
ATOM     33  H5  UNL     1     -23.429  -6.037  10.665  1.00  0.00     0.163 HD
BRANCH  30  34
HETATM   34  C4  UNL     1     -20.791  -8.294   9.426  1.00  0.00     0.264 A 
HETATM   35  N2  UNL     1     -19.604  -8.240   8.763  1.00  0.00    -0.151 N 
HETATM   36  C3  UNL     1     -19.230  -9.503   8.488  1.00  0.00     0.708 A 
ATOM     37  H2  UNL     1     -19.091  -7.394   8.518  1.00  0.00     0.188 HD
HETATM   38  N14 UNL     1     -20.191 -10.299   8.985  1.00  0.00    -0.087 N 
HETATM   39  O5  UNL     1     -21.092  -9.551   9.530  1.00  0.00    -0.185 OA
ATOM     40  H14 UNL     1     -20.205 -11.318   8.941  1.00  0.00     0.214 HD
BRANCH  36  41
HETATM   41  N1  UNL     1     -18.036  -9.924   7.806  1.00  0.00    -0.158 N 
HETATM   42  C2  UNL     1     -17.088 -10.687   8.516  1.00  0.00     0.232 C 
HETATM   43  C1  UNL     1     -15.825 -11.158   7.879  1.00  0.00     0.118 C 
HETATM   44  O1  UNL     1     -17.295 -10.990   9.720  1.00  0.00    -0.273 OA
ATOM     45  H1  UNL     1     -17.880  -9.676   6.828  1.00  0.00     0.187 HD
ENDBRANCH  36  41
ENDBRANCH  30  34
ENDBRANCH  26  28
ENDBRANCH   1  26
TORSDOF 8
ENDMDL
MODEL 3
REMARK VINA RESULT: -7.192991054      2.643      5.481
REMARK  8 active torsions:
REMARK  status: ('A' for Active; 'I' for Inactive)
REMARK       I    between atoms: C2_2  and  N1_4 
REMARK    1  A    between atoms: N1_4  and  C3_6 
REMARK    2  A    between atoms: C4_9  and  N3_10 
REMARK       I    between atoms: N3_10  and  C5_12 
REMARK    3  A    between atoms: N5_14  and  C6_16 
REMARK    4  A    between atoms: C6_16  and  C8_18 
REMARK       I    between atoms: C8_18  and  N6_20 
REMARK    5  A    between atoms: N6_20  and  O3_22 
REMARK    6  A    between atoms: O3_22  and  C9_23 
REMARK    7  A    between atoms: C10_27  and  N9_28 
REMARK    8  A    between atoms: C12_32  and  N11_33 
ROOT
HETATM    1  C8  UNL     1     -24.480  -8.035   9.517  1.00  0.00     0.263 C 
HETATM    2  O2  UNL     1     -24.895  -8.397  10.640  1.00  0.00    -0.269 OA
HETATM    3  N6  UNL     1     -25.212  -8.228   8.315  1.00  0.00    -0.229 N 
ATOM      4  H6  UNL     1     -24.781  -7.894   7.453  1.00  0.00     0.197 HD
ENDROOT
BRANCH   3   5
HETATM    5  O3  UNL     1     -26.419  -8.808   8.207  1.00  0.00    -0.225 OA
BRANCH   5   6
HETATM    6  C9  UNL     1     -26.685  -9.302   6.961  1.00  0.00     0.414 C 
HETATM    7  N7  UNL     1     -28.022  -9.128   6.475  1.00  0.00    -0.075 NA
HETATM    8  N8  UNL     1     -27.864  -9.204   5.064  1.00  0.00    -0.263 N 
HETATM    9  C10 UNL     1     -26.653  -8.876   4.764  1.00  0.00     0.261 C 
ATOM     10  H8  UNL     1     -28.589  -9.475   4.399  1.00  0.00     0.186 HD
HETATM   11  O4  UNL     1     -25.971  -8.570   5.939  1.00  0.00    -0.270 OA
BRANCH   9  12
HETATM   12  N9  UNL     1     -26.098  -8.832   3.428  1.00  0.00    -0.104 N 
HETATM   13  C11 UNL     1     -26.800  -9.349   2.384  1.00  0.00     0.228 A 
HETATM   14  N10 UNL     1     -26.327  -9.324   1.134  1.00  0.00    -0.186 N 
HETATM   15  C12 UNL     1     -25.131  -8.782   0.870  1.00  0.00     0.691 A 
ATOM     16  H10 UNL     1     -26.881  -9.721   0.375  1.00  0.00     0.185 HD
HETATM   17  N12 UNL     1     -24.427  -8.267   1.900  1.00  0.00    -0.022 N 
HETATM   18  C13 UNL     1     -24.899  -8.287   3.178  1.00  0.00     0.701 A 
ATOM     19  H12 UNL     1     -23.514  -7.850   1.716  1.00  0.00     0.203 HD
HETATM   20  N13 UNL     1     -24.203  -7.786   4.164  1.00  0.00    -0.233 N 
ATOM     21 2H13 UNL     1     -24.557  -7.801   5.121  1.00  0.00     0.174 HD
ATOM     22 1H13 UNL     1     -23.290  -7.371   3.973  1.00  0.00     0.174 HD
BRANCH  15  23
HETATM   23  N11 UNL     1     -24.639  -8.739  -0.332  1.00  0.00    -0.234 N 
ATOM     24 2H11 UNL     1     -24.088  -9.523  -0.680  1.00  0.00     0.174 HD
ATOM     25 1H11 UNL     1     -24.785  -7.942  -0.951  1.00  0.00     0.174 HD
ENDBRANCH  15  23
ENDBRANCH   9  12
ENDBRANCH   5   6
ENDBRANCH   3   5
BRANCH   1  26
HETATM   26  C6  UNL     1     -23.141  -7.367   9.456  1.00  0.00     0.174 C 
HETATM   27  C7  UNL     1     -22.044  -8.393   9.479  1.00  0.00     0.042 C 
BRANCH  26  28
HETATM   28  N5  UNL     1     -23.054  -6.472   8.355  1.00  0.00    -0.351 N 
HETATM   29  C5  UNL     1     -22.856  -5.225   8.450  1.00  0.00     0.192 C 
HETATM   30  N3  UNL     1     -22.787  -4.415   7.251  1.00  0.00    -0.294 N 
HETATM   31  N4  UNL     1     -22.700  -4.631   9.729  1.00  0.00    -0.063 NA
ATOM     32  H3  UNL     1     -22.468  -4.809   6.366  1.00  0.00     0.172 HD
ATOM     33  H5  UNL     1     -23.159  -6.864   7.419  1.00  0.00     0.163 HD
BRANCH  30  34
HETATM   34  C4  UNL     1     -23.144  -3.179   7.341  1.00  0.00     0.264 A 
HETATM   35  N2  UNL     1     -24.051  -2.721   8.246  1.00  0.00    -0.151 N 
HETATM   36  C3  UNL     1     -24.184  -1.396   8.061  1.00  0.00     0.708 A 
ATOM     37  H2  UNL     1     -24.543  -3.284   8.941  1.00  0.00     0.188 HD
HETATM   38  N14 UNL     1     -23.360  -1.070   7.052  1.00  0.00    -0.087 N 
HETATM   39  O5  UNL     1     -22.765  -2.146   6.655  1.00  0.00    -0.185 OA
ATOM     40  H14 UNL     1     -23.227  -0.135   6.666  1.00  0.00     0.214 HD
BRANCH  36  41
HETATM   41  N1  UNL     1     -25.031  -0.498   8.799  1.00  0.00    -0.158 N 
HETATM   42  C2  UNL     1     -25.239  -0.742  10.172  1.00  0.00     0.232 C 
HETATM   43  C1  UNL     1     -26.105   0.142  11.002  1.00  0.00     0.118 C 
HETATM   44  O1  UNL     1     -24.686  -1.726  10.729  1.00  0.00    -0.273 OA
ATOM     45  H1  UNL     1     -25.471   0.300   8.339  1.00  0.00     0.187 HD
ENDBRANCH  36  41
ENDBRANCH  30  34
ENDBRANCH  26  28
ENDBRANCH   1  26
TORSDOF 8
ENDMDL
MODEL 4
REMARK VINA RESULT: -7.178114301      1.822      2.651
REMARK  8 active torsions:
REMARK  status: ('A' for Active; 'I' for Inactive)
REMARK       I    between atoms: C2_2  and  N1_4 
REMARK    1  A    between atoms: N1_4  and  C3_6 
REMARK    2  A    between atoms: C4_9  and  N3_10 
REMARK       I    between atoms: N3_10  and  C5_12 
REMARK    3  A    between atoms: N5_14  and  C6_16 
REMARK    4  A    between atoms: C6_16  and  C8_18 
REMARK       I    between atoms: C8_18  and  N6_20 
REMARK    5  A    between atoms: N6_20  and  O3_22 
REMARK    6  A    between atoms: O3_22  and  C9_23 
REMARK    7  A    between atoms: C10_27  and  N9_28 
REMARK    8  A    between atoms: C12_32  and  N11_33 
ROOT
HETATM    1  C8  UNL     1     -25.034  -6.914   9.242  1.00  0.00     0.263 C 
HETATM    2  O2  UNL     1     -24.846  -7.477  10.342  1.00  0.00    -0.269 OA
HETATM    3  N6  UNL     1     -25.817  -7.479   8.200  1.00  0.00    -0.229 N 
ATOM      4  H6  UNL     1     -25.906  -6.935   7.341  1.00  0.00     0.197 HD
ENDROOT
BRANCH   3   5
HETATM    5  O3  UNL     1     -26.452  -8.664   8.239  1.00  0.00    -0.225 OA
BRANCH   5   6
HETATM    6  C9  UNL     1     -26.684  -9.206   7.007  1.00  0.00     0.414 C 
HETATM    7  N7  UNL     1     -28.024  -9.109   6.508  1.00  0.00    -0.075 NA
HETATM    8  N8  UNL     1     -27.852  -9.220   5.100  1.00  0.00    -0.263 N 
HETATM    9  C10 UNL     1     -26.656  -8.844   4.798  1.00  0.00     0.261 C 
ATOM     10  H8  UNL     1     -28.559  -9.543   4.439  1.00  0.00     0.186 HD
HETATM   11  O4  UNL     1     -25.997  -8.473   5.968  1.00  0.00    -0.270 OA
BRANCH   9  12
HETATM   12  N9  UNL     1     -26.093  -8.815   3.465  1.00  0.00    -0.104 N 
HETATM   13  C11 UNL     1     -26.789  -9.343   2.423  1.00  0.00     0.228 A 
HETATM   14  N10 UNL     1     -26.308  -9.331   1.175  1.00  0.00    -0.186 N 
HETATM   15  C12 UNL     1     -25.111  -8.791   0.912  1.00  0.00     0.691 A 
ATOM     16  H10 UNL     1     -26.858  -9.736   0.417  1.00  0.00     0.185 HD
HETATM   17  N12 UNL     1     -24.413  -8.265   1.941  1.00  0.00    -0.022 N 
HETATM   18  C13 UNL     1     -24.893  -8.272   3.216  1.00  0.00     0.701 A 
ATOM     19  H12 UNL     1     -23.500  -7.849   1.758  1.00  0.00     0.203 HD
HETATM   20  N13 UNL     1     -24.203  -7.759   4.201  1.00  0.00    -0.233 N 
ATOM     21 2H13 UNL     1     -24.562  -7.765   5.155  1.00  0.00     0.174 HD
ATOM     22 1H13 UNL     1     -23.289  -7.347   4.010  1.00  0.00     0.174 HD
BRANCH  15  23
HETATM   23  N11 UNL     1     -24.613  -8.761  -0.287  1.00  0.00    -0.234 N 
ATOM     24 2H11 UNL     1     -24.854  -9.495  -0.953  1.00  0.00     0.174 HD
ATOM     25 1H11 UNL     1     -23.980  -8.023  -0.595  1.00  0.00     0.174 HD
ENDBRANCH  15  23
ENDBRANCH   9  12
ENDBRANCH   5   6
ENDBRANCH   3   5
BRANCH   1  26
HETATM   26  C6  UNL     1     -24.393  -5.577   9.029  1.00  0.00     0.174 C 
HETATM   27  C7  UNL     1     -25.244  -4.490   9.620  1.00  0.00     0.042 C 
BRANCH  26  28
HETATM   28  N5  UNL     1     -23.052  -5.562   9.499  1.00  0.00    -0.351 N 
HETATM   29  C5  UNL     1     -22.055  -6.007   8.857  1.00  0.00     0.192 C 
HETATM   30  N3  UNL     1     -20.732  -5.936   9.444  1.00  0.00    -0.294 N 
HETATM   31  N4  UNL     1     -22.240  -6.570   7.568  1.00  0.00    -0.063 NA
ATOM     32  H3  UNL     1     -20.489  -5.202  10.109  1.00  0.00     0.172 HD
ATOM     33  H5  UNL     1     -22.879  -5.162  10.421  1.00  0.00     0.163 HD
BRANCH  30  34
HETATM   34  C4  UNL     1     -19.873  -6.832   9.096  1.00  0.00     0.264 A 
HETATM   35  N2  UNL     1     -19.251  -6.849   7.885  1.00  0.00    -0.151 N 
HETATM   36  C3  UNL     1     -18.428  -7.912   7.861  1.00  0.00     0.708 A 
ATOM     37  H2  UNL     1     -19.386  -6.176   7.131  1.00  0.00     0.188 HD
HETATM   38  N14 UNL     1     -18.561  -8.522   9.051  1.00  0.00    -0.087 N 
HETATM   39  O5  UNL     1     -19.420  -7.856   9.750  1.00  0.00    -0.185 OA
ATOM     40  H14 UNL     1     -18.070  -9.364   9.350  1.00  0.00     0.214 HD
BRANCH  36  41
HETATM   41  N1  UNL     1     -17.566  -8.318   6.784  1.00  0.00    -0.158 N 
HETATM   42  C2  UNL     1     -16.740  -7.348   6.179  1.00  0.00     0.232 C 
HETATM   43  C1  UNL     1     -15.824  -7.690   5.055  1.00  0.00     0.118 C 
HETATM   44  O1  UNL     1     -16.763  -6.157   6.587  1.00  0.00    -0.273 OA
ATOM     45  H1  UNL     1     -17.552  -9.286   6.464  1.00  0.00     0.187 HD
ENDBRANCH  36  41
ENDBRANCH  30  34
ENDBRANCH  26  28
ENDBRANCH   1  26
TORSDOF 8
ENDMDL
MODEL 5
REMARK VINA RESULT: -7.156029572      1.524      1.854
REMARK  8 active torsions:
REMARK  status: ('A' for Active; 'I' for Inactive)
REMARK       I    between atoms: C2_2  and  N1_4 
REMARK    1  A    between atoms: N1_4  and  C3_6 
REMARK    2  A    between atoms: C4_9  and  N3_10 
REMARK       I    between atoms: N3_10  and  C5_12 
REMARK    3  A    between atoms: N5_14  and  C6_16 
REMARK    4  A    between atoms: C6_16  and  C8_18 
REMARK       I    between atoms: C8_18  and  N6_20 
REMARK    5  A    between atoms: N6_20  and  O3_22 
REMARK    6  A    between atoms: O3_22  and  C9_23 
REMARK    7  A    between atoms: C10_27  and  N9_28 
REMARK    8  A    between atoms: C12_32  and  N11_33 
ROOT
HETATM    1  C8  UNL     1     -25.321  -6.753   8.801  1.00  0.00     0.263 C 
HETATM    2  O2  UNL     1     -26.275  -6.062   9.219  1.00  0.00    -0.269 OA
HETATM    3  N6  UNL     1     -25.478  -8.062   8.273  1.00  0.00    -0.229 N 
ATOM      4  H6  UNL     1     -24.632  -8.539   7.959  1.00  0.00     0.197 HD
ENDROOT
BRANCH   3   5
HETATM    5  O3  UNL     1     -26.637  -8.732   8.147  1.00  0.00    -0.225 OA
BRANCH   5   6
HETATM    6  C9  UNL     1     -26.838  -9.258   6.902  1.00  0.00     0.414 C 
HETATM    7  N7  UNL     1     -28.160  -9.139   6.362  1.00  0.00    -0.075 NA
HETATM    8  N8  UNL     1     -27.946  -9.237   4.960  1.00  0.00    -0.263 N 
HETATM    9  C10 UNL     1     -26.736  -8.873   4.700  1.00  0.00     0.261 C 
ATOM     10  H8  UNL     1     -28.635  -9.544   4.274  1.00  0.00     0.186 HD
HETATM   11  O4  UNL     1     -26.110  -8.522   5.893  1.00  0.00    -0.270 OA
BRANCH   9  12
HETATM   12  N9  UNL     1     -26.132  -8.836   3.385  1.00  0.00    -0.104 N 
HETATM   13  C11 UNL     1     -26.794  -9.358   2.318  1.00  0.00     0.228 A 
HETATM   14  N10 UNL     1     -26.275  -9.340   1.086  1.00  0.00    -0.186 N 
HETATM   15  C12 UNL     1     -25.070  -8.798   0.864  1.00  0.00     0.691 A 
ATOM     16  H10 UNL     1     -26.800  -9.741   0.309  1.00  0.00     0.185 HD
HETATM   17  N12 UNL     1     -24.405  -8.277   1.917  1.00  0.00    -0.022 N 
HETATM   18  C13 UNL     1     -24.925  -8.292   3.176  1.00  0.00     0.701 A 
ATOM     19  H12 UNL     1     -23.486  -7.861   1.765  1.00  0.00     0.203 HD
HETATM   20  N13 UNL     1     -24.266  -7.784   4.185  1.00  0.00    -0.233 N 
ATOM     21 2H13 UNL     1     -24.655  -7.795   5.128  1.00  0.00     0.174 HD
ATOM     22 1H13 UNL     1     -23.347  -7.371   4.026  1.00  0.00     0.174 HD
BRANCH  15  23
HETATM   23  N11 UNL     1     -24.535  -8.762  -0.319  1.00  0.00    -0.234 N 
ATOM     24 2H11 UNL     1     -23.691  -9.303  -0.509  1.00  0.00     0.174 HD
ATOM     25 1H11 UNL     1     -24.929  -8.205  -1.077  1.00  0.00     0.174 HD
ENDBRANCH  15  23
ENDBRANCH   9  12
ENDBRANCH   5   6
ENDBRANCH   3   5
BRANCH   1  26
HETATM   26  C6  UNL     1     -23.950  -6.154   8.869  1.00  0.00     0.174 C 
HETATM   27  C7  UNL     1     -24.036  -4.655   8.884  1.00  0.00     0.042 C 
BRANCH  26  28
HETATM   28  N5  UNL     1     -23.202  -6.687   9.954  1.00  0.00    -0.351 N 
HETATM   29  C5  UNL     1     -22.442  -7.697   9.882  1.00  0.00     0.192 C 
HETATM   30  N3  UNL     1     -21.730  -8.147  11.061  1.00  0.00    -0.294 N 
HETATM   31  N4  UNL     1     -22.291  -8.380   8.647  1.00  0.00    -0.063 NA
ATOM     32  H3  UNL     1     -21.465  -7.494  11.798  1.00  0.00     0.172 HD
ATOM     33  H5  UNL     1     -23.283  -6.220  10.857  1.00  0.00     0.163 HD
BRANCH  30  34
HETATM   34  C4  UNL     1     -21.443  -9.402  11.146  1.00  0.00     0.264 A 
HETATM   35  N2  UNL     1     -20.367  -9.971  10.538  1.00  0.00    -0.151 N 
HETATM   36  C3  UNL     1     -20.373 -11.282  10.836  1.00  0.00     0.708 A 
ATOM     37  H2  UNL     1     -19.679  -9.489   9.961  1.00  0.00     0.188 HD
HETATM   38  N14 UNL     1     -21.448 -11.489  11.615  1.00  0.00    -0.087 N 
HETATM   39  O5  UNL     1     -22.052 -10.358  11.775  1.00  0.00    -0.185 OA
ATOM     40  H14 UNL     1     -21.737 -12.383  12.011  1.00  0.00     0.214 HD
BRANCH  36  41
HETATM   41  N1  UNL     1     -19.418 -12.272  10.415  1.00  0.00    -0.158 N 
HETATM   42  C2  UNL     1     -18.904 -13.165  11.376  1.00  0.00     0.232 C 
HETATM   43  C1  UNL     1     -17.909 -14.214  11.018  1.00  0.00     0.118 C 
HETATM   44  O1  UNL     1     -19.284 -13.090  12.574  1.00  0.00    -0.273 OA
ATOM     45  H1  UNL     1     -19.120 -12.326   9.440  1.00  0.00     0.187 HD
ENDBRANCH  36  41
ENDBRANCH  30  34
ENDBRANCH  26  28
ENDBRANCH   1  26
TORSDOF 8
ENDMDL
