MODEL 1
REMARK VINA RESULT: -8.422464828      0.000      0.000
REMARK  9 active torsions:
REMARK  status: ('A' for Active; 'I' for Inactive)
REMARK    1  A    between atoms: C5_5  and  C6_6 
REMARK    2  A    between atoms: C7_7  and  C8_8 
REMARK    3  A    between atoms: C10_11  and  C11_12 
REMARK    4  A    between atoms: C11_12  and  O1_13 
REMARK    5  A    between atoms: N1_15  and  C12_17 
REMARK    6  A    between atoms: N3_21  and  C14_23 
REMARK    7  A    between atoms: C17_29  and  C18_30 
REMARK    8  A    between atoms: C19_34  and  C20_35 
REMARK    9  A    between atoms: C20_35  and  N5_36 
ROOT
HETATM    1  C12 UNL     1      15.713  68.676  18.280  1.00  0.00     0.152 A 
HETATM    2  N2  UNL     1      14.918  69.412  17.421  1.00  0.00    -0.322 N 
ATOM      3  H2  UNL     1      14.844  70.413  17.598  1.00  0.00     0.169 HD
HETATM    4  C13 UNL     1      14.252  68.936  16.402  1.00  0.00     0.119 A 
HETATM    5  N3  UNL     1      13.856  69.820  15.448  1.00  0.00    -0.368 N 
ATOM      6  H3  UNL     1      13.311  69.487  14.653  1.00  0.00     0.161 HD
HETATM    7  C17 UNL     1      14.142  67.649  15.894  1.00  0.00     0.106 A 
HETATM    8  C19 UNL     1      14.860  66.588  16.508  1.00  0.00     0.023 A 
HETATM    9  S1  UNL     1      15.762  67.036  17.843  1.00  0.00    -0.056 SA
ENDROOT
BRANCH   1  10
HETATM   10  N1  UNL     1      16.165  69.240  19.296  1.00  0.00    -0.320 N 
HETATM   11  C11 UNL     1      16.541  69.140  20.578  1.00  0.00     0.122 C 
ATOM     12  H1  UNL     1      16.316  70.213  19.033  1.00  0.00     0.169 HD
BRANCH  11  13
HETATM   13  C10 UNL     1      17.768  68.643  21.280  1.00  0.00     0.069 C 
HETATM   14  C2  UNL     1      18.896  69.619  21.169  1.00  0.00    -0.036 C 
HETATM   15  C1  UNL     1      18.570  70.875  20.389  1.00  0.00     0.015 C 
HETATM   16  C3  UNL     1      20.187  69.038  20.676  1.00  0.00     0.015 C 
HETATM   17  C4  UNL     1      19.168  70.122  22.592  1.00  0.00     0.018 C 
HETATM   18  C5  UNL     1      18.562  69.079  23.502  1.00  0.00     0.009 C 
HETATM   19  C9  UNL     1      17.454  68.453  22.765  1.00  0.00     0.022 C 
BRANCH  18  20
HETATM   20  C6  UNL     1      19.580  68.243  24.151  1.00  0.00    -0.024 C 
HETATM   21  C7  UNL     1      19.446  67.450  25.210  1.00  0.00     0.000 C 
BRANCH  21  22
HETATM   22  C8  UNL     1      18.180  67.273  25.946  1.00  0.00     0.249 C 
HETATM   23  F1  UNL     1      17.482  66.188  25.384  1.00  0.00    -0.251 F 
ENDBRANCH  21  22
ENDBRANCH  18  20
ENDBRANCH  11  13
BRANCH  11  24
HETATM   24  O1  UNL     1      15.647  69.591  21.432  1.00  0.00    -0.349 OA
ATOM     25  H1  UNL     1      15.097  68.889  21.761  1.00  0.00     0.219 HD
ENDBRANCH  11  24
ENDBRANCH   1  10
BRANCH   8  26
HETATM   26  C20 UNL     1      14.777  65.266  15.865  1.00  0.00     0.169 C 
BRANCH  26  27
HETATM   27  N5  UNL     1      16.022  64.608  15.759  1.00  0.00    -0.389 N 
HETATM   28  C21 UNL     1      16.315  64.522  14.294  1.00  0.00     0.122 C 
HETATM   29  C22 UNL     1      15.403  63.529  13.690  1.00  0.00     0.020 C 
HETATM   30  C23 UNL     1      16.055  62.163  13.568  1.00  0.00     0.002 C 
HETATM   31  C24 UNL     1      17.108  61.976  14.649  1.00  0.00     0.005 C 
HETATM   32  C25 UNL     1      16.534  62.247  15.996  1.00  0.00     0.044 C 
HETATM   33  C26 UNL     1      16.699  63.696  16.453  1.00  0.00     0.058 C 
ENDBRANCH  26  27
ENDBRANCH   8  26
BRANCH   5  34
HETATM   34  C14 UNL     1      14.178  71.161  15.534  1.00  0.00     0.134 C 
HETATM   35  C15 UNL     1      13.330  72.083  16.342  1.00  0.00     0.259 C 
HETATM   36  N4  UNL     1      12.355  72.131  15.260  1.00  0.00    -0.071 N 
HETATM   37  C16 UNL     1      13.474  71.885  14.333  1.00  0.00     0.259 C 
ATOM     38  H42 UNL     1      11.531  71.530  15.265  1.00  0.00     0.277 HD
ATOM     39  H41 UNL     1      11.738  72.935  15.141  1.00  0.00     0.277 HD
ENDBRANCH   5  34
BRANCH   7  40
HETATM   40  C18 UNL     1      13.262  67.365  14.712  1.00  0.00     0.422 C 
HETATM   41  F2  UNL     1      12.132  68.088  14.597  1.00  0.00    -0.166 F 
HETATM   42  F3  UNL     1      13.875  66.897  13.606  1.00  0.00    -0.166 F 
HETATM   43  F4  UNL     1      12.618  66.069  15.152  1.00  0.00    -0.166 F 
ENDBRANCH   7  40
TORSDOF 9
ENDMDL
MODEL 2
REMARK VINA RESULT: -7.566081473      3.369      9.303
REMARK  9 active torsions:
REMARK  status: ('A' for Active; 'I' for Inactive)
REMARK    1  A    between atoms: C5_5  and  C6_6 
REMARK    2  A    between atoms: C7_7  and  C8_8 
REMARK    3  A    between atoms: C10_11  and  C11_12 
REMARK    4  A    between atoms: C11_12  and  O1_13 
REMARK    5  A    between atoms: N1_15  and  C12_17 
REMARK    6  A    between atoms: N3_21  and  C14_23 
REMARK    7  A    between atoms: C17_29  and  C18_30 
REMARK    8  A    between atoms: C19_34  and  C20_35 
REMARK    9  A    between atoms: C20_35  and  N5_36 
ROOT
HETATM    1  C12 UNL     1      16.636  67.851  19.192  1.00  0.00     0.152 A 
HETATM    2  N2  UNL     1      16.788  68.012  20.557  1.00  0.00    -0.322 N 
ATOM      3  H2  UNL     1      16.687  67.180  21.138  1.00  0.00     0.169 HD
HETATM    4  C13 UNL     1      17.050  69.137  21.167  1.00  0.00     0.119 A 
HETATM    5  N3  UNL     1      17.553  69.060  22.428  1.00  0.00    -0.368 N 
ATOM      6  H3  UNL     1      17.742  69.918  22.945  1.00  0.00     0.161 HD
HETATM    7  C17 UNL     1      17.248  70.423  20.684  1.00  0.00     0.106 A 
HETATM    8  C19 UNL     1      17.199  70.662  19.285  1.00  0.00     0.023 A 
HETATM    9  S1  UNL     1      16.861  69.312  18.357  1.00  0.00    -0.056 SA
ENDROOT
BRANCH   1  10
HETATM   10  N1  UNL     1      16.239  66.748  18.768  1.00  0.00    -0.320 N 
HETATM   11  C11 UNL     1      15.329  66.063  18.062  1.00  0.00     0.122 C 
ATOM     12  H1  UNL     1      16.906  66.059  19.111  1.00  0.00     0.169 HD
BRANCH  11  13
HETATM   13  C10 UNL     1      15.098  65.812  16.603  1.00  0.00     0.069 C 
HETATM   14  C2  UNL     1      14.172  66.828  16.013  1.00  0.00    -0.036 C 
HETATM   15  C1  UNL     1      13.674  67.872  16.990  1.00  0.00     0.015 C 
HETATM   16  C3  UNL     1      13.015  66.258  15.248  1.00  0.00     0.015 C 
HETATM   17  C4  UNL     1      15.003  67.627  15.001  1.00  0.00     0.018 C 
HETATM   18  C5  UNL     1      16.189  66.746  14.680  1.00  0.00     0.009 C 
HETATM   19  C9  UNL     1      16.432  65.902  15.860  1.00  0.00     0.022 C 
BRANCH  18  20
HETATM   20  C6  UNL     1      16.090  66.138  13.348  1.00  0.00    -0.024 C 
HETATM   21  C7  UNL     1      16.164  64.852  13.020  1.00  0.00     0.000 C 
BRANCH  21  22
HETATM   22  C8  UNL     1      16.370  63.766  13.997  1.00  0.00     0.249 C 
HETATM   23  F1  UNL     1      15.116  63.228  14.341  1.00  0.00    -0.251 F 
ENDBRANCH  21  22
ENDBRANCH  18  20
ENDBRANCH  11  13
BRANCH  11  24
HETATM   24  O1  UNL     1      14.431  65.450  18.804  1.00  0.00    -0.349 OA
ATOM     25  H1  UNL     1      13.898  66.071  19.287  1.00  0.00     0.219 HD
ENDBRANCH  11  24
ENDBRANCH   1  10
BRANCH   8  26
HETATM   26  C20 UNL     1      17.512  72.027  18.829  1.00  0.00     0.169 C 
BRANCH  26  27
HETATM   27  N5  UNL     1      16.403  72.711  18.284  1.00  0.00    -0.389 N 
HETATM   28  C21 UNL     1      16.913  74.057  17.876  1.00  0.00     0.122 C 
HETATM   29  C22 UNL     1      17.180  74.848  19.095  1.00  0.00     0.020 C 
HETATM   30  C23 UNL     1      16.015  75.758  19.446  1.00  0.00     0.002 C 
HETATM   31  C24 UNL     1      14.707  75.166  18.945  1.00  0.00     0.005 C 
HETATM   32  C25 UNL     1      14.541  73.769  19.430  1.00  0.00     0.044 C 
HETATM   33  C26 UNL     1      15.083  72.715  18.464  1.00  0.00     0.058 C 
ENDBRANCH  26  27
ENDBRANCH   8  26
BRANCH   5  34
HETATM   34  C14 UNL     1      17.812  67.840  23.025  1.00  0.00     0.134 C 
HETATM   35  C15 UNL     1      17.740  67.704  24.507  1.00  0.00     0.259 C 
HETATM   36  N4  UNL     1      19.055  68.321  24.626  1.00  0.00    -0.071 N 
HETATM   37  C16 UNL     1      19.356  67.773  23.291  1.00  0.00     0.259 C 
ATOM     38  H42 UNL     1      19.155  69.317  24.823  1.00  0.00     0.277 HD
ATOM     39  H41 UNL     1      19.659  68.128  25.425  1.00  0.00     0.277 HD
ENDBRANCH   5  34
BRANCH   7  40
HETATM   40  C18 UNL     1      17.501  71.565  21.625  1.00  0.00     0.422 C 
HETATM   41  F2  UNL     1      16.574  72.540  21.673  1.00  0.00    -0.166 F 
HETATM   42  F3  UNL     1      18.244  71.290  22.717  1.00  0.00    -0.166 F 
HETATM   43  F4  UNL     1      18.550  72.332  20.853  1.00  0.00    -0.166 F 
ENDBRANCH   7  40
TORSDOF 9
ENDMDL
MODEL 3
REMARK VINA RESULT: -7.378014402      3.624      9.106
REMARK  9 active torsions:
REMARK  status: ('A' for Active; 'I' for Inactive)
REMARK    1  A    between atoms: C5_5  and  C6_6 
REMARK    2  A    between atoms: C7_7  and  C8_8 
REMARK    3  A    between atoms: C10_11  and  C11_12 
REMARK    4  A    between atoms: C11_12  and  O1_13 
REMARK    5  A    between atoms: N1_15  and  C12_17 
REMARK    6  A    between atoms: N3_21  and  C14_23 
REMARK    7  A    between atoms: C17_29  and  C18_30 
REMARK    8  A    between atoms: C19_34  and  C20_35 
REMARK    9  A    between atoms: C20_35  and  N5_36 
ROOT
HETATM    1  C12 UNL     1      16.533  67.825  19.144  1.00  0.00     0.152 A 
HETATM    2  N2  UNL     1      16.931  68.098  20.439  1.00  0.00    -0.322 N 
ATOM      3  H2  UNL     1      16.934  67.320  21.099  1.00  0.00     0.169 HD
HETATM    4  C13 UNL     1      17.304  69.265  20.893  1.00  0.00     0.119 A 
HETATM    5  N3  UNL     1      18.027  69.285  22.044  1.00  0.00    -0.368 N 
ATOM      6  H3  UNL     1      18.311  70.180  22.441  1.00  0.00     0.161 HD
HETATM    7  C17 UNL     1      17.415  70.502  20.273  1.00  0.00     0.106 A 
HETATM    8  C19 UNL     1      17.113  70.622  18.890  1.00  0.00     0.023 A 
HETATM    9  S1  UNL     1      16.608  69.206  18.159  1.00  0.00    -0.056 SA
ENDROOT
BRANCH   1  10
HETATM   10  N1  UNL     1      16.061  66.699  18.895  1.00  0.00    -0.320 N 
HETATM   11  C11 UNL     1      15.397  65.908  18.041  1.00  0.00     0.122 C 
ATOM     12  H1  UNL     1      16.278  66.119  19.705  1.00  0.00     0.169 HD
BRANCH  11  13
HETATM   13  C10 UNL     1      15.767  65.150  16.802  1.00  0.00     0.069 C 
HETATM   14  C2  UNL     1      15.419  65.917  15.566  1.00  0.00    -0.036 C 
HETATM   15  C1  UNL     1      14.781  67.266  15.819  1.00  0.00     0.015 C 
HETATM   16  C3  UNL     1      14.610  65.156  14.558  1.00  0.00     0.015 C 
HETATM   17  C4  UNL     1      16.750  66.253  14.882  1.00  0.00     0.018 C 
HETATM   18  C5  UNL     1      17.745  65.267  15.449  1.00  0.00     0.009 C 
HETATM   19  C9  UNL     1      17.277  64.905  16.795  1.00  0.00     0.022 C 
BRANCH  18  20
HETATM   20  C6  UNL     1      18.102  64.217  14.487  1.00  0.00    -0.024 C 
HETATM   21  C7  UNL     1      19.269  64.010  13.885  1.00  0.00     0.000 C 
BRANCH  21  22
HETATM   22  C8  UNL     1      20.462  64.851  14.098  1.00  0.00     0.249 C 
HETATM   23  F1  UNL     1      21.494  64.044  14.612  1.00  0.00    -0.251 F 
ENDBRANCH  21  22
ENDBRANCH  18  20
ENDBRANCH  11  13
BRANCH  11  24
HETATM   24  O1  UNL     1      14.131  65.733  18.352  1.00  0.00    -0.349 OA
ATOM     25  H1  UNL     1      13.953  65.996  19.247  1.00  0.00     0.219 HD
ENDBRANCH  11  24
ENDBRANCH   1  10
BRANCH   8  26
HETATM   26  C20 UNL     1      17.342  71.938  18.268  1.00  0.00     0.169 C 
BRANCH  26  27
HETATM   27  N5  UNL     1      16.153  72.619  17.927  1.00  0.00    -0.389 N 
HETATM   28  C21 UNL     1      16.572  74.002  17.536  1.00  0.00     0.122 C 
HETATM   29  C22 UNL     1      16.990  74.728  18.753  1.00  0.00     0.020 C 
HETATM   30  C23 UNL     1      15.867  75.580  19.318  1.00  0.00     0.002 C 
HETATM   31  C24 UNL     1      14.515  74.979  18.968  1.00  0.00     0.005 C 
HETATM   32  C25 UNL     1      14.448  73.551  19.383  1.00  0.00     0.044 C 
HETATM   33  C26 UNL     1      14.872  72.573  18.287  1.00  0.00     0.058 C 
ENDBRANCH  26  27
ENDBRANCH   8  26
BRANCH   5  34
HETATM   34  C14 UNL     1      18.386  68.115  22.687  1.00  0.00     0.134 C 
HETATM   35  C15 UNL     1      18.536  68.093  24.169  1.00  0.00     0.259 C 
HETATM   36  N4  UNL     1      19.846  68.719  24.044  1.00  0.00    -0.071 N 
HETATM   37  C16 UNL     1      19.954  68.070  22.726  1.00  0.00     0.259 C 
ATOM     38  H42 UNL     1      19.962  69.727  24.147  1.00  0.00     0.277 HD
ATOM     39  H41 UNL     1      20.564  68.588  24.757  1.00  0.00     0.277 HD
ENDBRANCH   5  34
BRANCH   7  40
HETATM   40  C18 UNL     1      17.839  71.714  21.050  1.00  0.00     0.422 C 
HETATM   41  F2  UNL     1      19.129  72.085  20.957  1.00  0.00    -0.166 F 
HETATM   42  F3  UNL     1      16.887  72.641  21.281  1.00  0.00    -0.166 F 
HETATM   43  F4  UNL     1      17.903  71.137  22.447  1.00  0.00    -0.166 F 
ENDBRANCH   7  40
TORSDOF 9
ENDMDL
MODEL 4
REMARK VINA RESULT: -7.314890011      3.483      8.444
REMARK  9 active torsions:
REMARK  status: ('A' for Active; 'I' for Inactive)
REMARK    1  A    between atoms: C5_5  and  C6_6 
REMARK    2  A    between atoms: C7_7  and  C8_8 
REMARK    3  A    between atoms: C10_11  and  C11_12 
REMARK    4  A    between atoms: C11_12  and  O1_13 
REMARK    5  A    between atoms: N1_15  and  C12_17 
REMARK    6  A    between atoms: N3_21  and  C14_23 
REMARK    7  A    between atoms: C17_29  and  C18_30 
REMARK    8  A    between atoms: C19_34  and  C20_35 
REMARK    9  A    between atoms: C20_35  and  N5_36 
ROOT
HETATM    1  C12 UNL     1      16.782  68.720  18.104  1.00  0.00     0.152 A 
HETATM    2  N2  UNL     1      16.404  70.046  18.012  1.00  0.00    -0.322 N 
ATOM      3  H2  UNL     1      16.162  70.398  17.086  1.00  0.00     0.169 HD
HETATM    4  C13 UNL     1      16.329  70.889  19.008  1.00  0.00     0.119 A 
HETATM    5  N3  UNL     1      15.578  72.007  18.823  1.00  0.00    -0.368 N 
ATOM      6  H3  UNL     1      15.520  72.700  19.569  1.00  0.00     0.161 HD
HETATM    7  C17 UNL     1      16.578  70.736  20.365  1.00  0.00     0.106 A 
HETATM    8  C19 UNL     1      16.972  69.467  20.867  1.00  0.00     0.023 A 
HETATM    9  S1  UNL     1      17.124  68.273  19.707  1.00  0.00    -0.056 SA
ENDROOT
BRANCH   1  10
HETATM   10  N1  UNL     1      16.953  68.079  17.050  1.00  0.00    -0.320 N 
HETATM   11  C11 UNL     1      17.294  66.923  16.465  1.00  0.00     0.122 C 
ATOM     12  H1  UNL     1      16.737  68.724  16.291  1.00  0.00     0.169 HD
BRANCH  11  13
HETATM   13  C10 UNL     1      16.588  65.627  16.200  1.00  0.00     0.069 C 
HETATM   14  C2  UNL     1      16.003  65.593  14.824  1.00  0.00    -0.036 C 
HETATM   15  C1  UNL     1      16.242  66.844  14.005  1.00  0.00     0.015 C 
HETATM   16  C3  UNL     1      14.553  65.218  14.763  1.00  0.00     0.015 C 
HETATM   17  C4  UNL     1      16.761  64.498  14.064  1.00  0.00     0.018 C 
HETATM   18  C5  UNL     1      17.373  63.625  15.136  1.00  0.00     0.009 C 
HETATM   19  C9  UNL     1      17.588  64.477  16.316  1.00  0.00     0.022 C 
BRANCH  18  20
HETATM   20  C6  UNL     1      16.680  62.339  15.274  1.00  0.00    -0.024 C 
HETATM   21  C7  UNL     1      16.805  61.248  14.524  1.00  0.00     0.000 C 
BRANCH  21  22
HETATM   22  C8  UNL     1      17.713  61.150  13.365  1.00  0.00     0.249 C 
HETATM   23  F1  UNL     1      18.670  60.153  13.628  1.00  0.00    -0.251 F 
ENDBRANCH  21  22
ENDBRANCH  18  20
ENDBRANCH  11  13
BRANCH  11  24
HETATM   24  O1  UNL     1      18.523  66.904  15.995  1.00  0.00    -0.349 OA
ATOM     25  H1  UNL     1      18.836  67.782  15.807  1.00  0.00     0.219 HD
ENDBRANCH  11  24
ENDBRANCH   1  10
BRANCH   8  26
HETATM   26  C20 UNL     1      17.128  69.346  22.327  1.00  0.00     0.169 C 
BRANCH  26  27
HETATM   27  N5  UNL     1      18.106  68.405  22.716  1.00  0.00    -0.389 N 
HETATM   28  C21 UNL     1      17.359  67.284  23.368  1.00  0.00     0.122 C 
HETATM   29  C22 UNL     1      16.860  67.751  24.678  1.00  0.00     0.020 C 
HETATM   30  C23 UNL     1      17.790  67.356  25.811  1.00  0.00     0.002 C 
HETATM   31  C24 UNL     1      19.220  67.234  25.310  1.00  0.00     0.005 C 
HETATM   32  C25 UNL     1      19.637  68.474  24.599  1.00  0.00     0.044 C 
HETATM   33  C26 UNL     1      19.383  68.433  23.092  1.00  0.00     0.058 C 
ENDBRANCH  26  27
ENDBRANCH   8  26
BRANCH   5  34
HETATM   34  C14 UNL     1      14.892  72.225  17.643  1.00  0.00     0.134 C 
HETATM   35  C15 UNL     1      15.493  73.072  16.575  1.00  0.00     0.259 C 
HETATM   36  N4  UNL     1      15.107  74.270  17.310  1.00  0.00    -0.071 N 
HETATM   37  C16 UNL     1      13.986  73.487  17.860  1.00  0.00     0.259 C 
ATOM     38  H42 UNL     1      15.767  74.749  17.922  1.00  0.00     0.277 HD
ATOM     39  H41 UNL     1      14.947  75.155  16.830  1.00  0.00     0.277 HD
ENDBRANCH   5  34
BRANCH   7  40
HETATM   40  C18 UNL     1      16.449  71.900  21.304  1.00  0.00     0.422 C 
HETATM   41  F2  UNL     1      15.214  72.200  21.747  1.00  0.00    -0.166 F 
HETATM   42  F3  UNL     1      17.524  72.174  22.071  1.00  0.00    -0.166 F 
HETATM   43  F4  UNL     1      16.592  73.053  20.335  1.00  0.00    -0.166 F 
ENDBRANCH   7  40
TORSDOF 9
ENDMDL
MODEL 5
REMARK VINA RESULT: -7.272373993      3.007      8.452
REMARK  9 active torsions:
REMARK  status: ('A' for Active; 'I' for Inactive)
REMARK    1  A    between atoms: C5_5  and  C6_6 
REMARK    2  A    between atoms: C7_7  and  C8_8 
REMARK    3  A    between atoms: C10_11  and  C11_12 
REMARK    4  A    between atoms: C11_12  and  O1_13 
REMARK    5  A    between atoms: N1_15  and  C12_17 
REMARK    6  A    between atoms: N3_21  and  C14_23 
REMARK    7  A    between atoms: C17_29  and  C18_30 
REMARK    8  A    between atoms: C19_34  and  C20_35 
REMARK    9  A    between atoms: C20_35  and  N5_36 
ROOT
HETATM    1  C12 UNL     1      17.008  68.995  17.878  1.00  0.00     0.152 A 
HETATM    2  N2  UNL     1      16.573  70.306  17.842  1.00  0.00    -0.322 N 
ATOM      3  H2  UNL     1      16.367  70.703  16.925  1.00  0.00     0.169 HD
HETATM    4  C13 UNL     1      16.404  71.083  18.879  1.00  0.00     0.119 A 
HETATM    5  N3  UNL     1      15.613  72.176  18.716  1.00  0.00    -0.368 N 
ATOM      6  H3  UNL     1      15.481  72.819  19.496  1.00  0.00     0.161 HD
HETATM    7  C17 UNL     1      16.584  70.859  20.237  1.00  0.00     0.106 A 
HETATM    8  C19 UNL     1      17.009  69.580  20.686  1.00  0.00     0.023 A 
HETATM    9  S1  UNL     1      17.281  68.466  19.469  1.00  0.00    -0.056 SA
ENDROOT
BRANCH   1  10
HETATM   10  N1  UNL     1      17.267  68.427  16.800  1.00  0.00    -0.320 N 
HETATM   11  C11 UNL     1      17.166  67.327  16.041  1.00  0.00     0.122 C 
ATOM     12  H1  UNL     1      17.792  69.103  16.246  1.00  0.00     0.169 HD
BRANCH  11  13
HETATM   13  C10 UNL     1      16.092  66.739  15.177  1.00  0.00     0.069 C 
HETATM   14  C2  UNL     1      15.335  65.669  15.897  1.00  0.00    -0.036 C 
HETATM   15  C1  UNL     1      15.800  65.410  17.315  1.00  0.00     0.015 C 
HETATM   16  C3  UNL     1      15.220  64.369  15.158  1.00  0.00     0.015 C 
HETATM   17  C4  UNL     1      13.904  66.195  16.062  1.00  0.00     0.018 C 
HETATM   18  C5  UNL     1      13.760  67.281  15.021  1.00  0.00     0.009 C 
HETATM   19  C9  UNL     1      15.101  67.837  14.788  1.00  0.00     0.022 C 
BRANCH  18  20
HETATM   20  C6  UNL     1      12.930  66.861  13.886  1.00  0.00    -0.024 C 
HETATM   21  C7  UNL     1      11.702  67.259  13.568  1.00  0.00     0.000 C 
BRANCH  21  22
HETATM   22  C8  UNL     1      10.930  68.243  14.351  1.00  0.00     0.249 C 
HETATM   23  F1  UNL     1      11.448  69.526  14.094  1.00  0.00    -0.251 F 
ENDBRANCH  21  22
ENDBRANCH  18  20
ENDBRANCH  11  13
BRANCH  11  24
HETATM   24  O1  UNL     1      18.254  66.588  16.027  1.00  0.00    -0.349 OA
ATOM     25  H1  UNL     1      18.209  65.892  16.673  1.00  0.00     0.219 HD
ENDBRANCH  11  24
ENDBRANCH   1  10
BRANCH   8  26
HETATM   26  C20 UNL     1      17.090  69.377  22.143  1.00  0.00     0.169 C 
BRANCH  26  27
HETATM   27  N5  UNL     1      18.085  68.455  22.532  1.00  0.00    -0.389 N 
HETATM   28  C21 UNL     1      17.356  67.303  23.151  1.00  0.00     0.122 C 
HETATM   29  C22 UNL     1      16.823  67.734  24.460  1.00  0.00     0.020 C 
HETATM   30  C23 UNL     1      17.743  67.342  25.603  1.00  0.00     0.002 C 
HETATM   31  C24 UNL     1      19.184  67.266  25.125  1.00  0.00     0.005 C 
HETATM   32  C25 UNL     1      19.581  68.529  24.444  1.00  0.00     0.044 C 
HETATM   33  C26 UNL     1      19.354  68.509  22.932  1.00  0.00     0.058 C 
ENDBRANCH  26  27
ENDBRANCH   8  26
BRANCH   5  34
HETATM   34  C14 UNL     1      14.983  72.435  17.513  1.00  0.00     0.134 C 
HETATM   35  C15 UNL     1      15.536  73.464  16.586  1.00  0.00     0.259 C 
HETATM   36  N4  UNL     1      14.946  74.515  17.405  1.00  0.00    -0.071 N 
HETATM   37  C16 UNL     1      13.905  73.543  17.782  1.00  0.00     0.259 C 
ATOM     38  H42 UNL     1      15.495  75.003  18.114  1.00  0.00     0.277 HD
ATOM     39  H41 UNL     1      14.703  75.421  17.005  1.00  0.00     0.277 HD
ENDBRANCH   5  34
BRANCH   7  40
HETATM   40  C18 UNL     1      16.349  71.957  21.232  1.00  0.00     0.422 C 
HETATM   41  F2  UNL     1      16.861  73.169  20.945  1.00  0.00    -0.166 F 
HETATM   42  F3  UNL     1      15.230  71.860  21.980  1.00  0.00    -0.166 F 
HETATM   43  F4  UNL     1      17.344  71.576  22.305  1.00  0.00    -0.166 F 
ENDBRANCH   7  40
TORSDOF 9
ENDMDL
