MODEL 1
REMARK VINA RESULT: -7.497782028      0.000      0.000
REMARK  8 active torsions:
REMARK  status: ('A' for Active; 'I' for Inactive)
REMARK    1  A    between atoms: C2_2  and  C3_3 
REMARK       I    between atoms: N1_5  and  C5_6 
REMARK    2  A    between atoms: C5_6  and  C6_8 
REMARK    3  A    between atoms: C10_12  and  O2_13 
REMARK    4  A    between atoms: N2_15  and  C12_16 
REMARK    5  A    between atoms: C15_20  and  C16_21 
REMARK    6  A    between atoms: C15_20  and  C17_28 
REMARK    7  A    between atoms: C16_21  and  O3_22 
REMARK    8  A    between atoms: N3_24  and  O4_26 
ROOT
HETATM    1  C12 UNL     1       6.437  30.272  19.465  1.00  0.00     0.229 C 
HETATM    2  C13 UNL     1       5.246  31.146  19.343  1.00  0.00     0.053 C 
HETATM    3  C14 UNL     1       5.639  32.312  20.269  1.00  0.00     0.081 C 
HETATM    4 BR1  UNL     1       5.872  31.729  22.075  1.00  0.00    -0.089 Br
HETATM    5  C15 UNL     1       7.011  32.630  19.621  1.00  0.00     0.069 C 
HETATM    6  C23 UNL     1       7.600  31.263  19.594  1.00  0.00     0.060 C 
ENDROOT
BRANCH   1   7
HETATM    7  N2  UNL     1       6.738  29.410  18.375  1.00  0.00     0.129 N 
HETATM    8  C3  UNL     1       5.652  28.982  17.557  1.00  0.00     0.244 C 
HETATM    9  C4  UNL     1       4.456  28.523  18.355  1.00  0.00     0.161 C 
HETATM   10  N1  UNL     1       4.915  27.377  19.137  1.00  0.00    -0.345 N 
HETATM   11  C5  UNL     1       4.075  26.244  19.281  1.00  0.00     0.224 C 
HETATM   12  C9  UNL     1       6.202  27.437  19.736  1.00  0.00     0.190 C 
HETATM   13  O1  UNL     1       2.940  26.270  18.711  1.00  0.00    -0.273 OA
HETATM   14  C10 UNL     1       7.262  28.169  18.977  1.00  0.00     0.377 C 
BRANCH   8  15
HETATM   15  C2  UNL     1       5.321  29.908  16.425  1.00  0.00     0.033 C 
HETATM   16  C1  UNL     1       5.387  29.257  15.065  1.00  0.00     0.007 C 
ENDBRANCH   8  15
BRANCH  11  17
HETATM   17  C6  UNL     1       4.396  25.026  20.038  1.00  0.00     0.078 A 
HETATM   18  C7  UNL     1       3.278  24.149  20.547  1.00  0.00     0.015 A 
HETATM   19  C8  UNL     1       3.949  25.059  21.506  1.00  0.00     0.015 A 
ENDBRANCH  11  17
BRANCH  14  20
HETATM   20  O2  UNL     1       7.735  27.421  17.895  1.00  0.00    -0.361 OA
HETATM   21  C11 UNL     1       9.133  27.520  17.854  1.00  0.00     0.204 C 
ENDBRANCH  14  20
ENDBRANCH   1   7
BRANCH   5  22
HETATM   22  C16 UNL     1       6.715  33.075  18.230  1.00  0.00     0.150 C 
HETATM   23  N3  UNL     1       5.709  33.893  18.020  1.00  0.00    -0.250 N 
ATOM     24  H3  UNL     1       5.159  34.200  18.822  1.00  0.00     0.196 HD
BRANCH  22  25
HETATM   25  O3  UNL     1       7.421  32.696  17.109  1.00  0.00    -0.347 OA
ATOM     26  H3  UNL     1       8.336  32.892  16.947  1.00  0.00     0.219 HD
ENDBRANCH  22  25
BRANCH  23  27
HETATM   27  O4  UNL     1       5.368  34.350  16.794  1.00  0.00    -0.288 OA
ATOM     28  H4  UNL     1       4.475  34.558  16.545  1.00  0.00     0.244 HD
ENDBRANCH  23  27
ENDBRANCH   5  22
BRANCH   5  29
HETATM   29  C17 UNL     1       7.725  33.644  20.389  1.00  0.00    -0.034 A 
HETATM   30  C18 UNL     1       7.109  34.486  21.271  1.00  0.00     0.050 A 
HETATM   31  C19 UNL     1       7.856  35.442  21.940  1.00  0.00     0.119 A 
HETATM   32  F1  UNL     1       7.241  36.294  22.830  1.00  0.00    -0.206 F 
HETATM   33  C20 UNL     1       9.210  35.593  21.760  1.00  0.00     0.084 A 
HETATM   34  C21 UNL     1       9.827  34.747  20.874  1.00  0.00     0.119 A 
HETATM   35  F2  UNL     1      11.155  34.856  20.664  1.00  0.00    -0.206 F 
HETATM   36  C22 UNL     1       9.084  33.787  20.201  1.00  0.00     0.050 A 
ENDBRANCH   5  29
TORSDOF 8
ENDMDL
MODEL 2
REMARK VINA RESULT: -7.437979562      4.354      8.198
REMARK  8 active torsions:
REMARK  status: ('A' for Active; 'I' for Inactive)
REMARK    1  A    between atoms: C2_2  and  C3_3 
REMARK       I    between atoms: N1_5  and  C5_6 
REMARK    2  A    between atoms: C5_6  and  C6_8 
REMARK    3  A    between atoms: C10_12  and  O2_13 
REMARK    4  A    between atoms: N2_15  and  C12_16 
REMARK    5  A    between atoms: C15_20  and  C16_21 
REMARK    6  A    between atoms: C15_20  and  C17_28 
REMARK    7  A    between atoms: C16_21  and  O3_22 
REMARK    8  A    between atoms: N3_24  and  O4_26 
ROOT
HETATM    1  C12 UNL     1       5.144  29.689  17.390  1.00  0.00     0.229 C 
HETATM    2  C13 UNL     1       3.839  29.989  18.025  1.00  0.00     0.053 C 
HETATM    3  C14 UNL     1       2.912  30.021  16.796  1.00  0.00     0.081 C 
HETATM    4 BR1  UNL     1       3.408  31.407  15.576  1.00  0.00    -0.089 Br
HETATM    5  C15 UNL     1       3.291  28.632  16.222  1.00  0.00     0.069 C 
HETATM    6  C23 UNL     1       4.775  28.750  16.235  1.00  0.00     0.060 C 
ENDROOT
BRANCH   1   7
HETATM    7  N2  UNL     1       6.124  29.023  18.176  1.00  0.00     0.129 N 
HETATM    8  C3  UNL     1       6.075  29.215  19.587  1.00  0.00     0.244 C 
HETATM    9  C4  UNL     1       5.889  30.659  19.981  1.00  0.00     0.161 C 
HETATM   10  N1  UNL     1       7.061  31.366  19.467  1.00  0.00    -0.345 N 
HETATM   11  C5  UNL     1       7.682  32.364  20.259  1.00  0.00     0.224 C 
HETATM   12  C9  UNL     1       7.544  31.027  18.175  1.00  0.00     0.190 C 
HETATM   13  O1  UNL     1       7.189  32.605  21.405  1.00  0.00    -0.273 OA
HETATM   14  C10 UNL     1       7.423  29.593  17.768  1.00  0.00     0.377 C 
BRANCH   8  15
HETATM   15  C2  UNL     1       5.182  28.256  20.317  1.00  0.00     0.033 C 
HETATM   16  C1  UNL     1       5.608  26.814  20.199  1.00  0.00     0.007 C 
ENDBRANCH   8  15
BRANCH  11  17
HETATM   17  C6  UNL     1       8.858  33.159  19.876  1.00  0.00     0.078 A 
HETATM   18  C7  UNL     1       9.318  34.286  20.768  1.00  0.00     0.015 A 
HETATM   19  C8  UNL     1       8.548  34.626  19.547  1.00  0.00     0.015 A 
ENDBRANCH  11  17
BRANCH  14  20
HETATM   20  O2  UNL     1       8.377  28.793  18.400  1.00  0.00    -0.361 OA
HETATM   21  C11 UNL     1       8.731  27.745  17.538  1.00  0.00     0.204 C 
ENDBRANCH  14  20
ENDBRANCH   1   7
BRANCH   5  22
HETATM   22  C16 UNL     1       2.860  27.633  17.241  1.00  0.00     0.150 C 
HETATM   23  N3  UNL     1       3.461  26.466  17.286  1.00  0.00    -0.250 N 
ATOM     24  H3  UNL     1       4.207  26.278  16.618  1.00  0.00     0.196 HD
BRANCH  22  25
HETATM   25  O3  UNL     1       1.860  27.827  18.168  1.00  0.00    -0.347 OA
ATOM     26  H3  UNL     1       1.996  27.974  19.096  1.00  0.00     0.219 HD
ENDBRANCH  22  25
BRANCH  23  27
HETATM   27  O4  UNL     1       3.137  25.500  18.176  1.00  0.00    -0.288 OA
ATOM     28  H4  UNL     1       3.730  24.801  18.425  1.00  0.00     0.244 HD
ENDBRANCH  23  27
ENDBRANCH   5  22
BRANCH   5  29
HETATM   29  C17 UNL     1       2.655  28.414  14.928  1.00  0.00    -0.034 A 
HETATM   30  C18 UNL     1       1.316  28.584  14.714  1.00  0.00     0.050 A 
HETATM   31  C19 UNL     1       0.785  28.327  13.461  1.00  0.00     0.119 A 
HETATM   32  F1  UNL     1      -0.563  28.496  13.239  1.00  0.00    -0.206 F 
HETATM   33  C20 UNL     1       1.548  27.902  12.398  1.00  0.00     0.084 A 
HETATM   34  C21 UNL     1       2.892  27.732  12.614  1.00  0.00     0.119 A 
HETATM   35  F2  UNL     1       3.680  27.316  11.603  1.00  0.00    -0.206 F 
HETATM   36  C22 UNL     1       3.429  27.987  13.868  1.00  0.00     0.050 A 
ENDBRANCH   5  29
TORSDOF 8
ENDMDL
MODEL 3
REMARK VINA RESULT: -7.373756117      0.128      1.421
REMARK  8 active torsions:
REMARK  status: ('A' for Active; 'I' for Inactive)
REMARK    1  A    between atoms: C2_2  and  C3_3 
REMARK       I    between atoms: N1_5  and  C5_6 
REMARK    2  A    between atoms: C5_6  and  C6_8 
REMARK    3  A    between atoms: C10_12  and  O2_13 
REMARK    4  A    between atoms: N2_15  and  C12_16 
REMARK    5  A    between atoms: C15_20  and  C16_21 
REMARK    6  A    between atoms: C15_20  and  C17_28 
REMARK    7  A    between atoms: C16_21  and  O3_22 
REMARK    8  A    between atoms: N3_24  and  O4_26 
ROOT
HETATM    1  C12 UNL     1       6.479  30.334  19.447  1.00  0.00     0.229 C 
HETATM    2  C13 UNL     1       5.281  31.208  19.402  1.00  0.00     0.053 C 
HETATM    3  C14 UNL     1       5.725  32.367  20.313  1.00  0.00     0.081 C 
HETATM    4 BR1  UNL     1       6.063  31.769  22.098  1.00  0.00    -0.089 Br
HETATM    5  C15 UNL     1       7.057  32.692  19.590  1.00  0.00     0.069 C 
HETATM    6  C23 UNL     1       7.646  31.327  19.517  1.00  0.00     0.060 C 
ENDROOT
BRANCH   1   7
HETATM    7  N2  UNL     1       6.717  29.482  18.335  1.00  0.00     0.129 N 
HETATM    8  C3  UNL     1       5.588  29.067  17.572  1.00  0.00     0.244 C 
HETATM    9  C4  UNL     1       4.433  28.606  18.426  1.00  0.00     0.161 C 
HETATM   10  N1  UNL     1       4.927  27.450  19.172  1.00  0.00    -0.345 N 
HETATM   11  C5  UNL     1       4.089  26.320  19.349  1.00  0.00     0.224 C 
HETATM   12  C9  UNL     1       6.243  27.498  19.704  1.00  0.00     0.190 C 
HETATM   13  O1  UNL     1       2.926  26.358  18.840  1.00  0.00    -0.273 OA
HETATM   14  C10 UNL     1       7.266  28.232  18.897  1.00  0.00     0.377 C 
BRANCH   8  15
HETATM   15  C2  UNL     1       5.203  30.006  16.467  1.00  0.00     0.033 C 
HETATM   16  C1  UNL     1       5.261  29.387  15.092  1.00  0.00     0.007 C 
ENDBRANCH   8  15
BRANCH  11  17
HETATM   17  C6  UNL     1       4.442  25.093  20.076  1.00  0.00     0.078 A 
HETATM   18  C7  UNL     1       3.348  24.206  20.618  1.00  0.00     0.015 A 
HETATM   19  C8  UNL     1       4.055  25.106  21.562  1.00  0.00     0.015 A 
ENDBRANCH  11  17
BRANCH  14  20
HETATM   20  O2  UNL     1       7.677  27.492  17.785  1.00  0.00    -0.361 OA
HETATM   21  C11 UNL     1       9.069  27.604  17.658  1.00  0.00     0.204 C 
ENDBRANCH  14  20
ENDBRANCH   1   7
BRANCH   5  22
HETATM   22  C16 UNL     1       6.682  33.148  18.221  1.00  0.00     0.150 C 
HETATM   23  N3  UNL     1       5.646  33.942  18.074  1.00  0.00    -0.250 N 
ATOM     24  H3  UNL     1       5.128  34.223  18.906  1.00  0.00     0.196 HD
BRANCH  22  25
HETATM   25  O3  UNL     1       7.341  32.803  17.062  1.00  0.00    -0.347 OA
ATOM     26  H3  UNL     1       8.276  32.886  16.919  1.00  0.00     0.219 HD
ENDBRANCH  22  25
BRANCH  23  27
HETATM   27  O4  UNL     1       5.232  34.405  16.872  1.00  0.00    -0.288 OA
ATOM     28  H4  UNL     1       4.391  34.826  16.738  1.00  0.00     0.244 HD
ENDBRANCH  23  27
ENDBRANCH   5  22
BRANCH   5  29
HETATM   29  C17 UNL     1       7.813  33.701  20.323  1.00  0.00    -0.034 A 
HETATM   30  C18 UNL     1       9.159  33.886  20.169  1.00  0.00     0.050 A 
HETATM   31  C19 UNL     1       9.808  34.848  20.926  1.00  0.00     0.119 A 
HETATM   32  F1  UNL     1      11.163  35.040  20.776  1.00  0.00    -0.206 F 
HETATM   33  C20 UNL     1       9.159  35.643  21.842  1.00  0.00     0.084 A 
HETATM   34  C21 UNL     1       7.809  35.455  21.995  1.00  0.00     0.119 A 
HETATM   35  F2  UNL     1       7.129  36.210  22.881  1.00  0.00    -0.206 F 
HETATM   36  C22 UNL     1       7.153  34.493  21.240  1.00  0.00     0.050 A 
ENDBRANCH   5  29
TORSDOF 8
ENDMDL
MODEL 4
REMARK VINA RESULT: -7.372527258      4.331      8.316
REMARK  8 active torsions:
REMARK  status: ('A' for Active; 'I' for Inactive)
REMARK    1  A    between atoms: C2_2  and  C3_3 
REMARK       I    between atoms: N1_5  and  C5_6 
REMARK    2  A    between atoms: C5_6  and  C6_8 
REMARK    3  A    between atoms: C10_12  and  O2_13 
REMARK    4  A    between atoms: N2_15  and  C12_16 
REMARK    5  A    between atoms: C15_20  and  C16_21 
REMARK    6  A    between atoms: C15_20  and  C17_28 
REMARK    7  A    between atoms: C16_21  and  O3_22 
REMARK    8  A    between atoms: N3_24  and  O4_26 
ROOT
HETATM    1  C12 UNL     1       5.151  29.643  17.496  1.00  0.00     0.229 C 
HETATM    2  C13 UNL     1       3.812  29.955  18.051  1.00  0.00     0.053 C 
HETATM    3  C14 UNL     1       2.954  29.955  16.773  1.00  0.00     0.081 C 
HETATM    4 BR1  UNL     1       3.515  31.312  15.547  1.00  0.00    -0.089 Br
HETATM    5  C15 UNL     1       3.366  28.553  16.254  1.00  0.00     0.069 C 
HETATM    6  C23 UNL     1       4.847  28.675  16.345  1.00  0.00     0.060 C 
ENDROOT
BRANCH   1   7
HETATM    7  N2  UNL     1       6.086  28.999  18.351  1.00  0.00     0.129 N 
HETATM    8  C3  UNL     1       5.995  29.270  19.747  1.00  0.00     0.244 C 
HETATM    9  C4  UNL     1       5.833  30.737  20.055  1.00  0.00     0.161 C 
HETATM   10  N1  UNL     1       7.038  31.387  19.544  1.00  0.00    -0.345 N 
HETATM   11  C5  UNL     1       7.657  32.413  20.303  1.00  0.00     0.224 C 
HETATM   12  C9  UNL     1       7.556  30.967  18.290  1.00  0.00     0.190 C 
HETATM   13  O1  UNL     1       7.132  32.728  21.415  1.00  0.00    -0.273 OA
HETATM   14  C10 UNL     1       7.412  29.516  17.958  1.00  0.00     0.377 C 
BRANCH   8  15
HETATM   15  C2  UNL     1       5.054  28.373  20.496  1.00  0.00     0.033 C 
HETATM   16  C1  UNL     1       5.384  26.906  20.377  1.00  0.00     0.007 C 
ENDBRANCH   8  15
BRANCH  11  17
HETATM   17  C6  UNL     1       8.864  33.158  19.918  1.00  0.00     0.078 A 
HETATM   18  C7  UNL     1       9.352  34.289  20.791  1.00  0.00     0.015 A 
HETATM   19  C8  UNL     1       8.609  34.627  19.552  1.00  0.00     0.015 A 
ENDBRANCH  11  17
BRANCH  14  20
HETATM   20  O2  UNL     1       8.325  28.729  18.665  1.00  0.00    -0.361 OA
HETATM   21  C11 UNL     1       8.731  27.664  17.849  1.00  0.00     0.204 C 
ENDBRANCH  14  20
ENDBRANCH   1   7
BRANCH   5  22
HETATM   22  C16 UNL     1       2.881  27.579  17.272  1.00  0.00     0.150 C 
HETATM   23  N3  UNL     1       3.446  26.395  17.345  1.00  0.00    -0.250 N 
ATOM     24  H3  UNL     1       4.204  26.179  16.698  1.00  0.00     0.196 HD
BRANCH  22  25
HETATM   25  O3  UNL     1       1.864  27.811  18.171  1.00  0.00    -0.347 OA
ATOM     26  H3  UNL     1       1.819  28.549  18.767  1.00  0.00     0.219 HD
ENDBRANCH  22  25
BRANCH  23  27
HETATM   27  O4  UNL     1       3.072  25.448  18.235  1.00  0.00    -0.288 OA
ATOM     28  H4  UNL     1       3.437  25.384  19.110  1.00  0.00     0.244 HD
ENDBRANCH  23  27
ENDBRANCH   5  22
BRANCH   5  29
HETATM   29  C17 UNL     1       2.802  28.302  14.933  1.00  0.00    -0.034 A 
HETATM   30  C18 UNL     1       3.539  27.833  13.882  1.00  0.00     0.050 A 
HETATM   31  C19 UNL     1       2.934  27.648  12.649  1.00  0.00     0.119 A 
HETATM   32  F1  UNL     1       3.670  27.177  11.587  1.00  0.00    -0.206 F 
HETATM   33  C20 UNL     1       1.604  27.916  12.422  1.00  0.00     0.084 A 
HETATM   34  C21 UNL     1       0.866  28.387  13.478  1.00  0.00     0.119 A 
HETATM   35  F2  UNL     1      -0.442  28.664  13.304  1.00  0.00    -0.206 F 
HETATM   36  C22 UNL     1       1.468  28.574  14.714  1.00  0.00     0.050 A 
ENDBRANCH   5  29
TORSDOF 8
ENDMDL
MODEL 5
REMARK VINA RESULT: -7.311687854      4.329      7.816
REMARK  8 active torsions:
REMARK  status: ('A' for Active; 'I' for Inactive)
REMARK    1  A    between atoms: C2_2  and  C3_3 
REMARK       I    between atoms: N1_5  and  C5_6 
REMARK    2  A    between atoms: C5_6  and  C6_8 
REMARK    3  A    between atoms: C10_12  and  O2_13 
REMARK    4  A    between atoms: N2_15  and  C12_16 
REMARK    5  A    between atoms: C15_20  and  C16_21 
REMARK    6  A    between atoms: C15_20  and  C17_28 
REMARK    7  A    between atoms: C16_21  and  O3_22 
REMARK    8  A    between atoms: N3_24  and  O4_26 
ROOT
HETATM    1  C12 UNL     1       6.309  29.828  17.065  1.00  0.00     0.229 C 
HETATM    2  C13 UNL     1       5.882  28.409  17.089  1.00  0.00     0.053 C 
HETATM    3  C14 UNL     1       6.552  27.877  15.809  1.00  0.00     0.081 C 
HETATM    4 BR1  UNL     1       5.890  28.760  14.247  1.00  0.00    -0.089 Br
HETATM    5  C15 UNL     1       7.995  28.348  16.127  1.00  0.00     0.069 C 
HETATM    6  C23 UNL     1       7.725  29.769  16.478  1.00  0.00     0.060 C 
ENDROOT
BRANCH   1   7
HETATM    7  N2  UNL     1       6.398  30.512  18.308  1.00  0.00     0.129 N 
HETATM    8  C3  UNL     1       5.185  30.734  19.024  1.00  0.00     0.244 C 
HETATM    9  C4  UNL     1       4.068  31.248  18.151  1.00  0.00     0.161 C 
HETATM   10  N1  UNL     1       4.530  32.533  17.630  1.00  0.00    -0.345 N 
HETATM   11  C5  UNL     1       3.626  33.624  17.551  1.00  0.00     0.224 C 
HETATM   12  C9  UNL     1       5.883  32.651  17.214  1.00  0.00     0.190 C 
HETATM   13  O1  UNL     1       2.434  33.436  17.946  1.00  0.00    -0.273 OA
HETATM   14  C10 UNL     1       6.893  31.866  17.988  1.00  0.00     0.377 C 
BRANCH   8  15
HETATM   15  C2  UNL     1       4.789  29.614  19.940  1.00  0.00     0.033 C 
HETATM   16  C1  UNL     1       5.369  29.725  21.328  1.00  0.00     0.007 C 
ENDBRANCH   8  15
BRANCH  11  17
HETATM   17  C6  UNL     1       3.942  34.967  17.047  1.00  0.00     0.078 A 
HETATM   18  C7  UNL     1       2.823  35.880  16.606  1.00  0.00     0.015 A 
HETATM   19  C8  UNL     1       3.611  35.179  15.563  1.00  0.00     0.015 A 
ENDBRANCH  11  17
BRANCH  14  20
HETATM   20  O2  UNL     1       7.162  32.449  19.229  1.00  0.00    -0.361 OA
HETATM   21  C11 UNL     1       8.415  32.006  19.675  1.00  0.00     0.204 C 
ENDBRANCH  14  20
ENDBRANCH   1   7
BRANCH   5  22
HETATM   22  C16 UNL     1       8.412  27.602  17.347  1.00  0.00     0.150 C 
HETATM   23  N3  UNL     1       8.340  26.290  17.350  1.00  0.00    -0.250 N 
ATOM     24  H3  UNL     1       7.998  25.821  16.512  1.00  0.00     0.196 HD
BRANCH  22  25
HETATM   25  O3  UNL     1       8.881  28.177  18.507  1.00  0.00    -0.347 OA
ATOM     26  H3  UNL     1       8.343  28.610  19.159  1.00  0.00     0.219 HD
ENDBRANCH  22  25
BRANCH  23  27
HETATM   27  O4  UNL     1       8.697  25.531  18.411  1.00  0.00    -0.288 OA
ATOM     28  H4  UNL     1       9.601  25.374  18.659  1.00  0.00     0.244 HD
ENDBRANCH  23  27
ENDBRANCH   5  22
BRANCH   5  29
HETATM   29  C17 UNL     1       8.882  28.103  14.995  1.00  0.00    -0.034 A 
HETATM   30  C18 UNL     1       8.881  28.870  13.864  1.00  0.00     0.050 A 
HETATM   31  C19 UNL     1       9.736  28.552  12.821  1.00  0.00     0.119 A 
HETATM   32  F1  UNL     1       9.740  29.319  11.679  1.00  0.00    -0.206 F 
HETATM   33  C20 UNL     1      10.603  27.486  12.864  1.00  0.00     0.084 A 
HETATM   34  C21 UNL     1      10.603  26.717  14.001  1.00  0.00     0.119 A 
HETATM   35  F2  UNL     1      11.436  25.661  14.089  1.00  0.00    -0.206 F 
HETATM   36  C22 UNL     1       9.748  27.031  15.048  1.00  0.00     0.050 A 
ENDBRANCH   5  29
TORSDOF 8
ENDMDL
