MODEL 1
REMARK VINA RESULT: -8.012658844      0.000      0.000
REMARK  9 active torsions:
REMARK  status: ('A' for Active; 'I' for Inactive)
REMARK    1  A    between atoms: C2_2  and  O1_5 
REMARK    2  A    between atoms: O1_5  and  C4_6 
REMARK       I    between atoms: C4_6  and  N1_8 
REMARK    3  A    between atoms: N1_8  and  C5_10 
REMARK    4  A    between atoms: C5_10  and  C6_11 
REMARK    5  A    between atoms: C5_10  and  C13_18 
REMARK    6  A    between atoms: C6_11  and  C7_12 
REMARK    7  A    between atoms: C13_18  and  O3_19 
REMARK    8  A    between atoms: C13_18  and  N2_21 
REMARK    9  A    between atoms: C17_26  and  N3_27 
REMARK       I    between atoms: N3_27  and  C18_29 
REMARK       I    between atoms: C18_29  and  N4_31 
ROOT
HETATM    1  C13 UNL     1       6.006  39.787  61.696  1.00  0.00     0.410 C 
ENDROOT
BRANCH   1   2
HETATM    2  C5  UNL     1       6.748  40.906  61.052  1.00  0.00     0.069 C 
BRANCH   2   3
HETATM    3  N1  UNL     1       7.642  41.547  61.977  1.00  0.00    -0.302 N 
HETATM    4  C4  UNL     1       7.772  42.925  62.222  1.00  0.00     0.366 C 
HETATM    5  O2  UNL     1       7.072  43.762  61.624  1.00  0.00    -0.238 OA
ATOM      6  H1  UNL     1       8.251  40.933  62.517  1.00  0.00     0.171 HD
BRANCH   4   7
HETATM    7  O1  UNL     1       8.702  43.360  63.147  1.00  0.00    -0.277 OA
BRANCH   7   8
HETATM    8  C2  UNL     1       8.541  44.417  64.040  1.00  0.00     0.141 C 
HETATM    9  C1  UNL     1       7.293  44.327  64.866  1.00  0.00     0.064 C 
HETATM   10  C3  UNL     1       9.755  44.485  64.947  1.00  0.00     0.064 C 
HETATM   11 CL1  UNL     1       8.509  45.984  63.157  1.00  0.00    -0.088 Cl
ENDBRANCH   7   8
ENDBRANCH   4   7
ENDBRANCH   2   3
BRANCH   2  12
HETATM   12  C6  UNL     1       7.206  40.745  59.663  1.00  0.00     0.007 C 
BRANCH  12  13
HETATM   13  C7  UNL     1       7.556  39.432  59.103  1.00  0.00     0.010 C 
HETATM   14  C8  UNL     1       9.092  39.439  58.797  1.00  0.00     0.008 C 
HETATM   15  C9  UNL     1       9.543  38.011  58.680  1.00  0.00     0.001 C 
HETATM   16  C10 UNL     1       8.634  37.268  57.715  1.00  0.00     0.000 C 
HETATM   17  C11 UNL     1       7.901  38.272  56.880  1.00  0.00     0.001 C 
HETATM   18  C12 UNL     1       6.949  39.068  57.776  1.00  0.00     0.008 C 
ENDBRANCH  12  13
ENDBRANCH   2  12
ENDBRANCH   1   2
BRANCH   1  19
HETATM   19  O3  UNL     1       6.856  38.855  62.236  1.00  0.00    -0.363 OA
ATOM     20  H3  UNL     1       7.179  38.249  61.579  1.00  0.00     0.212 HD
ENDBRANCH   1  19
BRANCH   1  21
HETATM   21  N2  UNL     1       4.977  40.146  62.635  1.00  0.00     0.148 N 
HETATM   22  C14 UNL     1       4.247  38.946  63.007  1.00  0.00     0.316 C 
HETATM   23  C15 UNL     1       3.216  38.742  61.912  1.00  0.00     0.202 C 
HETATM   24  F1  UNL     1       2.004  38.524  62.539  1.00  0.00    -0.247 F 
HETATM   25  C16 UNL     1       3.220  39.993  61.091  1.00  0.00     0.096 C 
HETATM   26  C17 UNL     1       3.962  40.969  62.026  1.00  0.00     0.332 C 
BRANCH  26  27
HETATM   27  N3  UNL     1       2.987  41.366  62.998  1.00  0.00    -0.312 N 
HETATM   28  C18 UNL     1       3.155  42.517  63.836  1.00  0.00     0.320 C 
HETATM   29  O4  UNL     1       4.217  43.174  63.691  1.00  0.00    -0.247 OA
HETATM   30  N4  UNL     1       2.167  42.900  64.782  1.00  0.00    -0.334 N 
HETATM   31  C19 UNL     1       1.009  42.039  64.902  1.00  0.00     0.133 C 
HETATM   32  C23 UNL     1       2.351  44.102  65.535  1.00  0.00     0.133 C 
HETATM   33  C20 UNL     1       0.097  42.567  66.004  1.00  0.00     0.099 C 
HETATM   34  C21 UNL     1      -0.169  44.014  65.643  1.00  0.00     0.246 C 
HETATM   35  F2  UNL     1      -1.167  44.564  66.395  1.00  0.00    -0.206 F 
HETATM   36  F3  UNL     1      -0.575  44.121  64.315  1.00  0.00    -0.206 F 
HETATM   37  C22 UNL     1       1.082  44.803  65.909  1.00  0.00     0.099 C 
ATOM     38  H3  UNL     1       2.139  40.807  63.097  1.00  0.00     0.166 HD
ENDBRANCH  26  27
ENDBRANCH   1  21
TORSDOF 9
ENDMDL
MODEL 2
REMARK VINA RESULT: -7.995559059      3.584      5.586
REMARK  9 active torsions:
REMARK  status: ('A' for Active; 'I' for Inactive)
REMARK    1  A    between atoms: C2_2  and  O1_5 
REMARK    2  A    between atoms: O1_5  and  C4_6 
REMARK       I    between atoms: C4_6  and  N1_8 
REMARK    3  A    between atoms: N1_8  and  C5_10 
REMARK    4  A    between atoms: C5_10  and  C6_11 
REMARK    5  A    between atoms: C5_10  and  C13_18 
REMARK    6  A    between atoms: C6_11  and  C7_12 
REMARK    7  A    between atoms: C13_18  and  O3_19 
REMARK    8  A    between atoms: C13_18  and  N2_21 
REMARK    9  A    between atoms: C17_26  and  N3_27 
REMARK       I    between atoms: N3_27  and  C18_29 
REMARK       I    between atoms: C18_29  and  N4_31 
ROOT
HETATM    1  C13 UNL     1       6.604  40.622  58.918  1.00  0.00     0.410 C 
ENDROOT
BRANCH   1   2
HETATM    2  C5  UNL     1       6.773  39.253  59.478  1.00  0.00     0.069 C 
BRANCH   2   3
HETATM    3  N1  UNL     1       5.685  38.392  59.100  1.00  0.00    -0.302 N 
HETATM    4  C4  UNL     1       4.450  38.241  59.755  1.00  0.00     0.366 C 
HETATM    5  O2  UNL     1       4.173  38.888  60.781  1.00  0.00    -0.238 OA
ATOM      6  H1  UNL     1       5.825  37.827  58.263  1.00  0.00     0.171 HD
BRANCH   4   7
HETATM    7  O1  UNL     1       3.524  37.350  59.248  1.00  0.00    -0.277 OA
BRANCH   7   8
HETATM    8  C2  UNL     1       2.621  36.591  59.990  1.00  0.00     0.141 C 
HETATM    9  C1  UNL     1       1.365  37.325  60.350  1.00  0.00     0.064 C 
HETATM   10  C3  UNL     1       2.279  35.334  59.214  1.00  0.00     0.064 C 
HETATM   11 CL1  UNL     1       3.388  36.023  61.516  1.00  0.00    -0.088 Cl
ENDBRANCH   7   8
ENDBRANCH   4   7
ENDBRANCH   2   3
BRANCH   2  12
HETATM   12  C6  UNL     1       8.121  38.667  59.521  1.00  0.00     0.007 C 
BRANCH  12  13
HETATM   13  C7  UNL     1       8.563  37.650  58.556  1.00  0.00     0.010 C 
HETATM   14  C8  UNL     1      10.109  37.817  58.364  1.00  0.00     0.008 C 
HETATM   15  C9  UNL     1      10.637  36.538  57.778  1.00  0.00     0.001 C 
HETATM   16  C10 UNL     1       9.812  36.155  56.561  1.00  0.00     0.000 C 
HETATM   17  C11 UNL     1       9.065  37.366  56.092  1.00  0.00     0.001 C 
HETATM   18  C12 UNL     1       8.034  37.760  57.152  1.00  0.00     0.008 C 
ENDBRANCH  12  13
ENDBRANCH   2  12
ENDBRANCH   1   2
BRANCH   1  19
HETATM   19  O3  UNL     1       6.066  40.595  57.656  1.00  0.00    -0.363 OA
ATOM     20  H3  UNL     1       6.733  40.481  56.989  1.00  0.00     0.212 HD
ENDBRANCH   1  19
BRANCH   1  21
HETATM   21  N2  UNL     1       5.923  41.583  59.744  1.00  0.00     0.148 N 
HETATM   22  C14 UNL     1       6.368  42.916  59.374  1.00  0.00     0.316 C 
HETATM   23  C15 UNL     1       7.663  43.137  60.135  1.00  0.00     0.202 C 
HETATM   24  F1  UNL     1       7.563  44.374  60.743  1.00  0.00    -0.247 F 
HETATM   25  C16 UNL     1       7.766  42.019  61.125  1.00  0.00     0.096 C 
HETATM   26  C17 UNL     1       6.322  41.477  61.126  1.00  0.00     0.332 C 
BRANCH  26  27
HETATM   27  N3  UNL     1       5.581  42.399  61.935  1.00  0.00    -0.312 N 
HETATM   28  C18 UNL     1       4.915  42.004  63.142  1.00  0.00     0.320 C 
HETATM   29  O4  UNL     1       4.999  40.791  63.466  1.00  0.00    -0.247 OA
HETATM   30  N4  UNL     1       4.199  42.938  63.938  1.00  0.00    -0.334 N 
HETATM   31  C19 UNL     1       4.123  44.296  63.440  1.00  0.00     0.133 C 
HETATM   32  C23 UNL     1       3.623  42.505  65.172  1.00  0.00     0.133 C 
HETATM   33  C20 UNL     1       3.266  45.133  64.383  1.00  0.00     0.099 C 
HETATM   34  C21 UNL     1       3.882  44.947  65.754  1.00  0.00     0.246 C 
HETATM   35  F2  UNL     1       3.383  45.824  66.674  1.00  0.00    -0.206 F 
HETATM   36  F3  UNL     1       5.257  45.168  65.708  1.00  0.00    -0.206 F 
HETATM   37  C22 UNL     1       3.556  43.560  66.232  1.00  0.00     0.099 C 
ATOM     38  H3  UNL     1       5.525  43.374  61.641  1.00  0.00     0.166 HD
ENDBRANCH  26  27
ENDBRANCH   1  21
TORSDOF 9
ENDMDL
MODEL 3
REMARK VINA RESULT: -7.985413206      3.559      5.643
REMARK  9 active torsions:
REMARK  status: ('A' for Active; 'I' for Inactive)
REMARK    1  A    between atoms: C2_2  and  O1_5 
REMARK    2  A    between atoms: O1_5  and  C4_6 
REMARK       I    between atoms: C4_6  and  N1_8 
REMARK    3  A    between atoms: N1_8  and  C5_10 
REMARK    4  A    between atoms: C5_10  and  C6_11 
REMARK    5  A    between atoms: C5_10  and  C13_18 
REMARK    6  A    between atoms: C6_11  and  C7_12 
REMARK    7  A    between atoms: C13_18  and  O3_19 
REMARK    8  A    between atoms: C13_18  and  N2_21 
REMARK    9  A    between atoms: C17_26  and  N3_27 
REMARK       I    between atoms: N3_27  and  C18_29 
REMARK       I    between atoms: C18_29  and  N4_31 
ROOT
HETATM    1  C13 UNL     1       6.616  40.643  58.875  1.00  0.00     0.410 C 
ENDROOT
BRANCH   1   2
HETATM    2  C5  UNL     1       6.769  39.262  59.409  1.00  0.00     0.069 C 
BRANCH   2   3
HETATM    3  N1  UNL     1       5.690  38.411  58.987  1.00  0.00    -0.302 N 
HETATM    4  C4  UNL     1       4.464  38.201  59.642  1.00  0.00     0.366 C 
HETATM    5  O2  UNL     1       4.188  38.778  60.709  1.00  0.00    -0.238 OA
ATOM      6  H1  UNL     1       5.829  37.903  58.115  1.00  0.00     0.171 HD
BRANCH   4   7
HETATM    7  O1  UNL     1       3.545  37.331  59.088  1.00  0.00    -0.277 OA
BRANCH   7   8
HETATM    8  C2  UNL     1       2.892  37.492  57.868  1.00  0.00     0.141 C 
HETATM    9  C1  UNL     1       3.560  36.786  56.726  1.00  0.00     0.064 C 
HETATM   10  C3  UNL     1       1.461  37.007  58.007  1.00  0.00     0.064 C 
HETATM   11 CL1  UNL     1       2.771  39.237  57.448  1.00  0.00    -0.088 Cl
ENDBRANCH   7   8
ENDBRANCH   4   7
ENDBRANCH   2   3
BRANCH   2  12
HETATM   12  C6  UNL     1       8.116  38.673  59.472  1.00  0.00     0.007 C 
BRANCH  12  13
HETATM   13  C7  UNL     1       8.567  37.651  58.517  1.00  0.00     0.010 C 
HETATM   14  C8  UNL     1      10.117  37.808  58.349  1.00  0.00     0.008 C 
HETATM   15  C9  UNL     1      10.648  36.525  57.775  1.00  0.00     0.001 C 
HETATM   16  C10 UNL     1       9.839  36.143  56.546  1.00  0.00     0.000 C 
HETATM   17  C11 UNL     1       9.107  37.357  56.062  1.00  0.00     0.001 C 
HETATM   18  C12 UNL     1       8.062  37.760  57.104  1.00  0.00     0.008 C 
ENDBRANCH  12  13
ENDBRANCH   2  12
ENDBRANCH   1   2
BRANCH   1  19
HETATM   19  O3  UNL     1       6.113  40.644  57.599  1.00  0.00    -0.363 OA
ATOM     20  H3  UNL     1       5.202  40.912  57.578  1.00  0.00     0.212 HD
ENDBRANCH   1  19
BRANCH   1  21
HETATM   21  N2  UNL     1       5.912  41.585  59.703  1.00  0.00     0.148 N 
HETATM   22  C14 UNL     1       6.325  42.929  59.336  1.00  0.00     0.316 C 
HETATM   23  C15 UNL     1       7.614  43.179  60.098  1.00  0.00     0.202 C 
HETATM   24  F1  UNL     1       7.483  44.412  60.709  1.00  0.00    -0.247 F 
HETATM   25  C16 UNL     1       7.743  42.063  61.086  1.00  0.00     0.096 C 
HETATM   26  C17 UNL     1       6.313  41.486  61.085  1.00  0.00     0.332 C 
BRANCH  26  27
HETATM   27  N3  UNL     1       5.549  42.388  61.896  1.00  0.00    -0.312 N 
HETATM   28  C18 UNL     1       4.907  41.978  63.110  1.00  0.00     0.320 C 
HETATM   29  O4  UNL     1       5.032  40.771  63.440  1.00  0.00    -0.247 OA
HETATM   30  N4  UNL     1       4.168  42.894  63.908  1.00  0.00    -0.334 N 
HETATM   31  C19 UNL     1       4.044  44.245  63.403  1.00  0.00     0.133 C 
HETATM   32  C23 UNL     1       3.616  42.449  65.149  1.00  0.00     0.133 C 
HETATM   33  C20 UNL     1       3.169  45.060  64.349  1.00  0.00     0.099 C 
HETATM   34  C21 UNL     1       3.802  44.902  65.716  1.00  0.00     0.246 C 
HETATM   35  F2  UNL     1       3.283  45.767  66.635  1.00  0.00    -0.206 F 
HETATM   36  F3  UNL     1       5.168  45.166  65.657  1.00  0.00    -0.206 F 
HETATM   37  C22 UNL     1       3.525  43.507  66.204  1.00  0.00     0.099 C 
ATOM     38  H3  UNL     1       5.460  43.359  61.597  1.00  0.00     0.166 HD
ENDBRANCH  26  27
ENDBRANCH   1  21
TORSDOF 9
ENDMDL
MODEL 4
REMARK VINA RESULT: -7.877605489      4.170      7.019
REMARK  9 active torsions:
REMARK  status: ('A' for Active; 'I' for Inactive)
REMARK    1  A    between atoms: C2_2  and  O1_5 
REMARK    2  A    between atoms: O1_5  and  C4_6 
REMARK       I    between atoms: C4_6  and  N1_8 
REMARK    3  A    between atoms: N1_8  and  C5_10 
REMARK    4  A    between atoms: C5_10  and  C6_11 
REMARK    5  A    between atoms: C5_10  and  C13_18 
REMARK    6  A    between atoms: C6_11  and  C7_12 
REMARK    7  A    between atoms: C13_18  and  O3_19 
REMARK    8  A    between atoms: C13_18  and  N2_21 
REMARK    9  A    between atoms: C17_26  and  N3_27 
REMARK       I    between atoms: N3_27  and  C18_29 
REMARK       I    between atoms: C18_29  and  N4_31 
ROOT
HETATM    1  C13 UNL     1       5.053  38.785  60.183  1.00  0.00     0.410 C 
ENDROOT
BRANCH   1   2
HETATM    2  C5  UNL     1       5.549  38.452  58.819  1.00  0.00     0.069 C 
BRANCH   2   3
HETATM    3  N1  UNL     1       4.544  38.691  57.820  1.00  0.00    -0.302 N 
HETATM    4  C4  UNL     1       4.098  37.799  56.829  1.00  0.00     0.366 C 
HETATM    5  O2  UNL     1       4.562  36.649  56.730  1.00  0.00    -0.238 OA
ATOM      6  H1  UNL     1       4.103  39.611  57.832  1.00  0.00     0.171 HD
BRANCH   4   7
HETATM    7  O1  UNL     1       3.123  38.212  55.941  1.00  0.00    -0.277 OA
BRANCH   7   8
HETATM    8  C2  UNL     1       3.340  38.765  54.680  1.00  0.00     0.141 C 
HETATM    9  C1  UNL     1       3.051  37.824  53.549  1.00  0.00     0.064 C 
HETATM   10  C3  UNL     1       2.494  40.016  54.538  1.00  0.00     0.064 C 
HETATM   11 CL1  UNL     1       5.046  39.315  54.523  1.00  0.00    -0.088 Cl
ENDBRANCH   7   8
ENDBRANCH   4   7
ENDBRANCH   2   3
BRANCH   2  12
HETATM   12  C6  UNL     1       6.942  38.777  58.474  1.00  0.00     0.007 C 
BRANCH  12  13
HETATM   13  C7  UNL     1       7.893  37.754  58.016  1.00  0.00     0.010 C 
HETATM   14  C8  UNL     1       9.337  38.265  58.346  1.00  0.00     0.008 C 
HETATM   15  C9  UNL     1      10.258  37.079  58.326  1.00  0.00     0.001 C 
HETATM   16  C10 UNL     1      10.062  36.303  57.034  1.00  0.00     0.000 C 
HETATM   17  C11 UNL     1       9.376  37.193  56.043  1.00  0.00     0.001 C 
HETATM   18  C12 UNL     1       7.958  37.491  56.536  1.00  0.00     0.008 C 
ENDBRANCH  12  13
ENDBRANCH   2  12
ENDBRANCH   1   2
BRANCH   1  19
HETATM   19  O3  UNL     1       4.713  37.660  60.891  1.00  0.00    -0.363 OA
ATOM     20  H3  UNL     1       3.809  37.409  60.742  1.00  0.00     0.212 HD
ENDBRANCH   1  19
BRANCH   1  21
HETATM   21  N2  UNL     1       5.874  39.660  60.977  1.00  0.00     0.148 N 
HETATM   22  C14 UNL     1       5.345  39.697  62.330  1.00  0.00     0.316 C 
HETATM   23  C15 UNL     1       4.228  40.723  62.301  1.00  0.00     0.202 C 
HETATM   24  F1  UNL     1       4.432  41.565  63.378  1.00  0.00    -0.247 F 
HETATM   25  C16 UNL     1       4.342  41.434  60.989  1.00  0.00     0.096 C 
HETATM   26  C17 UNL     1       5.764  41.032  60.547  1.00  0.00     0.332 C 
BRANCH  26  27
HETATM   27  N3  UNL     1       6.640  41.871  61.309  1.00  0.00    -0.312 N 
HETATM   28  C18 UNL     1       7.332  42.988  60.737  1.00  0.00     0.320 C 
HETATM   29  O4  UNL     1       7.144  43.205  59.512  1.00  0.00    -0.247 OA
HETATM   30  N4  UNL     1       8.184  43.817  61.516  1.00  0.00    -0.334 N 
HETATM   31  C19 UNL     1       8.368  43.440  62.902  1.00  0.00     0.133 C 
HETATM   32  C23 UNL     1       8.784  44.964  60.912  1.00  0.00     0.133 C 
HETATM   33  C20 UNL     1       9.359  44.396  63.558  1.00  0.00     0.099 C 
HETATM   34  C21 UNL     1       8.808  45.783  63.299  1.00  0.00     0.246 C 
HETATM   35  F2  UNL     1       9.447  46.743  64.030  1.00  0.00    -0.206 F 
HETATM   36  F3  UNL     1       7.463  45.850  63.653  1.00  0.00    -0.206 F 
HETATM   37  C22 UNL     1       9.019  46.109  61.847  1.00  0.00     0.099 C 
ATOM     38  H3  UNL     1       6.778  41.664  62.299  1.00  0.00     0.166 HD
ENDBRANCH  26  27
ENDBRANCH   1  21
TORSDOF 9
ENDMDL
MODEL 5
REMARK VINA RESULT: -7.872071988      3.046      4.845
REMARK  9 active torsions:
REMARK  status: ('A' for Active; 'I' for Inactive)
REMARK    1  A    between atoms: C2_2  and  O1_5 
REMARK    2  A    between atoms: O1_5  and  C4_6 
REMARK       I    between atoms: C4_6  and  N1_8 
REMARK    3  A    between atoms: N1_8  and  C5_10 
REMARK    4  A    between atoms: C5_10  and  C6_11 
REMARK    5  A    between atoms: C5_10  and  C13_18 
REMARK    6  A    between atoms: C6_11  and  C7_12 
REMARK    7  A    between atoms: C13_18  and  O3_19 
REMARK    8  A    between atoms: C13_18  and  N2_21 
REMARK    9  A    between atoms: C17_26  and  N3_27 
REMARK       I    between atoms: N3_27  and  C18_29 
REMARK       I    between atoms: C18_29  and  N4_31 
ROOT
HETATM    1  C13 UNL     1       6.712  41.163  59.097  1.00  0.00     0.410 C 
ENDROOT
BRANCH   1   2
HETATM    2  C5  UNL     1       6.624  39.693  59.320  1.00  0.00     0.069 C 
BRANCH   2   3
HETATM    3  N1  UNL     1       5.755  39.378  60.421  1.00  0.00    -0.302 N 
HETATM    4  C4  UNL     1       6.042  38.561  61.528  1.00  0.00     0.366 C 
HETATM    5  O2  UNL     1       7.149  38.009  61.661  1.00  0.00    -0.238 OA
ATOM      6  H1  UNL     1       4.825  39.796  60.397  1.00  0.00     0.171 HD
BRANCH   4   7
HETATM    7  O1  UNL     1       5.070  38.362  62.489  1.00  0.00    -0.277 OA
BRANCH   7   8
HETATM    8  C2  UNL     1       3.977  37.504  62.388  1.00  0.00     0.141 C 
HETATM    9  C1  UNL     1       4.187  36.175  63.050  1.00  0.00     0.064 C 
HETATM   10  C3  UNL     1       2.758  38.186  62.979  1.00  0.00     0.064 C 
HETATM   11 CL1  UNL     1       3.573  37.206  60.660  1.00  0.00    -0.088 Cl
ENDBRANCH   7   8
ENDBRANCH   4   7
ENDBRANCH   2   3
BRANCH   2  12
HETATM   12  C6  UNL     1       6.592  38.801  58.151  1.00  0.00     0.007 C 
BRANCH  12  13
HETATM   13  C7  UNL     1       7.666  37.837  57.875  1.00  0.00     0.010 C 
HETATM   14  C8  UNL     1       9.016  38.480  58.344  1.00  0.00     0.008 C 
HETATM   15  C9  UNL     1      10.018  37.373  58.508  1.00  0.00     0.001 C 
HETATM   16  C10 UNL     1      10.043  36.518  57.252  1.00  0.00     0.000 C 
HETATM   17  C11 UNL     1       9.422  37.296  56.133  1.00  0.00     0.001 C 
HETATM   18  C12 UNL     1       7.936  37.503  56.433  1.00  0.00     0.008 C 
ENDBRANCH  12  13
ENDBRANCH   2  12
ENDBRANCH   1   2
BRANCH   1  19
HETATM   19  O3  UNL     1       6.544  41.490  57.775  1.00  0.00    -0.363 OA
ATOM     20  H3  UNL     1       5.658  41.782  57.593  1.00  0.00     0.212 HD
ENDBRANCH   1  19
BRANCH   1  21
HETATM   21  N2  UNL     1       5.895  41.997  59.938  1.00  0.00     0.148 N 
HETATM   22  C14 UNL     1       6.002  43.371  59.478  1.00  0.00     0.316 C 
HETATM   23  C15 UNL     1       7.266  43.916  60.116  1.00  0.00     0.202 C 
HETATM   24  F1  UNL     1       6.936  45.134  60.679  1.00  0.00    -0.247 F 
HETATM   25  C16 UNL     1       7.689  42.909  61.139  1.00  0.00     0.096 C 
HETATM   26  C17 UNL     1       6.408  42.063  61.284  1.00  0.00     0.332 C 
BRANCH  26  27
HETATM   27  N3  UNL     1       5.541  42.845  62.115  1.00  0.00    -0.312 N 
HETATM   28  C18 UNL     1       4.204  42.437  62.435  1.00  0.00     0.320 C 
HETATM   29  O4  UNL     1       3.809  41.349  61.943  1.00  0.00    -0.247 OA
HETATM   30  N4  UNL     1       3.367  43.220  63.275  1.00  0.00    -0.334 N 
HETATM   31  C19 UNL     1       3.907  44.481  63.741  1.00  0.00     0.133 C 
HETATM   32  C23 UNL     1       2.072  42.726  63.626  1.00  0.00     0.133 C 
HETATM   33  C20 UNL     1       2.851  45.209  64.566  1.00  0.00     0.099 C 
HETATM   34  C21 UNL     1       2.423  44.220  65.629  1.00  0.00     0.246 C 
HETATM   35  F2  UNL     1       1.659  44.798  66.603  1.00  0.00    -0.206 F 
HETATM   36  F3  UNL     1       3.533  43.678  66.272  1.00  0.00    -0.206 F 
HETATM   37  C22 UNL     1       1.585  43.157  64.974  1.00  0.00     0.099 C 
ATOM     38  H3  UNL     1       5.888  43.726  62.493  1.00  0.00     0.166 HD
ENDBRANCH  26  27
ENDBRANCH   1  21
TORSDOF 9
ENDMDL
