MODEL 1
REMARK VINA RESULT: -8.295165170      0.000      0.000
REMARK  10 active torsions:
REMARK  status: ('A' for Active; 'I' for Inactive)
REMARK    1  A    between atoms: C1_2  and  O2_3 
REMARK    2  A    between atoms: C1_2  and  C8_26 
REMARK    3  A    between atoms: O2_3  and  N1_4 
REMARK    4  A    between atoms: N1_4  and  C2_5 
REMARK    5  A    between atoms: C2_5  and  O3_6 
REMARK    6  A    between atoms: C2_5  and  C3_8 
REMARK    7  A    between atoms: C3_8  and  C4_10 
REMARK    8  A    between atoms: C4_10  and  C5_11 
REMARK    9  A    between atoms: C4_10  and  C6_14 
REMARK       I    between atoms: C6_14  and  N2_16 
REMARK   10  A    between atoms: N2_16  and  C7_18 
ROOT
HETATM    1  C4  UNL     1      12.157   4.518   4.736  1.00  0.00     0.253 C 
ENDROOT
BRANCH   1   2
HETATM    2  C3  UNL     1      12.860   3.214   4.877  1.00  0.00     0.196 C 
HETATM    3  O4  UNL     1      12.170   2.280   5.343  1.00  0.00    -0.292 OA
BRANCH   2   4
HETATM    4  C2  UNL     1      14.273   2.950   4.510  1.00  0.00     0.310 C 
BRANCH   4   5
HETATM    5  N1  UNL     1      14.382   1.517   4.292  1.00  0.00    -0.051 NA
BRANCH   5   6
HETATM    6  O2  UNL     1      15.645   1.109   4.014  1.00  0.00    -0.200 OA
BRANCH   6   7
HETATM    7  C1  UNL     1      16.409   0.262   4.776  1.00  0.00     0.313 C 
HETATM    8  O1  UNL     1      15.908  -0.835   5.112  1.00  0.00    -0.258 OA
BRANCH   7   9
HETATM    9  C8  UNL     1      17.764   0.656   5.170  1.00  0.00     0.065 A 
HETATM   10  C9  UNL     1      18.741  -0.185   5.659  1.00  0.00     0.044 A 
HETATM   11  C10 UNL     1      19.876   0.595   5.907  1.00  0.00     0.142 A 
HETATM   12  O8  UNL     1      19.588   1.817   5.585  1.00  0.00    -0.334 OA
HETATM   13  C11 UNL     1      18.338   1.909   5.139  1.00  0.00     0.159 A 
ENDBRANCH   7   9
ENDBRANCH   6   7
ENDBRANCH   5   6
ENDBRANCH   4   5
BRANCH   4  14
HETATM   14  O3  UNL     1      15.096   3.381   5.537  1.00  0.00    -0.371 OA
ATOM     15  H3  UNL     1      14.636   3.943   6.148  1.00  0.00     0.212 HD
ENDBRANCH   4  14
ENDBRANCH   2   4
ENDBRANCH   1   2
BRANCH   1  16
HETATM   16  C5  UNL     1      12.151   5.245   6.001  1.00  0.00     0.194 C 
HETATM   17  O5  UNL     1      11.259   6.128   6.195  1.00  0.00    -0.647 OA
HETATM   18  O6  UNL     1      13.096   4.991   6.986  1.00  0.00    -0.647 OA
ENDBRANCH   1  16
BRANCH   1  19
HETATM   19  C6  UNL     1      12.801   5.299   3.663  1.00  0.00     0.258 C 
HETATM   20  O7  UNL     1      12.734   4.959   2.474  1.00  0.00    -0.271 OA
HETATM   21  N2  UNL     1      13.513   6.467   4.001  1.00  0.00    -0.156 N 
ATOM     22  H2  UNL     1      12.997   7.337   4.131  1.00  0.00     0.187 HD
BRANCH  21  23
HETATM   23  C7  UNL     1      14.791   6.476   4.150  1.00  0.00     0.713 A 
HETATM   24  N3  UNL     1      15.697   6.726   3.198  1.00  0.00    -0.118 N 
HETATM   25  N4  UNL     1      16.881   6.635   3.769  1.00  0.00    -0.212 N 
ATOM     26  H3  UNL     1      15.509   6.944   2.220  1.00  0.00     0.207 HD
HETATM   27  N5  UNL     1      16.707   6.336   5.044  1.00  0.00     0.009 NA
ATOM     28  H4  UNL     1      17.779   6.773   3.305  1.00  0.00     0.206 HD
HETATM   29  N6  UNL     1      15.416   6.234   5.297  1.00  0.00    -0.113 N 
ATOM     30  H6  UNL     1      14.983   6.014   6.194  1.00  0.00     0.203 HD
ENDBRANCH  21  23
ENDBRANCH   1  19
TORSDOF 10
ENDMDL
MODEL 2
REMARK VINA RESULT: -8.254066294      3.204      4.035
REMARK  10 active torsions:
REMARK  status: ('A' for Active; 'I' for Inactive)
REMARK    1  A    between atoms: C1_2  and  O2_3 
REMARK    2  A    between atoms: C1_2  and  C8_26 
REMARK    3  A    between atoms: O2_3  and  N1_4 
REMARK    4  A    between atoms: N1_4  and  C2_5 
REMARK    5  A    between atoms: C2_5  and  O3_6 
REMARK    6  A    between atoms: C2_5  and  C3_8 
REMARK    7  A    between atoms: C3_8  and  C4_10 
REMARK    8  A    between atoms: C4_10  and  C5_11 
REMARK    9  A    between atoms: C4_10  and  C6_14 
REMARK       I    between atoms: C6_14  and  N2_16 
REMARK   10  A    between atoms: N2_16  and  C7_18 
ROOT
HETATM    1  C4  UNL     1      13.442   3.262   5.556  1.00  0.00     0.253 C 
ENDROOT
BRANCH   1   2
HETATM    2  C3  UNL     1      13.919   3.168   4.149  1.00  0.00     0.196 C 
HETATM    3  O4  UNL     1      13.251   3.817   3.313  1.00  0.00    -0.292 OA
BRANCH   2   4
HETATM    4  C2  UNL     1      15.093   2.390   3.685  1.00  0.00     0.310 C 
BRANCH   4   5
HETATM    5  N1  UNL     1      14.733   0.987   3.801  1.00  0.00    -0.051 NA
BRANCH   5   6
HETATM    6  O2  UNL     1      15.133   0.239   2.745  1.00  0.00    -0.200 OA
BRANCH   6   7
HETATM    7  C1  UNL     1      15.179  -1.132   2.694  1.00  0.00     0.313 C 
HETATM    8  O1  UNL     1      14.499  -1.707   1.813  1.00  0.00    -0.258 OA
BRANCH   7   9
HETATM    9  C8  UNL     1      16.005  -1.871   3.651  1.00  0.00     0.065 A 
HETATM   10  C9  UNL     1      15.582  -2.383   4.859  1.00  0.00     0.044 A 
HETATM   11  C10 UNL     1      16.682  -3.010   5.455  1.00  0.00     0.142 A 
HETATM   12  O8  UNL     1      17.690  -2.877   4.651  1.00  0.00    -0.334 OA
HETATM   13  C11 UNL     1      17.340  -2.203   3.557  1.00  0.00     0.159 A 
ENDBRANCH   7   9
ENDBRANCH   6   7
ENDBRANCH   5   6
ENDBRANCH   4   5
BRANCH   4  14
HETATM   14  O3  UNL     1      16.188   2.709   4.471  1.00  0.00    -0.371 OA
ATOM     15  H3  UNL     1      17.005   2.621   3.993  1.00  0.00     0.212 HD
ENDBRANCH   4  14
ENDBRANCH   2   4
ENDBRANCH   1   2
BRANCH   1  16
HETATM   16  C5  UNL     1      13.755   4.568   6.125  1.00  0.00     0.194 C 
HETATM   17  O5  UNL     1      14.657   5.275   5.576  1.00  0.00    -0.647 OA
HETATM   18  O6  UNL     1      13.090   5.048   7.245  1.00  0.00    -0.647 OA
ENDBRANCH   1  16
BRANCH   1  19
HETATM   19  C6  UNL     1      11.994   2.985   5.594  1.00  0.00     0.258 C 
HETATM   20  O7  UNL     1      11.548   1.832   5.659  1.00  0.00    -0.271 OA
HETATM   21  N2  UNL     1      11.090   4.066   5.554  1.00  0.00    -0.156 N 
ATOM     22  H2  UNL     1      10.875   4.559   6.420  1.00  0.00     0.187 HD
BRANCH  21  23
HETATM   23  C7  UNL     1      10.526   4.453   4.464  1.00  0.00     0.713 A 
HETATM   24  N3  UNL     1      10.120   5.697   4.183  1.00  0.00    -0.118 N 
HETATM   25  N4  UNL     1       9.600   5.660   2.972  1.00  0.00    -0.212 N 
ATOM     26  H3  UNL     1      10.197   6.515   4.787  1.00  0.00     0.207 HD
HETATM   27  N5  UNL     1       9.684   4.421   2.520  1.00  0.00     0.009 NA
ATOM     28  H4  UNL     1       9.200   6.453   2.471  1.00  0.00     0.206 HD
HETATM   29  N6  UNL     1      10.257   3.660   3.434  1.00  0.00    -0.113 N 
ATOM     30  H6  UNL     1      10.453   2.662   3.363  1.00  0.00     0.203 HD
ENDBRANCH  21  23
ENDBRANCH   1  19
TORSDOF 10
ENDMDL
MODEL 3
REMARK VINA RESULT: -8.208132981      3.175      4.448
REMARK  10 active torsions:
REMARK  status: ('A' for Active; 'I' for Inactive)
REMARK    1  A    between atoms: C1_2  and  O2_3 
REMARK    2  A    between atoms: C1_2  and  C8_26 
REMARK    3  A    between atoms: O2_3  and  N1_4 
REMARK    4  A    between atoms: N1_4  and  C2_5 
REMARK    5  A    between atoms: C2_5  and  O3_6 
REMARK    6  A    between atoms: C2_5  and  C3_8 
REMARK    7  A    between atoms: C3_8  and  C4_10 
REMARK    8  A    between atoms: C4_10  and  C5_11 
REMARK    9  A    between atoms: C4_10  and  C6_14 
REMARK       I    between atoms: C6_14  and  N2_16 
REMARK   10  A    between atoms: N2_16  and  C7_18 
ROOT
HETATM    1  C4  UNL     1      13.146   3.459   5.365  1.00  0.00     0.253 C 
ENDROOT
BRANCH   1   2
HETATM    2  C3  UNL     1      13.573   3.446   3.939  1.00  0.00     0.196 C 
HETATM    3  O4  UNL     1      12.873   4.135   3.164  1.00  0.00    -0.292 OA
BRANCH   2   4
HETATM    4  C2  UNL     1      14.735   2.704   3.392  1.00  0.00     0.310 C 
BRANCH   4   5
HETATM    5  N1  UNL     1      14.585   1.324   3.823  1.00  0.00    -0.051 NA
BRANCH   5   6
HETATM    6  O2  UNL     1      15.037   0.424   2.916  1.00  0.00    -0.200 OA
BRANCH   6   7
HETATM    7  C1  UNL     1      15.907  -0.609   3.164  1.00  0.00     0.313 C 
HETATM    8  O1  UNL     1      16.840  -0.405   3.973  1.00  0.00    -0.258 OA
BRANCH   7   9
HETATM    9  C8  UNL     1      15.723  -1.896   2.489  1.00  0.00     0.065 A 
HETATM   10  C9  UNL     1      16.659  -2.543   1.712  1.00  0.00     0.044 A 
HETATM   11  C10 UNL     1      16.077  -3.734   1.263  1.00  0.00     0.142 A 
HETATM   12  O8  UNL     1      14.875  -3.786   1.743  1.00  0.00    -0.334 OA
HETATM   13  C11 UNL     1      14.611  -2.712   2.483  1.00  0.00     0.159 A 
ENDBRANCH   7   9
ENDBRANCH   6   7
ENDBRANCH   5   6
ENDBRANCH   4   5
BRANCH   4  14
HETATM   14  O3  UNL     1      15.903   3.271   3.873  1.00  0.00    -0.371 OA
ATOM     15  H3  UNL     1      16.667   2.968   3.397  1.00  0.00     0.212 HD
ENDBRANCH   4  14
ENDBRANCH   2   4
ENDBRANCH   1   2
BRANCH   1  16
HETATM   16  C5  UNL     1      13.547   4.701   6.016  1.00  0.00     0.194 C 
HETATM   17  O5  UNL     1      13.132   4.936   7.194  1.00  0.00    -0.647 OA
HETATM   18  O6  UNL     1      14.365   5.623   5.377  1.00  0.00    -0.647 OA
ENDBRANCH   1  16
BRANCH   1  19
HETATM   19  C6  UNL     1      11.687   3.256   5.432  1.00  0.00     0.258 C 
HETATM   20  O7  UNL     1      11.169   2.147   5.244  1.00  0.00    -0.271 OA
HETATM   21  N2  UNL     1      10.856   4.358   5.720  1.00  0.00    -0.156 N 
ATOM     22  H2  UNL     1      10.720   4.631   6.693  1.00  0.00     0.187 HD
BRANCH  21  23
HETATM   23  C7  UNL     1      10.261   5.032   4.799  1.00  0.00     0.713 A 
HETATM   24  N3  UNL     1      10.145   4.682   3.512  1.00  0.00    -0.118 N 
HETATM   25  N4  UNL     1       9.469   5.644   2.919  1.00  0.00    -0.212 N 
ATOM     26  H3  UNL     1      10.509   3.835   3.076  1.00  0.00     0.207 HD
HETATM   27  N5  UNL     1       9.176   6.565   3.819  1.00  0.00     0.009 NA
ATOM     28  H4  UNL     1       9.215   5.673   1.931  1.00  0.00     0.206 HD
HETATM   29  N6  UNL     1       9.660   6.200   4.992  1.00  0.00    -0.113 N 
ATOM     30  H6  UNL     1       9.587   6.712   5.871  1.00  0.00     0.203 HD
ENDBRANCH  21  23
ENDBRANCH   1  19
TORSDOF 10
ENDMDL
MODEL 4
REMARK VINA RESULT: -8.200550095      1.768      2.631
REMARK  10 active torsions:
REMARK  status: ('A' for Active; 'I' for Inactive)
REMARK    1  A    between atoms: C1_2  and  O2_3 
REMARK    2  A    between atoms: C1_2  and  C8_26 
REMARK    3  A    between atoms: O2_3  and  N1_4 
REMARK    4  A    between atoms: N1_4  and  C2_5 
REMARK    5  A    between atoms: C2_5  and  O3_6 
REMARK    6  A    between atoms: C2_5  and  C3_8 
REMARK    7  A    between atoms: C3_8  and  C4_10 
REMARK    8  A    between atoms: C4_10  and  C5_11 
REMARK    9  A    between atoms: C4_10  and  C6_14 
REMARK       I    between atoms: C6_14  and  N2_16 
REMARK   10  A    between atoms: N2_16  and  C7_18 
ROOT
HETATM    1  C4  UNL     1      12.196   4.474   4.754  1.00  0.00     0.253 C 
ENDROOT
BRANCH   1   2
HETATM    2  C3  UNL     1      12.856   3.157   4.963  1.00  0.00     0.196 C 
HETATM    3  O4  UNL     1      12.149   2.285   5.516  1.00  0.00    -0.292 OA
BRANCH   2   4
HETATM    4  C2  UNL     1      14.243   2.814   4.569  1.00  0.00     0.310 C 
BRANCH   4   5
HETATM    5  N1  UNL     1      14.383   1.379   4.753  1.00  0.00    -0.051 NA
BRANCH   5   6
HETATM    6  O2  UNL     1      14.906   0.745   3.675  1.00  0.00    -0.200 OA
BRANCH   6   7
HETATM    7  C1  UNL     1      15.958  -0.137   3.686  1.00  0.00     0.313 C 
HETATM    8  O1  UNL     1      16.901   0.088   4.478  1.00  0.00    -0.258 OA
BRANCH   7   9
HETATM    9  C8  UNL     1      15.949  -1.294   2.788  1.00  0.00     0.065 A 
HETATM   10  C9  UNL     1      17.059  -1.970   2.328  1.00  0.00     0.044 A 
HETATM   11  C10 UNL     1      16.605  -3.002   1.500  1.00  0.00     0.142 A 
HETATM   12  O8  UNL     1      15.311  -2.940   1.471  1.00  0.00    -0.334 OA
HETATM   13  C11 UNL     1      14.867  -1.936   2.224  1.00  0.00     0.159 A 
ENDBRANCH   7   9
ENDBRANCH   6   7
ENDBRANCH   5   6
ENDBRANCH   4   5
BRANCH   4  14
HETATM   14  O3  UNL     1      15.129   3.525   5.361  1.00  0.00    -0.371 OA
ATOM     15  H3  UNL     1      14.701   4.241   5.816  1.00  0.00     0.212 HD
ENDBRANCH   4  14
ENDBRANCH   2   4
ENDBRANCH   1   2
BRANCH   1  16
HETATM   16  C5  UNL     1      12.179   5.249   5.991  1.00  0.00     0.194 C 
HETATM   17  O5  UNL     1      11.242   6.087   6.175  1.00  0.00    -0.647 OA
HETATM   18  O6  UNL     1      13.160   5.087   6.959  1.00  0.00    -0.647 OA
ENDBRANCH   1  16
BRANCH   1  19
HETATM   19  C6  UNL     1      12.891   5.196   3.671  1.00  0.00     0.258 C 
HETATM   20  O7  UNL     1      12.798   4.847   2.486  1.00  0.00    -0.271 OA
HETATM   21  N2  UNL     1      13.684   6.315   3.994  1.00  0.00    -0.156 N 
ATOM     22  H2  UNL     1      13.231   7.221   4.114  1.00  0.00     0.187 HD
BRANCH  21  23
HETATM   23  C7  UNL     1      14.960   6.236   4.142  1.00  0.00     0.713 A 
HETATM   24  N3  UNL     1      15.831   5.747   3.251  1.00  0.00    -0.118 N 
HETATM   25  N4  UNL     1      17.026   5.851   3.795  1.00  0.00    -0.212 N 
ATOM     26  H3  UNL     1      15.612   5.368   2.330  1.00  0.00     0.207 HD
HETATM   27  N5  UNL     1      16.894   6.391   4.993  1.00  0.00     0.009 NA
ATOM     28  H4  UNL     1      17.905   5.563   3.364  1.00  0.00     0.206 HD
HETATM   29  N6  UNL     1      15.618   6.636   5.224  1.00  0.00    -0.113 N 
ATOM     30  H6  UNL     1      15.216   7.051   6.065  1.00  0.00     0.203 HD
ENDBRANCH  21  23
ENDBRANCH   1  19
TORSDOF 10
ENDMDL
MODEL 5
REMARK VINA RESULT: -8.194638097      3.121      3.936
REMARK  10 active torsions:
REMARK  status: ('A' for Active; 'I' for Inactive)
REMARK    1  A    between atoms: C1_2  and  O2_3 
REMARK    2  A    between atoms: C1_2  and  C8_26 
REMARK    3  A    between atoms: O2_3  and  N1_4 
REMARK    4  A    between atoms: N1_4  and  C2_5 
REMARK    5  A    between atoms: C2_5  and  O3_6 
REMARK    6  A    between atoms: C2_5  and  C3_8 
REMARK    7  A    between atoms: C3_8  and  C4_10 
REMARK    8  A    between atoms: C4_10  and  C5_11 
REMARK    9  A    between atoms: C4_10  and  C6_14 
REMARK       I    between atoms: C6_14  and  N2_16 
REMARK   10  A    between atoms: N2_16  and  C7_18 
ROOT
HETATM    1  C4  UNL     1      12.384   3.554   5.180  1.00  0.00     0.253 C 
ENDROOT
BRANCH   1   2
HETATM    2  C3  UNL     1      13.333   2.422   4.996  1.00  0.00     0.196 C 
HETATM    3  O4  UNL     1      13.161   1.449   5.764  1.00  0.00    -0.292 OA
BRANCH   2   4
HETATM    4  C2  UNL     1      14.426   2.365   3.996  1.00  0.00     0.310 C 
BRANCH   4   5
HETATM    5  N1  UNL     1      14.990   1.028   4.076  1.00  0.00    -0.051 NA
BRANCH   5   6
HETATM    6  O2  UNL     1      15.049   0.395   2.879  1.00  0.00    -0.200 OA
BRANCH   6   7
HETATM    7  C1  UNL     1      15.180  -0.957   2.683  1.00  0.00     0.313 C 
HETATM    8  O1  UNL     1      14.522  -1.480   1.755  1.00  0.00    -0.258 OA
BRANCH   7   9
HETATM    9  C8  UNL     1      16.069  -1.737   3.548  1.00  0.00     0.065 A 
HETATM   10  C9  UNL     1      15.685  -2.480   4.644  1.00  0.00     0.044 A 
HETATM   11  C10 UNL     1      16.840  -3.061   5.179  1.00  0.00     0.142 A 
HETATM   12  O8  UNL     1      17.841  -2.685   4.448  1.00  0.00    -0.334 OA
HETATM   13  C11 UNL     1      17.436  -1.892   3.458  1.00  0.00     0.159 A 
ENDBRANCH   7   9
ENDBRANCH   6   7
ENDBRANCH   5   6
ENDBRANCH   4   5
BRANCH   4  14
HETATM   14  O3  UNL     1      15.363   3.340   4.292  1.00  0.00    -0.371 OA
ATOM     15  H3  UNL     1      15.344   4.053   3.663  1.00  0.00     0.212 HD
ENDBRANCH   4  14
ENDBRANCH   2   4
ENDBRANCH   1   2
BRANCH   1  16
HETATM   16  C5  UNL     1      12.719   4.325   6.373  1.00  0.00     0.194 C 
HETATM   17  O5  UNL     1      11.776   4.789   7.087  1.00  0.00    -0.647 OA
HETATM   18  O6  UNL     1      14.038   4.558   6.736  1.00  0.00    -0.647 OA
ENDBRANCH   1  16
BRANCH   1  19
HETATM   19  C6  UNL     1      12.396   4.395   3.968  1.00  0.00     0.258 C 
HETATM   20  O7  UNL     1      13.179   5.347   3.839  1.00  0.00    -0.271 OA
HETATM   21  N2  UNL     1      11.491   4.108   2.927  1.00  0.00    -0.156 N 
ATOM     22  H2  UNL     1      11.732   3.381   2.253  1.00  0.00     0.187 HD
BRANCH  21  23
HETATM   23  C7  UNL     1      10.373   4.729   2.794  1.00  0.00     0.713 A 
HETATM   24  N3  UNL     1       9.430   4.474   1.879  1.00  0.00    -0.118 N 
HETATM   25  N4  UNL     1       8.455   5.335   2.092  1.00  0.00    -0.212 N 
ATOM     26  H3  UNL     1       9.460   3.755   1.158  1.00  0.00     0.207 HD
HETATM   27  N5  UNL     1       8.790   6.101   3.114  1.00  0.00     0.009 NA
ATOM     28  H4  UNL     1       7.588   5.398   1.558  1.00  0.00     0.206 HD
HETATM   29  N6  UNL     1       9.978   5.739   3.562  1.00  0.00    -0.113 N 
ATOM     30  H6  UNL     1      10.490   6.151   4.341  1.00  0.00     0.203 HD
ENDBRANCH  21  23
ENDBRANCH   1  19
TORSDOF 10
ENDMDL
