MODEL 1
REMARK VINA RESULT: -6.564903820      0.000      0.000
REMARK  4 active torsions:
REMARK  status: ('A' for Active; 'I' for Inactive)
REMARK    1  A    between atoms: C2_2  and  C4_5 
REMARK    2  A    between atoms: C4_5  and  N1_6 
REMARK    3  A    between atoms: N1_6  and  C5_8 
REMARK    4  A    between atoms: C7_12  and  C8_13 
ROOT
HETATM    1  C5  UNL     1      -2.681   5.947  13.780  1.00  0.00     0.215 C 
HETATM    2  S1  UNL     1      -4.064   6.044  12.614  1.00  0.00    -0.116 SA
HETATM    3  C6  UNL     1      -5.245   5.187  13.744  1.00  0.00     0.208 C 
HETATM    4  N2  UNL     1      -4.314   4.353  14.482  1.00  0.00    -0.312 N 
HETATM    5  C7  UNL     1      -4.410   3.223  15.208  1.00  0.00     0.104 A 
HETATM    6  N4  UNL     1      -3.188   2.874  15.696  1.00  0.00    -0.287 N 
ATOM      7  H4  UNL     1      -2.957   2.068  16.278  1.00  0.00     0.188 HD
HETATM    8  N5  UNL     1      -2.381   3.793  15.260  1.00  0.00    -0.285 N 
ATOM      9  H5  UNL     1      -1.379   3.827  15.449  1.00  0.00     0.188 HD
HETATM   10  C13 UNL     1      -3.069   4.709  14.509  1.00  0.00     0.134 A 
ENDROOT
BRANCH   5  11
HETATM   11  C8  UNL     1      -5.624   2.390  15.482  1.00  0.00     0.058 C 
HETATM   12  C9  UNL     1      -5.151   1.059  15.964  1.00  0.00     0.040 C 
HETATM   13  C10 UNL     1      -5.868   0.549  17.188  1.00  0.00     0.233 C 
HETATM   14  N3  UNL     1      -7.263   0.944  17.074  1.00  0.00    -0.075 N 
HETATM   15  C11 UNL     1      -7.296   2.371  17.380  1.00  0.00     0.233 C 
ATOM     16  H32 UNL     1      -7.682   0.710  16.174  1.00  0.00     0.277 HD
ATOM     17  H31 UNL     1      -7.893   0.388  17.651  1.00  0.00     0.277 HD
HETATM   18  C12 UNL     1      -6.420   3.182  16.499  1.00  0.00     0.040 C 
ENDBRANCH   5  11
BRANCH   1  19
HETATM   19  N1  UNL     1      -1.391   5.881  13.252  1.00  0.00    -0.379 N 
ATOM     20  H1  UNL     1      -0.586   6.019  13.862  1.00  0.00     0.160 HD
BRANCH  19  21
HETATM   21  C4  UNL     1      -1.197   5.625  11.892  1.00  0.00     0.091 C 
BRANCH  21  22
HETATM   22  C2  UNL     1      -0.872   4.227  11.496  1.00  0.00    -0.036 C 
HETATM   23  C1  UNL     1       0.578   3.977  11.140  1.00  0.00     0.050 C 
HETATM   24  C3  UNL     1      -1.706   3.224  11.419  1.00  0.00     0.092 C 
HETATM   25 CL1  UNL     1      -1.161   1.638  10.929  1.00  0.00    -0.096 Cl
ENDBRANCH  21  22
ENDBRANCH  19  21
ENDBRANCH   1  19
TORSDOF 4
ENDMDL
MODEL 2
REMARK VINA RESULT: -6.267091144      1.878      2.193
REMARK  4 active torsions:
REMARK  status: ('A' for Active; 'I' for Inactive)
REMARK    1  A    between atoms: C2_2  and  C4_5 
REMARK    2  A    between atoms: C4_5  and  N1_6 
REMARK    3  A    between atoms: N1_6  and  C5_8 
REMARK    4  A    between atoms: C7_12  and  C8_13 
ROOT
HETATM    1  C5  UNL     1      -2.104   4.083  12.155  1.00  0.00     0.215 C 
HETATM    2  S1  UNL     1      -2.906   2.876  11.068  1.00  0.00    -0.116 SA
HETATM    3  C6  UNL     1      -4.451   2.804  12.074  1.00  0.00     0.208 C 
HETATM    4  N2  UNL     1      -3.904   3.109  13.383  1.00  0.00    -0.312 N 
HETATM    5  C7  UNL     1      -4.298   2.907  14.655  1.00  0.00     0.104 A 
HETATM    6  N4  UNL     1      -3.377   3.419  15.518  1.00  0.00    -0.287 N 
ATOM      7  H4  UNL     1      -3.408   3.413  16.538  1.00  0.00     0.188 HD
HETATM    8  N5  UNL     1      -2.450   3.917  14.757  1.00  0.00    -0.285 N 
ATOM      9  H5  UNL     1      -1.606   4.381  15.093  1.00  0.00     0.188 HD
HETATM   10  C13 UNL     1      -2.769   3.728  13.439  1.00  0.00     0.134 A 
ENDROOT
BRANCH   5  11
HETATM   11  C8  UNL     1      -5.532   2.220  15.153  1.00  0.00     0.058 C 
HETATM   12  C9  UNL     1      -5.097   0.982  15.864  1.00  0.00     0.040 C 
HETATM   13  C10 UNL     1      -5.758   0.766  17.200  1.00  0.00     0.233 C 
HETATM   14  N3  UNL     1      -7.136   1.217  17.084  1.00  0.00    -0.075 N 
HETATM   15  C11 UNL     1      -7.078   2.675  17.103  1.00  0.00     0.233 C 
ATOM     16  H32 UNL     1      -7.623   0.838  16.272  1.00  0.00     0.277 HD
ATOM     17  H31 UNL     1      -7.756   0.824  17.793  1.00  0.00     0.277 HD
HETATM   18  C12 UNL     1      -6.221   3.243  16.033  1.00  0.00     0.040 C 
ENDBRANCH   5  11
BRANCH   1  19
HETATM   19  N1  UNL     1      -0.712   4.054  12.241  1.00  0.00    -0.379 N 
ATOM     20  H1  UNL     1      -0.257   3.399  12.877  1.00  0.00     0.160 HD
BRANCH  19  21
HETATM   21  C4  UNL     1       0.062   4.917  11.461  1.00  0.00     0.091 C 
BRANCH  21  22
HETATM   22  C2  UNL     1       0.995   4.301  10.477  1.00  0.00    -0.036 C 
HETATM   23  C1  UNL     1       0.351   3.378   9.465  1.00  0.00     0.050 C 
HETATM   24  C3  UNL     1       2.289   4.473  10.416  1.00  0.00     0.092 C 
HETATM   25 CL1  UNL     1       3.247   3.667   9.197  1.00  0.00    -0.096 Cl
ENDBRANCH  21  22
ENDBRANCH  19  21
ENDBRANCH   1  19
TORSDOF 4
ENDMDL
MODEL 3
REMARK VINA RESULT: -6.246010306      2.571      3.039
REMARK  4 active torsions:
REMARK  status: ('A' for Active; 'I' for Inactive)
REMARK    1  A    between atoms: C2_2  and  C4_5 
REMARK    2  A    between atoms: C4_5  and  N1_6 
REMARK    3  A    between atoms: N1_6  and  C5_8 
REMARK    4  A    between atoms: C7_12  and  C8_13 
ROOT
HETATM    1  C5  UNL     1      -2.448   1.926  11.193  1.00  0.00     0.215 C 
HETATM    2  S1  UNL     1      -3.165   0.262  11.178  1.00  0.00    -0.116 SA
HETATM    3  C6  UNL     1      -4.690   0.771  12.083  1.00  0.00     0.208 C 
HETATM    4  N2  UNL     1      -4.156   1.874  12.861  1.00  0.00    -0.312 N 
HETATM    5  C7  UNL     1      -4.521   2.515  13.987  1.00  0.00     0.104 A 
HETATM    6  N4  UNL     1      -3.634   3.510  14.269  1.00  0.00    -0.287 N 
ATOM      7  H4  UNL     1      -3.655   4.158  15.056  1.00  0.00     0.188 HD
HETATM    8  N5  UNL     1      -2.755   3.451  13.314  1.00  0.00    -0.285 N 
ATOM      9  H5  UNL     1      -1.947   4.067  13.227  1.00  0.00     0.188 HD
HETATM   10  C13 UNL     1      -3.071   2.444  12.442  1.00  0.00     0.134 A 
ENDROOT
BRANCH   5  11
HETATM   11  C8  UNL     1      -5.693   2.243  14.878  1.00  0.00     0.058 C 
HETATM   12  C9  UNL     1      -5.229   1.321  15.956  1.00  0.00     0.040 C 
HETATM   13  C10 UNL     1      -5.656   1.721  17.345  1.00  0.00     0.233 C 
HETATM   14  N3  UNL     1      -6.997   2.277  17.247  1.00  0.00    -0.075 N 
HETATM   15  C11 UNL     1      -6.831   3.610  16.677  1.00  0.00     0.233 C 
ATOM     16  H32 UNL     1      -7.646   1.688  16.726  1.00  0.00     0.277 HD
ATOM     17  H31 UNL     1      -7.507   2.271  18.129  1.00  0.00     0.277 HD
HETATM   18  C12 UNL     1      -6.139   3.607  15.365  1.00  0.00     0.040 C 
ENDBRANCH   5  11
BRANCH   1  19
HETATM   19  N1  UNL     1      -1.057   2.033  11.199  1.00  0.00    -0.379 N 
ATOM     20  H1  UNL     1      -0.515   1.556  11.918  1.00  0.00     0.160 HD
BRANCH  19  21
HETATM   21  C4  UNL     1      -0.403   2.792  10.224  1.00  0.00     0.091 C 
BRANCH  21  22
HETATM   22  C2  UNL     1       0.438   3.929  10.689  1.00  0.00    -0.036 C 
HETATM   23  C1  UNL     1       1.833   3.982  10.103  1.00  0.00     0.050 C 
HETATM   24  C3  UNL     1       0.094   4.855  11.543  1.00  0.00     0.092 C 
HETATM   25 CL1  UNL     1       1.209   6.125  11.991  1.00  0.00    -0.096 Cl
ENDBRANCH  21  22
ENDBRANCH  19  21
ENDBRANCH   1  19
TORSDOF 4
ENDMDL
MODEL 4
REMARK VINA RESULT: -6.176838497      1.971      2.209
REMARK  4 active torsions:
REMARK  status: ('A' for Active; 'I' for Inactive)
REMARK    1  A    between atoms: C2_2  and  C4_5 
REMARK    2  A    between atoms: C4_5  and  N1_6 
REMARK    3  A    between atoms: N1_6  and  C5_8 
REMARK    4  A    between atoms: C7_12  and  C8_13 
ROOT
HETATM    1  C5  UNL     1      -2.191   3.433  11.958  1.00  0.00     0.215 C 
HETATM    2  S1  UNL     1      -2.861   1.898  11.269  1.00  0.00    -0.116 SA
HETATM    3  C6  UNL     1      -4.461   2.038  12.176  1.00  0.00     0.208 C 
HETATM    4  N2  UNL     1      -4.015   2.769  13.348  1.00  0.00    -0.312 N 
HETATM    5  C7  UNL     1      -4.478   2.945  14.600  1.00  0.00     0.104 A 
HETATM    6  N4  UNL     1      -3.640   3.760  15.299  1.00  0.00    -0.287 N 
ATOM      7  H4  UNL     1      -3.736   4.068  16.267  1.00  0.00     0.188 HD
HETATM    8  N5  UNL     1      -2.692   4.059  14.464  1.00  0.00    -0.285 N 
ATOM      9  H5  UNL     1      -1.896   4.660  14.675  1.00  0.00     0.188 HD
HETATM   10  C13 UNL     1      -2.917   3.450  13.257  1.00  0.00     0.134 A 
ENDROOT
BRANCH   5  11
HETATM   11  C8  UNL     1      -5.706   2.365  15.232  1.00  0.00     0.058 C 
HETATM   12  C9  UNL     1      -5.270   1.215  16.077  1.00  0.00     0.040 C 
HETATM   13  C10 UNL     1      -5.876   1.190  17.456  1.00  0.00     0.233 C 
HETATM   14  N3  UNL     1      -7.246   1.664  17.340  1.00  0.00    -0.075 N 
HETATM   15  C11 UNL     1      -7.151   3.110  17.169  1.00  0.00     0.233 C 
ATOM     16  H32 UNL     1      -7.778   1.200  16.604  1.00  0.00     0.277 HD
ATOM     17  H31 UNL     1      -7.843   1.384  18.118  1.00  0.00     0.277 HD
HETATM   18  C12 UNL     1      -6.328   3.512  16.001  1.00  0.00     0.040 C 
ENDBRANCH   5  11
BRANCH   1  19
HETATM   19  N1  UNL     1      -0.807   3.526  12.112  1.00  0.00    -0.379 N 
ATOM     20  H1  UNL     1      -0.330   2.926  12.784  1.00  0.00     0.160 HD
BRANCH  19  21
HETATM   21  C4  UNL     1      -0.072   4.437  11.349  1.00  0.00     0.091 C 
BRANCH  21  22
HETATM   22  C2  UNL     1       0.376   3.998   9.999  1.00  0.00    -0.036 C 
HETATM   23  C1  UNL     1       1.867   3.776   9.853  1.00  0.00     0.050 C 
HETATM   24  C3  UNL     1      -0.380   3.801   8.953  1.00  0.00     0.092 C 
HETATM   25 CL1  UNL     1       0.307   3.289   7.429  1.00  0.00    -0.096 Cl
ENDBRANCH  21  22
ENDBRANCH  19  21
ENDBRANCH   1  19
TORSDOF 4
ENDMDL
MODEL 5
REMARK VINA RESULT: -6.158243060      4.085      6.012
REMARK  4 active torsions:
REMARK  status: ('A' for Active; 'I' for Inactive)
REMARK    1  A    between atoms: C2_2  and  C4_5 
REMARK    2  A    between atoms: C4_5  and  N1_6 
REMARK    3  A    between atoms: N1_6  and  C5_8 
REMARK    4  A    between atoms: C7_12  and  C8_13 
ROOT
HETATM    1  C5  UNL     1      -2.575   2.807  11.243  1.00  0.00     0.215 C 
HETATM    2  S1  UNL     1      -4.139   3.572  10.744  1.00  0.00    -0.116 SA
HETATM    3  C6  UNL     1      -3.535   5.293  11.022  1.00  0.00     0.208 C 
HETATM    4  N2  UNL     1      -2.568   5.045  12.075  1.00  0.00    -0.312 N 
HETATM    5  C7  UNL     1      -1.983   5.790  13.032  1.00  0.00     0.104 A 
HETATM    6  N4  UNL     1      -1.122   5.027  13.760  1.00  0.00    -0.287 N 
ATOM      7  H4  UNL     1      -0.542   5.321  14.546  1.00  0.00     0.188 HD
HETATM    8  N5  UNL     1      -1.202   3.842  13.235  1.00  0.00    -0.285 N 
ATOM      9  H5  UNL     1      -0.677   3.027  13.551  1.00  0.00     0.188 HD
HETATM   10  C13 UNL     1      -2.093   3.846  12.194  1.00  0.00     0.134 A 
ENDROOT
BRANCH   5  11
HETATM   11  C8  UNL     1      -2.191   7.240  13.343  1.00  0.00     0.058 C 
HETATM   12  C9  UNL     1      -2.582   7.335  14.780  1.00  0.00     0.040 C 
HETATM   13  C10 UNL     1      -1.848   8.398  15.557  1.00  0.00     0.233 C 
HETATM   14  N3  UNL     1      -1.658   9.535  14.670  1.00  0.00    -0.075 N 
HETATM   15  C11 UNL     1      -0.586   9.151  13.758  1.00  0.00     0.233 C 
ATOM     16  H32 UNL     1      -2.512   9.830  14.196  1.00  0.00     0.277 HD
ATOM     17  H31 UNL     1      -1.483  10.411  15.161  1.00  0.00     0.277 HD
HETATM   18  C12 UNL     1      -0.873   7.906  13.004  1.00  0.00     0.040 C 
ENDBRANCH   5  11
BRANCH   1  19
HETATM   19  N1  UNL     1      -2.627   1.535  11.815  1.00  0.00    -0.379 N 
ATOM     20  H1  UNL     1      -3.036   1.412  12.740  1.00  0.00     0.160 HD
BRANCH  19  21
HETATM   21  C4  UNL     1      -2.122   0.430  11.125  1.00  0.00     0.091 C 
BRANCH  21  22
HETATM   22  C2  UNL     1      -2.868  -0.853  11.244  1.00  0.00    -0.036 C 
HETATM   23  C1  UNL     1      -4.353  -0.715  11.509  1.00  0.00     0.050 C 
HETATM   24  C3  UNL     1      -2.370  -2.057  11.153  1.00  0.00     0.092 C 
HETATM   25 CL1  UNL     1      -3.387  -3.468  11.324  1.00  0.00    -0.096 Cl
ENDBRANCH  21  22
ENDBRANCH  19  21
ENDBRANCH   1  19
TORSDOF 4
ENDMDL
