MODEL 1
REMARK VINA RESULT: -7.449905168      0.000      0.000
REMARK  9 active torsions:
REMARK  status: ('A' for Active; 'I' for Inactive)
REMARK    1  A    between atoms: C2_2  and  C3_3 
REMARK    2  A    between atoms: C3_3  and  C4_4 
REMARK    3  A    between atoms: C3_3  and  N1_6 
REMARK    4  A    between atoms: N1_6  and  C6_8 
REMARK    5  A    between atoms: C7_11  and  N3_12 
REMARK    6  A    between atoms: C10_15  and  N4_16 
REMARK    7  A    between atoms: C10_15  and  C11_20 
REMARK    8  A    between atoms: C11_20  and  O2_22 
REMARK    9  A    between atoms: O2_22  and  C12_23 
ROOT
HETATM    1  C12 UNL     1      -4.933   1.750  15.043  1.00  0.00     0.234 C 
HETATM    2  C13 UNL     1      -4.343   3.046  15.616  1.00  0.00     0.056 C 
HETATM    3  C14 UNL     1      -5.222   0.800  16.104  1.00  0.00     0.091 C 
HETATM    4  N5  UNL     1      -5.446   0.069  16.949  1.00  0.00    -0.195 NA
ENDROOT
BRANCH   1   5
HETATM    5  O2  UNL     1      -3.984   1.218  14.179  1.00  0.00    -0.300 OA
BRANCH   5   6
HETATM    6  C11 UNL     1      -4.210   0.581  12.993  1.00  0.00     0.296 C 
HETATM    7  O1  UNL     1      -4.506  -0.637  13.041  1.00  0.00    -0.262 OA
BRANCH   6   8
HETATM    8  C10 UNL     1      -4.130   1.216  11.658  1.00  0.00     0.213 C 
HETATM    9  C9  UNL     1      -3.142   0.485  10.805  1.00  0.00     0.070 C 
HETATM   10  C8  UNL     1      -1.728   0.997  10.924  1.00  0.00     0.144 C 
HETATM   11  N3  UNL     1      -1.652   2.405  10.628  1.00  0.00    -0.217 N 
HETATM   12  C16 UNL     1      -2.899   3.159  10.669  1.00  0.00     0.144 C 
HETATM   13  C15 UNL     1      -3.727   2.653  11.843  1.00  0.00     0.070 C 
BRANCH  11  14
HETATM   14  C7  UNL     1      -0.462   3.083  10.306  1.00  0.00     0.681 A 
HETATM   15  N2  UNL     1       0.213   3.721  11.310  1.00  0.00    -0.174 N 
HETATM   16  C6  UNL     1       1.350   4.380  11.066  1.00  0.00     0.157 A 
ATOM     17  H2  UNL     1      -0.156   3.693  12.260  1.00  0.00     0.186 HD
HETATM   18  C18 UNL     1       1.823   4.396   9.759  1.00  0.00     0.176 A 
HETATM   19  C17 UNL     1       1.150   3.752   8.720  1.00  0.00     0.152 A 
HETATM   20  F1  UNL     1       2.974   5.069   9.529  1.00  0.00    -0.201 F 
HETATM   21  N6  UNL     1       0.018   3.114   9.055  1.00  0.00    -0.199 N 
ATOM     22  H6  UNL     1      -0.502   2.630   8.323  1.00  0.00     0.183 HD
BRANCH  16  23
HETATM   23  N1  UNL     1       2.007   4.987  11.974  1.00  0.00    -0.369 N 
ATOM     24  H1  UNL     1       2.340   4.444  12.771  1.00  0.00     0.161 HD
BRANCH  23  25
HETATM   25  C3  UNL     1       2.305   6.394  11.941  1.00  0.00     0.082 C 
BRANCH  25  26
HETATM   26  C2  UNL     1       3.469   6.659  12.871  1.00  0.00     0.021 C 
HETATM   27  C1  UNL     1       4.290   5.408  13.102  1.00  0.00     0.007 C 
ENDBRANCH  25  26
BRANCH  25  28
HETATM   28  C4  UNL     1       1.087   7.204  12.350  1.00  0.00     0.021 C 
HETATM   29  C5  UNL     1       1.505   8.565  12.847  1.00  0.00     0.007 C 
ENDBRANCH  25  28
ENDBRANCH  23  25
ENDBRANCH  16  23
ENDBRANCH  11  14
BRANCH   8  30
HETATM   30  N4  UNL     1      -5.418   1.203  10.980  1.00  0.00    -0.061 N 
ATOM     31  H43 UNL     1      -5.796   2.140  10.838  1.00  0.00     0.275 HD
ATOM     32  H42 UNL     1      -5.344   0.933  10.000  1.00  0.00     0.275 HD
ATOM     33  H41 UNL     1      -6.052   0.601  11.506  1.00  0.00     0.275 HD
ENDBRANCH   8  30
ENDBRANCH   6   8
ENDBRANCH   5   6
ENDBRANCH   1   5
TORSDOF 9
ENDMDL
MODEL 2
REMARK VINA RESULT: -7.399193725      4.277      6.369
REMARK  9 active torsions:
REMARK  status: ('A' for Active; 'I' for Inactive)
REMARK    1  A    between atoms: C2_2  and  C3_3 
REMARK    2  A    between atoms: C3_3  and  C4_4 
REMARK    3  A    between atoms: C3_3  and  N1_6 
REMARK    4  A    between atoms: N1_6  and  C6_8 
REMARK    5  A    between atoms: C7_11  and  N3_12 
REMARK    6  A    between atoms: C10_15  and  N4_16 
REMARK    7  A    between atoms: C10_15  and  C11_20 
REMARK    8  A    between atoms: C11_20  and  O2_22 
REMARK    9  A    between atoms: O2_22  and  C12_23 
ROOT
HETATM    1  C12 UNL     1      -6.772   2.015  17.540  1.00  0.00     0.234 C 
HETATM    2  C13 UNL     1      -6.570   2.292  19.036  1.00  0.00     0.056 C 
HETATM    3  C14 UNL     1      -6.252   0.708  17.180  1.00  0.00     0.091 C 
HETATM    4  N5  UNL     1      -5.842  -0.322  16.917  1.00  0.00    -0.195 NA
ENDROOT
BRANCH   1   5
HETATM    5  O2  UNL     1      -6.085   3.004  16.848  1.00  0.00    -0.300 OA
BRANCH   5   6
HETATM    6  C11 UNL     1      -5.843   3.059  15.505  1.00  0.00     0.296 C 
HETATM    7  O1  UNL     1      -6.837   3.123  14.743  1.00  0.00    -0.262 OA
BRANCH   6   8
HETATM    8  C10 UNL     1      -4.500   3.049  14.882  1.00  0.00     0.213 C 
HETATM    9  C9  UNL     1      -4.002   4.450  14.725  1.00  0.00     0.070 C 
HETATM   10  C8  UNL     1      -4.393   5.100  13.421  1.00  0.00     0.144 C 
HETATM   11  N3  UNL     1      -3.959   4.319  12.292  1.00  0.00    -0.217 N 
HETATM   12  C16 UNL     1      -3.611   2.926  12.545  1.00  0.00     0.144 C 
HETATM   13  C15 UNL     1      -4.604   2.358  13.549  1.00  0.00     0.070 C 
BRANCH  11  14
HETATM   14  C7  UNL     1      -3.853   4.815  10.980  1.00  0.00     0.681 A 
HETATM   15  N2  UNL     1      -4.851   5.624  10.509  1.00  0.00    -0.174 N 
HETATM   16  C6  UNL     1      -4.804   6.126   9.271  1.00  0.00     0.157 A 
ATOM     17  H2  UNL     1      -5.642   5.847  11.112  1.00  0.00     0.186 HD
HETATM   18  C18 UNL     1      -3.710   5.799   8.479  1.00  0.00     0.176 A 
HETATM   19  C17 UNL     1      -2.682   4.976   8.938  1.00  0.00     0.152 A 
HETATM   20  F1  UNL     1      -3.679   6.315   7.228  1.00  0.00    -0.201 F 
HETATM   21  N6  UNL     1      -2.809   4.517  10.194  1.00  0.00    -0.199 N 
ATOM     22  H6  UNL     1      -2.077   3.913  10.566  1.00  0.00     0.183 HD
BRANCH  16  23
HETATM   23  N1  UNL     1      -5.714   6.882   8.796  1.00  0.00    -0.369 N 
ATOM     24  H1  UNL     1      -5.469   7.501   8.024  1.00  0.00     0.161 HD
BRANCH  23  25
HETATM   25  C3  UNL     1      -7.066   6.911   9.286  1.00  0.00     0.082 C 
BRANCH  25  26
HETATM   26  C2  UNL     1      -8.007   6.823   8.104  1.00  0.00     0.021 C 
HETATM   27  C1  UNL     1      -9.061   7.910   8.153  1.00  0.00     0.007 C 
ENDBRANCH  25  26
BRANCH  25  28
HETATM   28  C4  UNL     1      -7.312   8.180  10.084  1.00  0.00     0.021 C 
HETATM   29  C5  UNL     1      -7.355   7.871  11.560  1.00  0.00     0.007 C 
ENDBRANCH  25  28
ENDBRANCH  23  25
ENDBRANCH  16  23
ENDBRANCH  11  14
BRANCH   8  30
HETATM   30  N4  UNL     1      -3.541   2.309  15.689  1.00  0.00    -0.061 N 
ATOM     31  H43 UNL     1      -3.977   1.566  16.235  1.00  0.00     0.275 HD
ATOM     32  H42 UNL     1      -2.924   1.724  15.127  1.00  0.00     0.275 HD
ATOM     33  H41 UNL     1      -3.030   2.973  16.270  1.00  0.00     0.275 HD
ENDBRANCH   8  30
ENDBRANCH   6   8
ENDBRANCH   5   6
ENDBRANCH   1   5
TORSDOF 9
ENDMDL
MODEL 3
REMARK VINA RESULT: -7.343386130      1.606      3.526
REMARK  9 active torsions:
REMARK  status: ('A' for Active; 'I' for Inactive)
REMARK    1  A    between atoms: C2_2  and  C3_3 
REMARK    2  A    between atoms: C3_3  and  C4_4 
REMARK    3  A    between atoms: C3_3  and  N1_6 
REMARK    4  A    between atoms: N1_6  and  C6_8 
REMARK    5  A    between atoms: C7_11  and  N3_12 
REMARK    6  A    between atoms: C10_15  and  N4_16 
REMARK    7  A    between atoms: C10_15  and  C11_20 
REMARK    8  A    between atoms: C11_20  and  O2_22 
REMARK    9  A    between atoms: O2_22  and  C12_23 
ROOT
HETATM    1  C12 UNL     1      -4.918   1.695  14.956  1.00  0.00     0.234 C 
HETATM    2  C13 UNL     1      -4.345   3.019  15.479  1.00  0.00     0.056 C 
HETATM    3  C14 UNL     1      -5.165   0.770  16.049  1.00  0.00     0.091 C 
HETATM    4  N5  UNL     1      -5.356   0.059  16.918  1.00  0.00    -0.195 NA
ENDROOT
BRANCH   1   5
HETATM    5  O2  UNL     1      -3.976   1.159  14.087  1.00  0.00    -0.300 OA
BRANCH   5   6
HETATM    6  C11 UNL     1      -4.210   0.518  12.904  1.00  0.00     0.296 C 
HETATM    7  O1  UNL     1      -4.562  -0.684  12.961  1.00  0.00    -0.262 OA
BRANCH   6   8
HETATM    8  C10 UNL     1      -4.079   1.133  11.563  1.00  0.00     0.213 C 
HETATM    9  C9  UNL     1      -3.006   0.436  10.788  1.00  0.00     0.070 C 
HETATM   10  C8  UNL     1      -1.628   1.020  10.982  1.00  0.00     0.144 C 
HETATM   11  N3  UNL     1      -1.602   2.424  10.662  1.00  0.00    -0.217 N 
HETATM   12  C16 UNL     1      -2.884   3.116  10.612  1.00  0.00     0.144 C 
HETATM   13  C15 UNL     1      -3.757   2.591  11.743  1.00  0.00     0.070 C 
BRANCH  11  14
HETATM   14  C7  UNL     1      -0.428   3.154  10.399  1.00  0.00     0.681 A 
HETATM   15  N2  UNL     1      -0.153   3.495   9.103  1.00  0.00    -0.174 N 
HETATM   16  C6  UNL     1       0.946   4.189   8.792  1.00  0.00     0.157 A 
ATOM     17  H2  UNL     1      -0.796   3.215   8.363  1.00  0.00     0.186 HD
HETATM   18  C18 UNL     1       1.799   4.553   9.828  1.00  0.00     0.176 A 
HETATM   19  C17 UNL     1       1.537   4.216  11.156  1.00  0.00     0.152 A 
HETATM   20  F1  UNL     1       2.907   5.255   9.495  1.00  0.00    -0.201 F 
HETATM   21  N6  UNL     1       0.411   3.519  11.378  1.00  0.00    -0.199 N 
ATOM     22  H6  UNL     1       0.185   3.254  12.336  1.00  0.00     0.183 HD
BRANCH  16  23
HETATM   23  N1  UNL     1       1.238   4.524   7.598  1.00  0.00    -0.369 N 
ATOM     24  H1  UNL     1       1.282   5.519   7.375  1.00  0.00     0.161 HD
BRANCH  23  25
HETATM   25  C3  UNL     1       1.509   3.582   6.545  1.00  0.00     0.082 C 
BRANCH  25  26
HETATM   26  C2  UNL     1       2.996   3.302   6.524  1.00  0.00     0.021 C 
HETATM   27  C1  UNL     1       3.346   2.245   5.496  1.00  0.00     0.007 C 
ENDBRANCH  25  26
BRANCH  25  28
HETATM   28  C4  UNL     1       1.040   4.131   5.209  1.00  0.00     0.021 C 
HETATM   29  C5  UNL     1      -0.338   4.731   5.344  1.00  0.00     0.007 C 
ENDBRANCH  25  28
ENDBRANCH  23  25
ENDBRANCH  16  23
ENDBRANCH  11  14
BRANCH   8  30
HETATM   30  N4  UNL     1      -5.321   1.044  10.809  1.00  0.00    -0.061 N 
ATOM     31  H43 UNL     1      -5.172   0.768   9.839  1.00  0.00     0.275 HD
ATOM     32  H42 UNL     1      -5.896   0.251  11.093  1.00  0.00     0.275 HD
ATOM     33  H41 UNL     1      -5.811   1.934  10.892  1.00  0.00     0.275 HD
ENDBRANCH   8  30
ENDBRANCH   6   8
ENDBRANCH   5   6
ENDBRANCH   1   5
TORSDOF 9
ENDMDL
MODEL 4
REMARK VINA RESULT: -7.334714003      2.321      3.102
REMARK  9 active torsions:
REMARK  status: ('A' for Active; 'I' for Inactive)
REMARK    1  A    between atoms: C2_2  and  C3_3 
REMARK    2  A    between atoms: C3_3  and  C4_4 
REMARK    3  A    between atoms: C3_3  and  N1_6 
REMARK    4  A    between atoms: N1_6  and  C6_8 
REMARK    5  A    between atoms: C7_11  and  N3_12 
REMARK    6  A    between atoms: C10_15  and  N4_16 
REMARK    7  A    between atoms: C10_15  and  C11_20 
REMARK    8  A    between atoms: C11_20  and  O2_22 
REMARK    9  A    between atoms: O2_22  and  C12_23 
ROOT
HETATM    1  C12 UNL     1      -6.013   1.874  16.326  1.00  0.00     0.234 C 
HETATM    2  C13 UNL     1      -6.511   1.895  17.777  1.00  0.00     0.056 C 
HETATM    3  C14 UNL     1      -4.784   1.108  16.212  1.00  0.00     0.091 C 
HETATM    4  N5  UNL     1      -3.823   0.501  16.139  1.00  0.00    -0.195 NA
ENDROOT
BRANCH   1   5
HETATM    5  O2  UNL     1      -5.785   3.193  15.955  1.00  0.00    -0.300 OA
BRANCH   5   6
HETATM    6  C11 UNL     1      -5.486   3.663  14.709  1.00  0.00     0.296 C 
HETATM    7  O1  UNL     1      -6.089   3.147  13.738  1.00  0.00    -0.262 OA
BRANCH   6   8
HETATM    8  C10 UNL     1      -4.505   4.734  14.417  1.00  0.00     0.213 C 
HETATM    9  C9  UNL     1      -4.649   5.182  12.997  1.00  0.00     0.070 C 
HETATM   10  C8  UNL     1      -3.807   4.403  12.017  1.00  0.00     0.144 C 
HETATM   11  N3  UNL     1      -2.413   4.435  12.379  1.00  0.00    -0.217 N 
HETATM   12  C16 UNL     1      -2.094   4.819  13.749  1.00  0.00     0.144 C 
HETATM   13  C15 UNL     1      -3.125   4.192  14.676  1.00  0.00     0.070 C 
BRANCH  11  14
HETATM   14  C7  UNL     1      -1.360   4.122  11.501  1.00  0.00     0.681 A 
HETATM   15  N2  UNL     1      -0.076   4.332  11.926  1.00  0.00    -0.174 N 
HETATM   16  C6  UNL     1       0.966   4.052  11.138  1.00  0.00     0.157 A 
ATOM     17  H2  UNL     1       0.088   4.707  12.860  1.00  0.00     0.186 HD
HETATM   18  C18 UNL     1       0.702   3.542   9.871  1.00  0.00     0.176 A 
HETATM   19  C17 UNL     1      -0.597   3.320   9.418  1.00  0.00     0.152 A 
HETATM   20  F1  UNL     1       1.769   3.265   9.086  1.00  0.00    -0.201 F 
HETATM   21  N6  UNL     1      -1.584   3.628  10.276  1.00  0.00    -0.199 N 
ATOM     22  H6  UNL     1      -2.548   3.479   9.981  1.00  0.00     0.183 HD
BRANCH  16  23
HETATM   23  N1  UNL     1       2.175   4.235  11.497  1.00  0.00    -0.369 N 
ATOM     24  H1  UNL     1       2.803   3.431  11.495  1.00  0.00     0.161 HD
BRANCH  23  25
HETATM   25  C3  UNL     1       2.705   5.508  11.906  1.00  0.00     0.082 C 
BRANCH  25  26
HETATM   26  C2  UNL     1       2.925   6.355  10.671  1.00  0.00     0.021 C 
HETATM   27  C1  UNL     1       3.993   5.762   9.776  1.00  0.00     0.007 C 
ENDBRANCH  25  26
BRANCH  25  28
HETATM   28  C4  UNL     1       4.002   5.319  12.675  1.00  0.00     0.021 C 
HETATM   29  C5  UNL     1       4.337   6.568  13.451  1.00  0.00     0.007 C 
ENDBRANCH  25  28
ENDBRANCH  23  25
ENDBRANCH  16  23
ENDBRANCH  11  14
BRANCH   8  30
HETATM   30  N4  UNL     1      -4.697   5.887  15.283  1.00  0.00    -0.061 N 
ATOM     31  H43 UNL     1      -4.732   5.635  16.271  1.00  0.00     0.275 HD
ATOM     32  H42 UNL     1      -3.874   6.488  15.323  1.00  0.00     0.275 HD
ATOM     33  H41 UNL     1      -5.532   6.385  14.975  1.00  0.00     0.275 HD
ENDBRANCH   8  30
ENDBRANCH   6   8
ENDBRANCH   5   6
ENDBRANCH   1   5
TORSDOF 9
ENDMDL
MODEL 5
REMARK VINA RESULT: -7.204851629      1.560      3.556
REMARK  9 active torsions:
REMARK  status: ('A' for Active; 'I' for Inactive)
REMARK    1  A    between atoms: C2_2  and  C3_3 
REMARK    2  A    between atoms: C3_3  and  C4_4 
REMARK    3  A    between atoms: C3_3  and  N1_6 
REMARK    4  A    between atoms: N1_6  and  C6_8 
REMARK    5  A    between atoms: C7_11  and  N3_12 
REMARK    6  A    between atoms: C10_15  and  N4_16 
REMARK    7  A    between atoms: C10_15  and  C11_20 
REMARK    8  A    between atoms: C11_20  and  O2_22 
REMARK    9  A    between atoms: O2_22  and  C12_23 
ROOT
HETATM    1  C12 UNL     1      -4.950   1.665  15.035  1.00  0.00     0.234 C 
HETATM    2  C13 UNL     1      -4.363   2.984  15.556  1.00  0.00     0.056 C 
HETATM    3  C14 UNL     1      -5.219   0.750  16.131  1.00  0.00     0.091 C 
HETATM    4  N5  UNL     1      -5.428   0.046  17.002  1.00  0.00    -0.195 NA
ENDROOT
BRANCH   1   5
HETATM    5  O2  UNL     1      -4.009   1.111  14.177  1.00  0.00    -0.300 OA
BRANCH   5   6
HETATM    6  C11 UNL     1      -4.238   0.516  12.969  1.00  0.00     0.296 C 
HETATM    7  O1  UNL     1      -4.591  -0.687  12.977  1.00  0.00    -0.262 OA
BRANCH   6   8
HETATM    8  C10 UNL     1      -4.100   1.183  11.654  1.00  0.00     0.213 C 
HETATM    9  C9  UNL     1      -3.083   0.465  10.824  1.00  0.00     0.070 C 
HETATM   10  C8  UNL     1      -1.672   0.965  11.013  1.00  0.00     0.144 C 
HETATM   11  N3  UNL     1      -1.575   2.379  10.754  1.00  0.00    -0.217 N 
HETATM   12  C16 UNL     1      -2.819   3.140  10.763  1.00  0.00     0.144 C 
HETATM   13  C15 UNL     1      -3.696   2.613  11.889  1.00  0.00     0.070 C 
BRANCH  11  14
HETATM   14  C7  UNL     1      -0.369   3.056  10.497  1.00  0.00     0.681 A 
HETATM   15  N2  UNL     1       0.093   3.093   9.210  1.00  0.00    -0.174 N 
HETATM   16  C6  UNL     1       1.232   3.723   8.904  1.00  0.00     0.157 A 
ATOM     17  H2  UNL     1      -0.440   2.634   8.472  1.00  0.00     0.186 HD
HETATM   18  C18 UNL     1       1.930   4.337   9.937  1.00  0.00     0.176 A 
HETATM   19  C17 UNL     1       1.478   4.312  11.256  1.00  0.00     0.152 A 
HETATM   20  F1  UNL     1       3.082   4.969   9.610  1.00  0.00    -0.201 F 
HETATM   21  N6  UNL     1       0.325   3.658  11.472  1.00  0.00    -0.199 N 
ATOM     22  H6  UNL     1      -0.039   3.618  12.424  1.00  0.00     0.183 HD
BRANCH  16  23
HETATM   23  N1  UNL     1       1.695   3.778   7.718  1.00  0.00    -0.369 N 
ATOM     24  H1  UNL     1       2.357   3.059   7.427  1.00  0.00     0.161 HD
BRANCH  23  25
HETATM   25  C3  UNL     1       1.338   4.796   6.767  1.00  0.00     0.082 C 
BRANCH  25  26
HETATM   26  C2  UNL     1       0.230   4.263   5.886  1.00  0.00     0.021 C 
HETATM   27  C1  UNL     1       0.626   4.284   4.424  1.00  0.00     0.007 C 
ENDBRANCH  25  26
BRANCH  25  28
HETATM   28  C4  UNL     1       2.549   5.194   5.939  1.00  0.00     0.021 C 
HETATM   29  C5  UNL     1       3.732   4.327   6.292  1.00  0.00     0.007 C 
ENDBRANCH  25  28
ENDBRANCH  23  25
ENDBRANCH  16  23
ENDBRANCH  11  14
BRANCH   8  30
HETATM   30  N4  UNL     1      -5.360   1.195  10.925  1.00  0.00    -0.061 N 
ATOM     31  H43 UNL     1      -6.043   1.834  11.332  1.00  0.00     0.275 HD
ATOM     32  H42 UNL     1      -5.280   1.641  10.011  1.00  0.00     0.275 HD
ATOM     33  H41 UNL     1      -5.706   0.237  10.865  1.00  0.00     0.275 HD
ENDBRANCH   8  30
ENDBRANCH   6   8
ENDBRANCH   5   6
ENDBRANCH   1   5
TORSDOF 9
ENDMDL
