MODEL 1
REMARK VINA RESULT: -6.861837338      0.000      0.000
REMARK  9 active torsions:
REMARK  status: ('A' for Active; 'I' for Inactive)
REMARK    1  A    between atoms: C2_2  and  C3_3 
REMARK    2  A    between atoms: C3_3  and  N1_4 
REMARK    3  A    between atoms: C4_5  and  N2_6 
REMARK    4  A    between atoms: C5_11  and  N4_12 
REMARK    5  A    between atoms: C10_18  and  C11_19 
REMARK    6  A    between atoms: C11_19  and  O3_21 
REMARK    7  A    between atoms: O3_21  and  C12_22 
REMARK    8  A    between atoms: C12_22  and  C13_23 
REMARK    9  A    between atoms: C13_23  and  C15_25 
ROOT
HETATM    1  N1  UNL     1      -3.664   1.364  11.404  1.00  0.00    -0.147 N 
HETATM    2  C4  UNL     1      -2.362   1.628  11.256  1.00  0.00     0.682 A 
HETATM    3  N3  UNL     1      -1.894   2.830  11.670  1.00  0.00    -0.176 N 
ATOM      4  H3  UNL     1      -0.900   3.028  11.555  1.00  0.00     0.186 HD
HETATM    5  C5  UNL     1      -2.668   3.770  12.222  1.00  0.00     0.141 A 
HETATM    6  C10 UNL     1      -3.998   3.514  12.380  1.00  0.00     0.152 A 
HETATM    7  C16 UNL     1      -4.466   2.294  11.957  1.00  0.00     0.281 A 
HETATM    8  O4  UNL     1      -5.694   2.049  12.099  1.00  0.00    -0.266 OA
ENDROOT
BRANCH   6   9
HETATM    9  C11 UNL     1      -4.876   4.518  12.976  1.00  0.00     0.302 C 
HETATM   10  O2  UNL     1      -5.466   5.374  12.254  1.00  0.00    -0.259 OA
BRANCH   9  11
HETATM   11  O3  UNL     1      -5.108   4.591  14.339  1.00  0.00    -0.317 OA
BRANCH  11  12
HETATM   12  C12 UNL     1      -6.294   4.141  14.915  1.00  0.00     0.184 C 
BRANCH  12  13
HETATM   13  C13 UNL     1      -6.149   2.795  15.577  1.00  0.00     0.020 C 
HETATM   14  C14 UNL     1      -4.738   2.444  15.909  1.00  0.00     0.013 C 
BRANCH  13  15
HETATM   15  C15 UNL     1      -7.019   2.650  16.776  1.00  0.00     0.121 C 
HETATM   16 CL1  UNL     1      -7.456   0.955  17.094  1.00  0.00    -0.130 Cl
ENDBRANCH  13  15
ENDBRANCH  12  13
ENDBRANCH  11  12
ENDBRANCH   9  11
ENDBRANCH   6   9
BRANCH   5  17
HETATM   17  N4  UNL     1      -2.139   5.024  12.657  1.00  0.00    -0.362 N 
HETATM   18  C6  UNL     1      -1.757   5.181  14.037  1.00  0.00     0.150 C 
HETATM   19  C7  UNL     1      -1.946   6.674  14.351  1.00  0.00     0.187 C 
HETATM   20  O1  UNL     1      -2.988   7.216  13.614  1.00  0.00    -0.388 OA
HETATM   21  C8  UNL     1      -2.545   7.417  12.315  1.00  0.00     0.187 C 
HETATM   22  C9  UNL     1      -1.971   6.146  11.760  1.00  0.00     0.150 C 
ENDBRANCH   5  17
BRANCH   1  23
HETATM   23  C3  UNL     1      -4.234   0.099  10.960  1.00  0.00     0.151 C 
BRANCH  23  24
HETATM   24  C2  UNL     1      -4.120  -0.956  12.006  1.00  0.00     0.016 C 
HETATM   25  C1  UNL     1      -3.373  -2.176  11.535  1.00  0.00     0.006 C 
ENDBRANCH  23  24
ENDBRANCH   1  23
BRANCH   2  26
HETATM   26  N2  UNL     1      -1.512   0.774  10.746  1.00  0.00    -0.234 N 
ATOM     27  H22 UNL     1      -0.867   0.297  11.377  1.00  0.00     0.174 HD
ATOM     28  H21 UNL     1      -1.473   0.552   9.752  1.00  0.00     0.174 HD
ENDBRANCH   2  26
TORSDOF 9
ENDMDL
MODEL 2
REMARK VINA RESULT: -6.724497908      3.332      5.233
REMARK  9 active torsions:
REMARK  status: ('A' for Active; 'I' for Inactive)
REMARK    1  A    between atoms: C2_2  and  C3_3 
REMARK    2  A    between atoms: C3_3  and  N1_4 
REMARK    3  A    between atoms: C4_5  and  N2_6 
REMARK    4  A    between atoms: C5_11  and  N4_12 
REMARK    5  A    between atoms: C10_18  and  C11_19 
REMARK    6  A    between atoms: C11_19  and  O3_21 
REMARK    7  A    between atoms: O3_21  and  C12_22 
REMARK    8  A    between atoms: C12_22  and  C13_23 
REMARK    9  A    between atoms: C13_23  and  C15_25 
ROOT
HETATM    1  N1  UNL     1      -5.646   1.940  15.565  1.00  0.00    -0.147 N 
HETATM    2  C4  UNL     1      -4.758   1.197  14.896  1.00  0.00     0.682 A 
HETATM    3  N3  UNL     1      -4.007   1.793  13.939  1.00  0.00    -0.176 N 
ATOM      4  H3  UNL     1      -3.332   1.223  13.429  1.00  0.00     0.186 HD
HETATM    5  C5  UNL     1      -4.104   3.089  13.628  1.00  0.00     0.141 A 
HETATM    6  C10 UNL     1      -5.005   3.860  14.304  1.00  0.00     0.152 A 
HETATM    7  C16 UNL     1      -5.765   3.250  15.271  1.00  0.00     0.281 A 
HETATM    8  O4  UNL     1      -6.599   3.953  15.901  1.00  0.00    -0.266 OA
ENDROOT
BRANCH   6   9
HETATM    9  C11 UNL     1      -5.142   5.280  13.990  1.00  0.00     0.302 C 
HETATM   10  O2  UNL     1      -4.479   6.150  14.624  1.00  0.00    -0.259 OA
BRANCH   9  11
HETATM   11  O3  UNL     1      -5.990   5.746  13.000  1.00  0.00    -0.317 OA
BRANCH  11  12
HETATM   12  C12 UNL     1      -5.594   6.713  12.079  1.00  0.00     0.184 C 
BRANCH  12  13
HETATM   13  C13 UNL     1      -6.757   7.363  11.375  1.00  0.00     0.020 C 
HETATM   14  C14 UNL     1      -6.789   8.846  11.523  1.00  0.00     0.013 C 
BRANCH  13  15
HETATM   15  C15 UNL     1      -6.844   6.980   9.940  1.00  0.00     0.121 C 
HETATM   16 CL1  UNL     1      -8.205   7.770   9.109  1.00  0.00    -0.130 Cl
ENDBRANCH  13  15
ENDBRANCH  12  13
ENDBRANCH  11  12
ENDBRANCH   9  11
ENDBRANCH   6   9
BRANCH   5  17
HETATM   17  N4  UNL     1      -3.288   3.688  12.619  1.00  0.00    -0.362 N 
HETATM   18  C6  UNL     1      -3.733   3.657  11.249  1.00  0.00     0.150 C 
HETATM   19  C7  UNL     1      -2.454   3.666  10.398  1.00  0.00     0.187 C 
HETATM   20  O1  UNL     1      -1.414   3.016  11.045  1.00  0.00    -0.388 OA
HETATM   21  C8  UNL     1      -0.915   3.861  12.027  1.00  0.00     0.187 C 
HETATM   22  C9  UNL     1      -2.027   4.326  12.923  1.00  0.00     0.150 C 
ENDBRANCH   5  17
BRANCH   1  23
HETATM   23  C3  UNL     1      -6.500   1.357  16.591  1.00  0.00     0.151 C 
BRANCH  23  24
HETATM   24  C2  UNL     1      -5.832   1.342  17.923  1.00  0.00     0.016 C 
HETATM   25  C1  UNL     1      -6.504   2.239  18.930  1.00  0.00     0.006 C 
ENDBRANCH  23  24
ENDBRANCH   1  23
BRANCH   2  26
HETATM   26  N2  UNL     1      -4.568  -0.076  15.132  1.00  0.00    -0.234 N 
ATOM     27  H22 UNL     1      -5.332  -0.612  15.543  1.00  0.00     0.174 HD
ATOM     28  H21 UNL     1      -3.698  -0.559  14.912  1.00  0.00     0.174 HD
ENDBRANCH   2  26
TORSDOF 9
ENDMDL
MODEL 3
REMARK VINA RESULT: -6.704594263      1.627      2.350
REMARK  9 active torsions:
REMARK  status: ('A' for Active; 'I' for Inactive)
REMARK    1  A    between atoms: C2_2  and  C3_3 
REMARK    2  A    between atoms: C3_3  and  N1_4 
REMARK    3  A    between atoms: C4_5  and  N2_6 
REMARK    4  A    between atoms: C5_11  and  N4_12 
REMARK    5  A    between atoms: C10_18  and  C11_19 
REMARK    6  A    between atoms: C11_19  and  O3_21 
REMARK    7  A    between atoms: O3_21  and  C12_22 
REMARK    8  A    between atoms: C12_22  and  C13_23 
REMARK    9  A    between atoms: C13_23  and  C15_25 
ROOT
HETATM    1  N1  UNL     1      -4.030  -0.199  12.083  1.00  0.00    -0.147 N 
HETATM    2  C4  UNL     1      -3.519   0.585  11.129  1.00  0.00     0.682 A 
HETATM    3  N3  UNL     1      -3.385   1.909  11.384  1.00  0.00    -0.176 N 
ATOM      4  H3  UNL     1      -2.995   2.505  10.653  1.00  0.00     0.186 HD
HETATM    5  C5  UNL     1      -3.736   2.475  12.542  1.00  0.00     0.141 A 
HETATM    6  C10 UNL     1      -4.259   1.686  13.525  1.00  0.00     0.152 A 
HETATM    7  C16 UNL     1      -4.393   0.345  13.260  1.00  0.00     0.281 A 
HETATM    8  O4  UNL     1      -4.875  -0.392  14.162  1.00  0.00    -0.266 OA
ENDROOT
BRANCH   6   9
HETATM    9  C11 UNL     1      -4.657   2.269  14.804  1.00  0.00     0.302 C 
HETATM   10  O2  UNL     1      -3.825   2.388  15.749  1.00  0.00    -0.259 OA
BRANCH   9  11
HETATM   11  O3  UNL     1      -5.944   2.715  15.051  1.00  0.00    -0.317 OA
BRANCH  11  12
HETATM   12  C12 UNL     1      -6.284   3.387  16.223  1.00  0.00     0.184 C 
BRANCH  12  13
HETATM   13  C13 UNL     1      -7.069   2.530  17.182  1.00  0.00     0.020 C 
HETATM   14  C14 UNL     1      -7.957   1.541  16.507  1.00  0.00     0.013 C 
BRANCH  13  15
HETATM   15  C15 UNL     1      -6.202   1.852  18.185  1.00  0.00     0.121 C 
HETATM   16 CL1  UNL     1      -5.868   0.157  17.756  1.00  0.00    -0.130 Cl
ENDBRANCH  13  15
ENDBRANCH  12  13
ENDBRANCH  11  12
ENDBRANCH   9  11
ENDBRANCH   6   9
BRANCH   5  17
HETATM   17  N4  UNL     1      -3.571   3.874  12.780  1.00  0.00    -0.362 N 
HETATM   18  C6  UNL     1      -2.318   4.351  13.309  1.00  0.00     0.150 C 
HETATM   19  C7  UNL     1      -2.662   5.620  14.105  1.00  0.00     0.187 C 
HETATM   20  O1  UNL     1      -3.927   5.537  14.664  1.00  0.00    -0.388 OA
HETATM   21  C8  UNL     1      -4.862   5.761  13.663  1.00  0.00     0.187 C 
HETATM   22  C9  UNL     1      -4.618   4.834  12.509  1.00  0.00     0.150 C 
ENDBRANCH   5  17
BRANCH   1  23
HETATM   23  C3  UNL     1      -4.221  -1.627  11.866  1.00  0.00     0.151 C 
BRANCH  23  24
HETATM   24  C2  UNL     1      -2.932  -2.320  11.585  1.00  0.00     0.016 C 
HETATM   25  C1  UNL     1      -3.103  -3.788  11.288  1.00  0.00     0.006 C 
ENDBRANCH  23  24
ENDBRANCH   1  23
BRANCH   2  26
HETATM   26  N2  UNL     1      -3.124   0.134   9.966  1.00  0.00    -0.234 N 
ATOM     27  H22 UNL     1      -2.172   0.342   9.663  1.00  0.00     0.174 HD
ATOM     28  H21 UNL     1      -3.718  -0.427   9.356  1.00  0.00     0.174 HD
ENDBRANCH   2  26
TORSDOF 9
ENDMDL
MODEL 4
REMARK VINA RESULT: -6.639250674      2.782      5.483
REMARK  9 active torsions:
REMARK  status: ('A' for Active; 'I' for Inactive)
REMARK    1  A    between atoms: C2_2  and  C3_3 
REMARK    2  A    between atoms: C3_3  and  N1_4 
REMARK    3  A    between atoms: C4_5  and  N2_6 
REMARK    4  A    between atoms: C5_11  and  N4_12 
REMARK    5  A    between atoms: C10_18  and  C11_19 
REMARK    6  A    between atoms: C11_19  and  O3_21 
REMARK    7  A    between atoms: O3_21  and  C12_22 
REMARK    8  A    between atoms: C12_22  and  C13_23 
REMARK    9  A    between atoms: C13_23  and  C15_25 
ROOT
HETATM    1  N1  UNL     1      -2.113   4.091  12.036  1.00  0.00    -0.147 N 
HETATM    2  C4  UNL     1      -2.125   4.350  13.347  1.00  0.00     0.682 A 
HETATM    3  N3  UNL     1      -3.074   3.762  14.115  1.00  0.00    -0.176 N 
ATOM      4  H3  UNL     1      -3.080   3.964  15.115  1.00  0.00     0.186 HD
HETATM    5  C5  UNL     1      -4.002   2.932  13.630  1.00  0.00     0.141 A 
HETATM    6  C10 UNL     1      -4.002   2.657  12.294  1.00  0.00     0.152 A 
HETATM    7  C16 UNL     1      -3.039   3.257  11.521  1.00  0.00     0.281 A 
HETATM    8  O4  UNL     1      -3.030   3.009  10.285  1.00  0.00    -0.266 OA
ENDROOT
BRANCH   6   9
HETATM    9  C11 UNL     1      -5.003   1.756  11.727  1.00  0.00     0.302 C 
HETATM   10  O2  UNL     1      -6.072   2.210  11.224  1.00  0.00    -0.259 OA
BRANCH   9  11
HETATM   11  O3  UNL     1      -4.843   0.382  11.708  1.00  0.00    -0.317 OA
BRANCH  11  12
HETATM   12  C12 UNL     1      -4.419  -0.300  10.569  1.00  0.00     0.184 C 
BRANCH  12  13
HETATM   13  C13 UNL     1      -3.146  -1.075  10.791  1.00  0.00     0.020 C 
HETATM   14  C14 UNL     1      -1.957  -0.209  11.033  1.00  0.00     0.013 C 
BRANCH  13  15
HETATM   15  C15 UNL     1      -3.277  -2.094  11.868  1.00  0.00     0.121 C 
HETATM   16 CL1  UNL     1      -3.122  -3.756  11.251  1.00  0.00    -0.130 Cl
ENDBRANCH  13  15
ENDBRANCH  12  13
ENDBRANCH  11  12
ENDBRANCH   9  11
ENDBRANCH   6   9
BRANCH   5  17
HETATM   17  N4  UNL     1      -4.982   2.321  14.471  1.00  0.00    -0.362 N 
HETATM   18  C6  UNL     1      -6.185   3.050  14.787  1.00  0.00     0.150 C 
HETATM   19  C7  UNL     1      -6.628   2.537  16.166  1.00  0.00     0.187 C 
HETATM   20  O1  UNL     1      -5.539   2.172  16.942  1.00  0.00    -0.388 OA
HETATM   21  C8  UNL     1      -5.077   0.942  16.495  1.00  0.00     0.187 C 
HETATM   22  C9  UNL     1      -4.813   0.994  15.019  1.00  0.00     0.150 C 
ENDBRANCH   5  17
BRANCH   1  23
HETATM   23  C3  UNL     1      -1.134   4.706  11.151  1.00  0.00     0.151 C 
BRANCH  23  24
HETATM   24  C2  UNL     1       0.108   3.888  11.047  1.00  0.00     0.016 C 
HETATM   25  C1  UNL     1       0.456   3.521   9.628  1.00  0.00     0.006 C 
ENDBRANCH  23  24
ENDBRANCH   1  23
BRANCH   2  26
HETATM   26  N2  UNL     1      -1.252   5.133  13.929  1.00  0.00    -0.234 N 
ATOM     27  H22 UNL     1      -0.392   5.356  13.428  1.00  0.00     0.174 HD
ATOM     28  H21 UNL     1      -1.397   5.540  14.852  1.00  0.00     0.174 HD
ENDBRANCH   2  26
TORSDOF 9
ENDMDL
MODEL 5
REMARK VINA RESULT: -6.472594032      2.639      4.634
REMARK  9 active torsions:
REMARK  status: ('A' for Active; 'I' for Inactive)
REMARK    1  A    between atoms: C2_2  and  C3_3 
REMARK    2  A    between atoms: C3_3  and  N1_4 
REMARK    3  A    between atoms: C4_5  and  N2_6 
REMARK    4  A    between atoms: C5_11  and  N4_12 
REMARK    5  A    between atoms: C10_18  and  C11_19 
REMARK    6  A    between atoms: C11_19  and  O3_21 
REMARK    7  A    between atoms: O3_21  and  C12_22 
REMARK    8  A    between atoms: C12_22  and  C13_23 
REMARK    9  A    between atoms: C13_23  and  C15_25 
ROOT
HETATM    1  N1  UNL     1      -3.533   3.570  14.444  1.00  0.00    -0.147 N 
HETATM    2  C4  UNL     1      -2.227   3.845  14.371  1.00  0.00     0.682 A 
HETATM    3  N3  UNL     1      -1.660   3.971  13.147  1.00  0.00    -0.176 N 
ATOM      4  H3  UNL     1      -0.662   4.180  13.096  1.00  0.00     0.186 HD
HETATM    5  C5  UNL     1      -2.339   3.837  12.004  1.00  0.00     0.141 A 
HETATM    6  C10 UNL     1      -3.672   3.557  12.063  1.00  0.00     0.152 A 
HETATM    7  C16 UNL     1      -4.242   3.429  13.306  1.00  0.00     0.281 A 
HETATM    8  O4  UNL     1      -5.473   3.171  13.371  1.00  0.00    -0.266 OA
ENDROOT
BRANCH   6   9
HETATM    9  C11 UNL     1      -4.448   3.401  10.835  1.00  0.00     0.302 C 
HETATM   10  O2  UNL     1      -5.087   4.375  10.344  1.00  0.00    -0.259 OA
BRANCH   9  11
HETATM   11  O3  UNL     1      -4.527   2.199  10.151  1.00  0.00    -0.317 OA
BRANCH  11  12
HETATM   12  C12 UNL     1      -4.953   1.023  10.765  1.00  0.00     0.184 C 
BRANCH  12  13
HETATM   13  C13 UNL     1      -3.836   0.285  11.455  1.00  0.00     0.020 C 
HETATM   14  C14 UNL     1      -4.236  -0.320  12.757  1.00  0.00     0.013 C 
BRANCH  13  15
HETATM   15  C15 UNL     1      -3.198  -0.736  10.579  1.00  0.00     0.121 C 
HETATM   16 CL1  UNL     1      -3.067  -2.323  11.374  1.00  0.00    -0.130 Cl
ENDBRANCH  13  15
ENDBRANCH  12  13
ENDBRANCH  11  12
ENDBRANCH   9  11
ENDBRANCH   6   9
BRANCH   5  17
HETATM   17  N4  UNL     1      -1.709   3.987  10.730  1.00  0.00    -0.362 N 
HETATM   18  C6  UNL     1      -1.077   2.844  10.123  1.00  0.00     0.150 C 
HETATM   19  C7  UNL     1       0.053   3.412   9.250  1.00  0.00     0.187 C 
HETATM   20  O1  UNL     1       0.576   4.574   9.796  1.00  0.00    -0.388 OA
HETATM   21  C8  UNL     1      -0.311   5.612   9.542  1.00  0.00     0.187 C 
HETATM   22  C9  UNL     1      -1.685   5.248  10.023  1.00  0.00     0.150 C 
ENDBRANCH   5  17
BRANCH   1  23
HETATM   23  C3  UNL     1      -4.200   3.400  15.727  1.00  0.00     0.151 C 
BRANCH  23  24
HETATM   24  C2  UNL     1      -4.227   1.972  16.152  1.00  0.00     0.016 C 
HETATM   25  C1  UNL     1      -5.421   1.632  17.006  1.00  0.00     0.006 C 
ENDBRANCH  23  24
ENDBRANCH   1  23
BRANCH   2  26
HETATM   26  N2  UNL     1      -1.472   4.015  15.426  1.00  0.00    -0.234 N 
ATOM     27  H22 UNL     1      -1.023   3.196  15.838  1.00  0.00     0.174 HD
ATOM     28  H21 UNL     1      -1.300   4.927  15.847  1.00  0.00     0.174 HD
ENDBRANCH   2  26
TORSDOF 9
ENDMDL
