MODEL 1
REMARK VINA RESULT: -7.900647390      0.000      0.000
REMARK  7 active torsions:
REMARK  status: ('A' for Active; 'I' for Inactive)
REMARK    1  A    between atoms: O1_2  and  C2_3 
REMARK       I    between atoms: C2_3  and  N1_5 
REMARK    2  A    between atoms: N1_5  and  C3_7 
REMARK    3  A    between atoms: C6_10  and  C7_11 
REMARK    4  A    between atoms: C7_11  and  N2_12 
REMARK    5  A    between atoms: N2_12  and  C9_14 
REMARK    6  A    between atoms: N3_16  and  C11_17 
REMARK    7  A    between atoms: C16_25  and  O3_26 
ROOT
HETATM    1  C11 UNL     1      -4.456   4.024  14.727  1.00  0.00     0.137 A 
HETATM    2  N4  UNL     1      -3.782   2.880  14.612  1.00  0.00    -0.349 N 
ATOM      3  H4  UNL     1      -2.964   2.828  14.004  1.00  0.00     0.167 HD
HETATM    4  C12 UNL     1      -4.181   1.787  15.300  1.00  0.00     0.112 A 
HETATM    5  C13 UNL     1      -5.277   1.859  16.115  1.00  0.00     0.062 A 
HETATM    6  C14 UNL     1      -5.699   0.690  16.845  1.00  0.00     0.101 C 
HETATM    7  N5  UNL     1      -6.023  -0.246  17.420  1.00  0.00    -0.191 NA
HETATM    8  C15 UNL     1      -6.005   3.026  16.262  1.00  0.00     0.064 A 
HETATM    9  C16 UNL     1      -5.555   4.126  15.532  1.00  0.00     0.111 A 
ENDROOT
BRANCH   9  10
HETATM   10  O3  UNL     1      -6.278   5.301  15.673  1.00  0.00    -0.357 OA
ATOM     11  H3  UNL     1      -7.162   5.323  16.019  1.00  0.00     0.218 HD
ENDBRANCH   9  10
BRANCH   1  12
HETATM   12  N3  UNL     1      -4.037   5.207  13.997  1.00  0.00    -0.363 N 
HETATM   13  C10 UNL     1      -4.457   5.370  12.633  1.00  0.00     0.160 C 
HETATM   14  C9  UNL     1      -3.296   5.955  11.808  1.00  0.00     0.244 C 
HETATM   15  C19 UNL     1      -2.838   7.132  12.598  1.00  0.00     0.018 C 
HETATM   16  C18 UNL     1      -2.100   6.585  13.834  1.00  0.00     0.026 C 
HETATM   17  C20 UNL     1      -1.957   8.140  11.989  1.00  0.00     0.012 C 
HETATM   18  C17 UNL     1      -3.215   6.112  14.757  1.00  0.00     0.125 C 
BRANCH  14  19
HETATM   19  N2  UNL     1      -3.764   6.303  10.474  1.00  0.00     0.091 N 
HETATM   20  C8  UNL     1      -3.620   5.041   9.696  1.00  0.00     0.310 C 
BRANCH  19  21
HETATM   21  C7  UNL     1      -5.194   6.560  10.562  1.00  0.00     0.277 C 
BRANCH  21  22
HETATM   22  C6  UNL     1      -5.720   7.533   9.558  1.00  0.00     0.014 C 
HETATM   23  C5  UNL     1      -6.271   8.793  10.184  1.00  0.00     0.008 C 
HETATM   24  C4  UNL     1      -6.607   9.720   9.031  1.00  0.00     0.026 C 
HETATM   25  C3  UNL     1      -7.925   9.168   8.466  1.00  0.00     0.086 C 
HETATM   26  C22 UNL     1      -8.130   7.740   8.822  1.00  0.00     0.026 C 
HETATM   27  C21 UNL     1      -6.897   6.884   8.834  1.00  0.00     0.008 C 
BRANCH  25  28
HETATM   28  N1  UNL     1      -8.082   9.503   7.085  1.00  0.00    -0.332 N 
HETATM   29  C2  UNL     1      -9.300   9.956   6.508  1.00  0.00     0.360 C 
HETATM   30  O2  UNL     1     -10.293  10.066   7.265  1.00  0.00    -0.239 OA
ATOM     31  H1  UNL     1      -7.269   9.411   6.475  1.00  0.00     0.165 HD
BRANCH  29  32
HETATM   32  O1  UNL     1      -9.447  10.279   5.177  1.00  0.00    -0.309 OA
HETATM   33  C1  UNL     1     -10.648  10.659   4.573  1.00  0.00     0.215 C 
ENDBRANCH  29  32
ENDBRANCH  25  28
ENDBRANCH  21  22
ENDBRANCH  19  21
ENDBRANCH  14  19
ENDBRANCH   1  12
TORSDOF 7
ENDMDL
MODEL 2
REMARK VINA RESULT: -7.876023026      2.898      3.321
REMARK  7 active torsions:
REMARK  status: ('A' for Active; 'I' for Inactive)
REMARK    1  A    between atoms: O1_2  and  C2_3 
REMARK       I    between atoms: C2_3  and  N1_5 
REMARK    2  A    between atoms: N1_5  and  C3_7 
REMARK    3  A    between atoms: C6_10  and  C7_11 
REMARK    4  A    between atoms: C7_11  and  N2_12 
REMARK    5  A    between atoms: N2_12  and  C9_14 
REMARK    6  A    between atoms: N3_16  and  C11_17 
REMARK    7  A    between atoms: C16_25  and  O3_26 
ROOT
HETATM    1  C11 UNL     1      -3.261   2.353  11.342  1.00  0.00     0.137 A 
HETATM    2  N4  UNL     1      -2.047   1.814  11.229  1.00  0.00    -0.349 N 
ATOM      3  H4  UNL     1      -1.226   2.416  11.164  1.00  0.00     0.167 HD
HETATM    4  C12 UNL     1      -1.903   0.470  11.199  1.00  0.00     0.112 A 
HETATM    5  C13 UNL     1      -3.006  -0.334  11.285  1.00  0.00     0.062 A 
HETATM    6  C14 UNL     1      -2.847  -1.767  11.251  1.00  0.00     0.101 C 
HETATM    7  N5  UNL     1      -2.706  -2.903  11.223  1.00  0.00    -0.191 NA
HETATM    8  C15 UNL     1      -4.283   0.184  11.404  1.00  0.00     0.064 A 
HETATM    9  C16 UNL     1      -4.381   1.575  11.431  1.00  0.00     0.111 A 
ENDROOT
BRANCH   9  10
HETATM   10  O3  UNL     1      -5.657   2.104  11.549  1.00  0.00    -0.357 OA
ATOM     11  H3  UNL     1      -6.442   1.605  11.356  1.00  0.00     0.218 HD
ENDBRANCH   9  10
BRANCH   1  12
HETATM   12  N3  UNL     1      -3.431   3.794  11.381  1.00  0.00    -0.363 N 
HETATM   13  C10 UNL     1      -3.927   4.469  10.213  1.00  0.00     0.160 C 
HETATM   14  C9  UNL     1      -3.170   5.798  10.032  1.00  0.00     0.244 C 
HETATM   15  C19 UNL     1      -3.251   6.453  11.368  1.00  0.00     0.018 C 
HETATM   16  C18 UNL     1      -2.305   5.680  12.306  1.00  0.00     0.026 C 
HETATM   17  C20 UNL     1      -2.925   7.879  11.518  1.00  0.00     0.012 C 
HETATM   18  C17 UNL     1      -3.066   4.402  12.634  1.00  0.00     0.125 C 
BRANCH  14  19
HETATM   19  N2  UNL     1      -3.790   6.578   8.971  1.00  0.00     0.091 N 
HETATM   20  C8  UNL     1      -3.523   5.789   7.735  1.00  0.00     0.310 C 
BRANCH  19  21
HETATM   21  C7  UNL     1      -5.231   6.532   9.172  1.00  0.00     0.277 C 
BRANCH  21  22
HETATM   22  C6  UNL     1      -6.012   7.497   8.342  1.00  0.00     0.014 C 
HETATM   23  C5  UNL     1      -6.202   8.838   9.011  1.00  0.00     0.008 C 
HETATM   24  C4  UNL     1      -6.865   9.730   7.978  1.00  0.00     0.026 C 
HETATM   25  C3  UNL     1      -8.335   9.284   7.973  1.00  0.00     0.086 C 
HETATM   26  C22 UNL     1      -8.502   7.906   8.502  1.00  0.00     0.026 C 
HETATM   27  C21 UNL     1      -7.417   6.932   8.147  1.00  0.00     0.008 C 
BRANCH  25  28
HETATM   28  N1  UNL     1      -8.959   9.557   6.715  1.00  0.00    -0.332 N 
HETATM   29  C2  UNL     1     -10.097  10.395   6.555  1.00  0.00     0.360 C 
HETATM   30  O2  UNL     1     -10.577  10.923   7.586  1.00  0.00    -0.239 OA
ATOM     31  H1  UNL     1      -8.563   9.124   5.880  1.00  0.00     0.165 HD
BRANCH  29  32
HETATM   32  O1  UNL     1     -10.694  10.657   5.342  1.00  0.00    -0.309 OA
HETATM   33  C1  UNL     1     -10.850  11.928   4.783  1.00  0.00     0.215 C 
ENDBRANCH  29  32
ENDBRANCH  25  28
ENDBRANCH  21  22
ENDBRANCH  19  21
ENDBRANCH  14  19
ENDBRANCH   1  12
TORSDOF 7
ENDMDL
MODEL 3
REMARK VINA RESULT: -7.803821025      4.886      7.659
REMARK  7 active torsions:
REMARK  status: ('A' for Active; 'I' for Inactive)
REMARK    1  A    between atoms: O1_2  and  C2_3 
REMARK       I    between atoms: C2_3  and  N1_5 
REMARK    2  A    between atoms: N1_5  and  C3_7 
REMARK    3  A    between atoms: C6_10  and  C7_11 
REMARK    4  A    between atoms: C7_11  and  N2_12 
REMARK    5  A    between atoms: N2_12  and  C9_14 
REMARK    6  A    between atoms: N3_16  and  C11_17 
REMARK    7  A    between atoms: C16_25  and  O3_26 
ROOT
HETATM    1  C11 UNL     1      -3.076   2.092  11.296  1.00  0.00     0.137 A 
HETATM    2  N4  UNL     1      -1.893   1.481  11.224  1.00  0.00    -0.349 N 
ATOM      3  H4  UNL     1      -1.037   2.034  11.175  1.00  0.00     0.167 HD
HETATM    4  C12 UNL     1      -1.828   0.131  11.216  1.00  0.00     0.112 A 
HETATM    5  C13 UNL     1      -2.977  -0.606  11.282  1.00  0.00     0.062 A 
HETATM    6  C14 UNL     1      -2.901  -2.046  11.272  1.00  0.00     0.101 C 
HETATM    7  N5  UNL     1      -2.826  -3.189  11.263  1.00  0.00    -0.191 NA
HETATM    8  C15 UNL     1      -4.225  -0.013  11.358  1.00  0.00     0.064 A 
HETATM    9  C16 UNL     1      -4.242   1.381  11.363  1.00  0.00     0.111 A 
ENDROOT
BRANCH   9  10
HETATM   10  O3  UNL     1      -5.488   1.985  11.438  1.00  0.00    -0.357 OA
ATOM     11  H3  UNL     1      -5.859   2.301  12.254  1.00  0.00     0.218 HD
ENDBRANCH   9  10
BRANCH   1  12
HETATM   12  N3  UNL     1      -3.163   3.541  11.310  1.00  0.00    -0.363 N 
HETATM   13  C10 UNL     1      -3.042   4.234  12.563  1.00  0.00     0.160 C 
HETATM   14  C9  UNL     1      -4.044   5.402  12.598  1.00  0.00     0.244 C 
HETATM   15  C19 UNL     1      -3.814   6.125  11.315  1.00  0.00     0.018 C 
HETATM   16  C18 UNL     1      -4.396   5.246  10.193  1.00  0.00     0.026 C 
HETATM   17  C20 UNL     1      -4.352   7.479  11.117  1.00  0.00     0.012 C 
HETATM   18  C17 UNL     1      -3.369   4.136  10.016  1.00  0.00     0.125 C 
BRANCH  14  19
HETATM   19  N2  UNL     1      -3.802   6.226  13.774  1.00  0.00     0.091 N 
HETATM   20  C8  UNL     1      -4.216   5.361  14.915  1.00  0.00     0.310 C 
BRANCH  19  21
HETATM   21  C7  UNL     1      -2.363   6.398  13.903  1.00  0.00     0.277 C 
BRANCH  21  22
HETATM   22  C6  UNL     1      -1.886   7.808  13.781  1.00  0.00     0.014 C 
HETATM   23  C5  UNL     1      -0.470   7.914  13.266  1.00  0.00     0.008 C 
HETATM   24  C4  UNL     1      -0.212   9.395  13.056  1.00  0.00     0.026 C 
HETATM   25  C3  UNL     1       0.034   9.947  14.468  1.00  0.00     0.086 C 
HETATM   26  C22 UNL     1      -0.552   9.073  15.517  1.00  0.00     0.026 C 
HETATM   27  C21 UNL     1      -1.864   8.428  15.176  1.00  0.00     0.008 C 
BRANCH  25  28
HETATM   28  N1  UNL     1      -0.293  11.337  14.549  1.00  0.00    -0.332 N 
HETATM   29  C2  UNL     1       0.523  12.311  15.187  1.00  0.00     0.360 C 
HETATM   30  O2  UNL     1       1.593  11.917  15.709  1.00  0.00    -0.239 OA
ATOM     31  H1  UNL     1      -1.165  11.649  14.122  1.00  0.00     0.165 HD
BRANCH  29  32
HETATM   32  O1  UNL     1       0.207  13.649  15.263  1.00  0.00    -0.309 OA
HETATM   33  C1  UNL     1      -0.287  14.416  14.204  1.00  0.00     0.215 C 
ENDBRANCH  29  32
ENDBRANCH  25  28
ENDBRANCH  21  22
ENDBRANCH  19  21
ENDBRANCH  14  19
ENDBRANCH   1  12
TORSDOF 7
ENDMDL
MODEL 4
REMARK VINA RESULT: -7.775670123      3.017      3.572
REMARK  7 active torsions:
REMARK  status: ('A' for Active; 'I' for Inactive)
REMARK    1  A    between atoms: O1_2  and  C2_3 
REMARK       I    between atoms: C2_3  and  N1_5 
REMARK    2  A    between atoms: N1_5  and  C3_7 
REMARK    3  A    between atoms: C6_10  and  C7_11 
REMARK    4  A    between atoms: C7_11  and  N2_12 
REMARK    5  A    between atoms: N2_12  and  C9_14 
REMARK    6  A    between atoms: N3_16  and  C11_17 
REMARK    7  A    between atoms: C16_25  and  O3_26 
ROOT
HETATM    1  C11 UNL     1      -3.249   2.276  11.259  1.00  0.00     0.137 A 
HETATM    2  N4  UNL     1      -2.029   1.738  11.234  1.00  0.00    -0.349 N 
ATOM      3  H4  UNL     1      -1.206   2.341  11.210  1.00  0.00     0.167 HD
HETATM    4  C12 UNL     1      -1.882   0.394  11.239  1.00  0.00     0.112 A 
HETATM    5  C13 UNL     1      -2.987  -0.411  11.271  1.00  0.00     0.062 A 
HETATM    6  C14 UNL     1      -2.823  -1.844  11.274  1.00  0.00     0.101 C 
HETATM    7  N5  UNL     1      -2.679  -2.979  11.277  1.00  0.00    -0.191 NA
HETATM    8  C15 UNL     1      -4.270   0.106  11.298  1.00  0.00     0.064 A 
HETATM    9  C16 UNL     1      -4.371   1.497  11.291  1.00  0.00     0.111 A 
ENDROOT
BRANCH   9  10
HETATM   10  O3  UNL     1      -5.653   2.025  11.317  1.00  0.00    -0.357 OA
ATOM     11  H3  UNL     1      -6.343   1.675  11.869  1.00  0.00     0.218 HD
ENDBRANCH   9  10
BRANCH   1  12
HETATM   12  N3  UNL     1      -3.423   3.718  11.259  1.00  0.00    -0.363 N 
HETATM   13  C10 UNL     1      -3.450   4.416  10.003  1.00  0.00     0.160 C 
HETATM   14  C9  UNL     1      -2.683   5.744  10.142  1.00  0.00     0.244 C 
HETATM   15  C19 UNL     1      -3.255   6.375  11.364  1.00  0.00     0.018 C 
HETATM   16  C18 UNL     1      -2.726   5.579  12.572  1.00  0.00     0.026 C 
HETATM   17  C20 UNL     1      -3.011   7.796  11.652  1.00  0.00     0.012 C 
HETATM   18  C17 UNL     1      -3.551   4.300  12.569  1.00  0.00     0.125 C 
BRANCH  14  19
HETATM   19  N2  UNL     1      -2.864   6.546   8.941  1.00  0.00     0.091 N 
HETATM   20  C8  UNL     1      -1.923   5.944   7.955  1.00  0.00     0.310 C 
BRANCH  19  21
HETATM   21  C7  UNL     1      -4.201   6.282   8.432  1.00  0.00     0.277 C 
BRANCH  21  22
HETATM   22  C6  UNL     1      -5.154   7.427   8.547  1.00  0.00     0.014 C 
HETATM   23  C5  UNL     1      -6.393   7.092   9.342  1.00  0.00     0.008 C 
HETATM   24  C4  UNL     1      -7.160   8.393   9.491  1.00  0.00     0.026 C 
HETATM   25  C3  UNL     1      -7.833   8.601   8.126  1.00  0.00     0.086 C 
HETATM   26  C22 UNL     1      -7.143   7.851   7.045  1.00  0.00     0.026 C 
HETATM   27  C21 UNL     1      -5.648   7.781   7.146  1.00  0.00     0.008 C 
BRANCH  25  28
HETATM   28  N1  UNL     1      -8.083   9.986   7.873  1.00  0.00    -0.332 N 
HETATM   29  C2  UNL     1      -9.356  10.516   7.525  1.00  0.00     0.360 C 
HETATM   30  O2  UNL     1     -10.313   9.711   7.437  1.00  0.00    -0.239 OA
ATOM     31  H1  UNL     1      -7.299  10.635   7.947  1.00  0.00     0.165 HD
BRANCH  29  32
HETATM   32  O1  UNL     1      -9.593  11.850   7.284  1.00  0.00    -0.309 OA
HETATM   33  C1  UNL     1      -9.689  12.838   8.268  1.00  0.00     0.215 C 
ENDBRANCH  29  32
ENDBRANCH  25  28
ENDBRANCH  21  22
ENDBRANCH  19  21
ENDBRANCH  14  19
ENDBRANCH   1  12
TORSDOF 7
ENDMDL
MODEL 5
REMARK VINA RESULT: -7.704548791      0.977      1.450
REMARK  7 active torsions:
REMARK  status: ('A' for Active; 'I' for Inactive)
REMARK    1  A    between atoms: O1_2  and  C2_3 
REMARK       I    between atoms: C2_3  and  N1_5 
REMARK    2  A    between atoms: N1_5  and  C3_7 
REMARK    3  A    between atoms: C6_10  and  C7_11 
REMARK    4  A    between atoms: C7_11  and  N2_12 
REMARK    5  A    between atoms: N2_12  and  C9_14 
REMARK    6  A    between atoms: N3_16  and  C11_17 
REMARK    7  A    between atoms: C16_25  and  O3_26 
ROOT
HETATM    1  C11 UNL     1      -4.507   4.132  14.634  1.00  0.00     0.137 A 
HETATM    2  N4  UNL     1      -3.920   2.959  14.396  1.00  0.00    -0.349 N 
ATOM      3  H4  UNL     1      -3.182   2.891  13.695  1.00  0.00     0.167 HD
HETATM    4  C12 UNL     1      -4.302   1.859  15.084  1.00  0.00     0.112 A 
HETATM    5  C13 UNL     1      -5.291   1.954  16.023  1.00  0.00     0.062 A 
HETATM    6  C14 UNL     1      -5.696   0.777  16.752  1.00  0.00     0.101 C 
HETATM    7  N5  UNL     1      -6.007  -0.165  17.323  1.00  0.00    -0.191 NA
HETATM    8  C15 UNL     1      -5.926   3.151  16.300  1.00  0.00     0.064 A 
HETATM    9  C16 UNL     1      -5.498   4.257  15.566  1.00  0.00     0.111 A 
ENDROOT
BRANCH   9  10
HETATM   10  O3  UNL     1      -6.130   5.461  15.836  1.00  0.00    -0.357 OA
ATOM     11  H3  UNL     1      -6.937   5.727  15.411  1.00  0.00     0.218 HD
ENDBRANCH   9  10
BRANCH   1  12
HETATM   12  N3  UNL     1      -4.105   5.322  13.907  1.00  0.00    -0.363 N 
HETATM   13  C10 UNL     1      -4.799   5.669  12.698  1.00  0.00     0.160 C 
HETATM   14  C9  UNL     1      -3.787   6.189  11.660  1.00  0.00     0.244 C 
HETATM   15  C19 UNL     1      -3.001   7.219  12.395  1.00  0.00     0.018 C 
HETATM   16  C18 UNL     1      -2.083   6.468  13.378  1.00  0.00     0.026 C 
HETATM   17  C20 UNL     1      -2.150   8.169  11.662  1.00  0.00     0.012 C 
HETATM   18  C17 UNL     1      -3.012   6.043  14.507  1.00  0.00     0.125 C 
BRANCH  14  19
HETATM   19  N2  UNL     1      -4.494   6.721  10.504  1.00  0.00     0.091 N 
HETATM   20  C8  UNL     1      -4.049   5.857   9.375  1.00  0.00     0.310 C 
BRANCH  19  21
HETATM   21  C7  UNL     1      -5.911   6.442  10.688  1.00  0.00     0.277 C 
BRANCH  21  22
HETATM   22  C6  UNL     1      -6.833   7.445  10.075  1.00  0.00     0.014 C 
HETATM   23  C5  UNL     1      -7.419   6.988   8.760  1.00  0.00     0.008 C 
HETATM   24  C4  UNL     1      -8.437   8.043   8.367  1.00  0.00     0.026 C 
HETATM   25  C3  UNL     1      -7.594   9.209   7.830  1.00  0.00     0.086 C 
HETATM   26  C22 UNL     1      -6.197   9.166   8.334  1.00  0.00     0.026 C 
HETATM   27  C21 UNL     1      -6.026   8.701   9.750  1.00  0.00     0.008 C 
BRANCH  25  28
HETATM   28  N1  UNL     1      -8.279  10.457   7.972  1.00  0.00    -0.332 N 
HETATM   29  C2  UNL     1      -9.170  10.991   7.002  1.00  0.00     0.360 C 
HETATM   30  O2  UNL     1      -9.363  10.320   5.961  1.00  0.00    -0.239 OA
ATOM     31  H1  UNL     1      -8.117  10.997   8.823  1.00  0.00     0.165 HD
BRANCH  29  32
HETATM   32  O1  UNL     1      -9.829  12.192   7.143  1.00  0.00    -0.309 OA
HETATM   33  C1  UNL     1      -9.820  12.981   8.296  1.00  0.00     0.215 C 
ENDBRANCH  29  32
ENDBRANCH  25  28
ENDBRANCH  21  22
ENDBRANCH  19  21
ENDBRANCH  14  19
ENDBRANCH   1  12
TORSDOF 7
ENDMDL
