MODEL 1
REMARK VINA RESULT: -8.639439141      0.000      0.000
REMARK  12 active torsions:
REMARK  status: ('A' for Active; 'I' for Inactive)
REMARK    1  A    between atoms: O1_2  and  C2_3 
REMARK    2  A    between atoms: C2_3  and  C3_5 
REMARK    3  A    between atoms: C4_6  and  C5_7 
REMARK       I    between atoms: C5_7  and  N1_9 
REMARK    4  A    between atoms: N1_9  and  N2_11 
REMARK    5  A    between atoms: N4_16  and  C6_17 
REMARK    6  A    between atoms: C8_27  and  N8_28 
REMARK       I    between atoms: N8_28  and  C9_30 
REMARK    7  A    between atoms: C9_30  and  C10_32 
REMARK    8  A    between atoms: C18_42  and  C19_43 
REMARK    9  A    between atoms: C19_43  and  O6_44 
REMARK   10  A    between atoms: C19_43  and  C20_46 
REMARK   11  A    between atoms: C20_46  and  N10_47 
REMARK   12  A    between atoms: C20_46  and  C21_51 
ROOT
HETATM    1  C3  UNL     1     -18.756 -23.551 -18.251  1.00  0.00     0.119 A 
HETATM    2  C4  UNL     1     -18.513 -23.702 -19.600  1.00  0.00     0.138 A 
HETATM    3  N3  UNL     1     -18.642 -25.043 -19.850  1.00  0.00    -0.284 N 
ATOM      4  H3  UNL     1     -18.528 -25.480 -20.764  1.00  0.00     0.188 HD
HETATM    5  N4  UNL     1     -18.928 -25.675 -18.758  1.00  0.00    -0.216 N 
HETATM    6  C8  UNL     1     -19.010 -24.779 -17.696  1.00  0.00     0.151 A 
ENDROOT
BRANCH   6   7
HETATM    7  N8  UNL     1     -19.106 -25.261 -16.416  1.00  0.00    -0.305 N 
HETATM    8  C9  UNL     1     -18.246 -25.944 -15.536  1.00  0.00     0.274 C 
HETATM    9  O5  UNL     1     -17.143 -26.392 -15.897  1.00  0.00    -0.266 OA
ATOM     10  H8  UNL     1     -20.021 -25.081 -16.002  1.00  0.00     0.170 HD
BRANCH   8  11
HETATM   11  C10 UNL     1     -18.630 -26.158 -14.121  1.00  0.00     0.110 A 
HETATM   12  N9  UNL     1     -19.928 -26.589 -13.960  1.00  0.00    -0.351 N 
HETATM   13  C11 UNL     1     -20.469 -26.842 -12.779  1.00  0.00     0.043 A 
ATOM     14  H9  UNL     1     -20.501 -26.720 -14.793  1.00  0.00     0.166 HD
HETATM   15  C12 UNL     1     -21.780 -27.277 -12.618  1.00  0.00     0.030 A 
HETATM   16  C16 UNL     1     -19.671 -26.657 -11.671  1.00  0.00    -0.009 A 
HETATM   17  C13 UNL     1     -22.307 -27.531 -11.369  1.00  0.00     0.002 A 
HETATM   18  C14 UNL     1     -21.519 -27.348 -10.253  1.00  0.00     0.001 A 
HETATM   19  C15 UNL     1     -20.225 -26.918 -10.429  1.00  0.00     0.014 A 
HETATM   20  C17 UNL     1     -18.371 -26.225 -11.812  1.00  0.00     0.026 A 
HETATM   21  C18 UNL     1     -17.803 -25.957 -13.073  1.00  0.00     0.006 A 
BRANCH  21  22
HETATM   22  C19 UNL     1     -16.422 -25.523 -13.221  1.00  0.00     0.194 C 
BRANCH  22  23
HETATM   23  O6  UNL     1     -15.742 -26.029 -12.091  1.00  0.00    -0.388 OA
ATOM     24  H6  UNL     1     -14.983 -26.486 -12.433  1.00  0.00     0.210 HD
ENDBRANCH  22  23
BRANCH  22  25
HETATM   25  C20 UNL     1     -16.246 -24.002 -13.205  1.00  0.00     0.316 C 
BRANCH  25  26
HETATM   26  N10 UNL     1     -15.144 -23.794 -12.226  1.00  0.00    -0.062 N 
ATOM     27 3H10 UNL     1     -14.293 -23.399 -12.626  1.00  0.00     0.275 HD
ATOM     28 2H10 UNL     1     -15.307 -23.040 -11.559  1.00  0.00     0.275 HD
ATOM     29 1H10 UNL     1     -15.027 -24.715 -11.805  1.00  0.00     0.275 HD
ENDBRANCH  25  26
BRANCH  25  30
HETATM   30  C21 UNL     1     -15.722 -23.504 -14.502  1.00  0.00     0.207 C 
HETATM   31  O7  UNL     1     -16.337 -22.763 -15.293  1.00  0.00    -0.646 OA
HETATM   32  O8  UNL     1     -14.428 -23.870 -14.919  1.00  0.00    -0.646 OA
ENDBRANCH  25  30
ENDBRANCH  22  25
ENDBRANCH  21  22
ENDBRANCH   8  11
ENDBRANCH   6   7
BRANCH   1  33
HETATM   33  C2  UNL     1     -18.960 -22.241 -17.660  1.00  0.00     0.299 C 
HETATM   34  O2  UNL     1     -18.382 -21.212 -18.078  1.00  0.00    -0.259 OA
BRANCH  33  35
HETATM   35  O1  UNL     1     -19.806 -22.064 -16.590  1.00  0.00    -0.322 OA
HETATM   36  C1  UNL     1     -19.365 -21.489 -15.362  1.00  0.00     0.213 C 
ENDBRANCH  33  35
ENDBRANCH   1  33
BRANCH   5  37
HETATM   37  C6  UNL     1     -19.130 -27.090 -18.664  1.00  0.00     0.196 A 
HETATM   38  N5  UNL     1     -20.308 -27.766 -18.657  1.00  0.00    -0.220 N 
HETATM   39  O4  UNL     1     -20.058 -29.028 -18.556  1.00  0.00    -0.153 OA
ATOM     40  H5  UNL     1     -21.235 -27.346 -18.720  1.00  0.00     0.198 HD
HETATM   41  N6  UNL     1     -18.769 -29.246 -18.494  1.00  0.00    -0.222 N 
HETATM   42  C7  UNL     1     -18.167 -28.063 -18.557  1.00  0.00     0.169 A 
ATOM     43  H6  UNL     1     -18.313 -30.154 -18.413  1.00  0.00     0.198 HD
HETATM   44  N7  UNL     1     -16.891 -27.864 -18.525  1.00  0.00    -0.381 N 
ATOM     45  H72 UNL     1     -16.428 -26.957 -18.574  1.00  0.00     0.157 HD
ATOM     46  H71 UNL     1     -16.175 -28.587 -18.446  1.00  0.00     0.157 HD
ENDBRANCH   5  37
BRANCH   2  47
HETATM   47  C5  UNL     1     -18.080 -22.846 -20.670  1.00  0.00     0.288 C 
HETATM   48  O3  UNL     1     -16.850 -22.926 -21.011  1.00  0.00    -0.264 OA
HETATM   49  N1  UNL     1     -18.895 -21.939 -21.345  1.00  0.00    -0.271 N 
ATOM     50  H1  UNL     1     -19.876 -21.851 -21.079  1.00  0.00     0.189 HD
BRANCH  49  51
HETATM   51  N2  UNL     1     -18.399 -21.162 -22.364  1.00  0.00    -0.342 N 
ATOM     52  H22 UNL     1     -17.727 -21.577 -23.008  1.00  0.00     0.176 HD
ATOM     53  H21 UNL     1     -18.694 -20.192 -22.476  1.00  0.00     0.176 HD
ENDBRANCH  49  51
ENDBRANCH   2  47
TORSDOF 12
ENDMDL
MODEL 2
REMARK VINA RESULT: -8.537396604      4.123      6.566
REMARK  12 active torsions:
REMARK  status: ('A' for Active; 'I' for Inactive)
REMARK    1  A    between atoms: O1_2  and  C2_3 
REMARK    2  A    between atoms: C2_3  and  C3_5 
REMARK    3  A    between atoms: C4_6  and  C5_7 
REMARK       I    between atoms: C5_7  and  N1_9 
REMARK    4  A    between atoms: N1_9  and  N2_11 
REMARK    5  A    between atoms: N4_16  and  C6_17 
REMARK    6  A    between atoms: C8_27  and  N8_28 
REMARK       I    between atoms: N8_28  and  C9_30 
REMARK    7  A    between atoms: C9_30  and  C10_32 
REMARK    8  A    between atoms: C18_42  and  C19_43 
REMARK    9  A    between atoms: C19_43  and  O6_44 
REMARK   10  A    between atoms: C19_43  and  C20_46 
REMARK   11  A    between atoms: C20_46  and  N10_47 
REMARK   12  A    between atoms: C20_46  and  C21_51 
ROOT
HETATM    1  C3  UNL     1     -14.259 -29.586 -16.486  1.00  0.00     0.119 A 
HETATM    2  C4  UNL     1     -12.910 -29.797 -16.679  1.00  0.00     0.138 A 
HETATM    3  N3  UNL     1     -12.307 -29.432 -15.505  1.00  0.00    -0.284 N 
ATOM      4  H3  UNL     1     -11.305 -29.477 -15.324  1.00  0.00     0.188 HD
HETATM    5  N4  UNL     1     -13.195 -29.020 -14.657  1.00  0.00    -0.216 N 
HETATM    6  C8  UNL     1     -14.464 -29.088 -15.225  1.00  0.00     0.151 A 
ENDROOT
BRANCH   6   7
HETATM    7  N8  UNL     1     -15.523 -28.513 -14.572  1.00  0.00    -0.305 N 
HETATM    8  C9  UNL     1     -16.809 -28.074 -14.941  1.00  0.00     0.274 C 
HETATM    9  O5  UNL     1     -17.179 -28.020 -16.126  1.00  0.00    -0.266 OA
ATOM     10  H8  UNL     1     -15.334 -28.368 -13.580  1.00  0.00     0.170 HD
BRANCH   8  11
HETATM   11  C10 UNL     1     -17.786 -27.653 -13.909  1.00  0.00     0.110 A 
HETATM   12  N9  UNL     1     -18.893 -28.468 -13.830  1.00  0.00    -0.351 N 
HETATM   13  C11 UNL     1     -19.882 -28.270 -12.974  1.00  0.00     0.043 A 
ATOM     14  H9  UNL     1     -18.954 -29.264 -14.465  1.00  0.00     0.166 HD
HETATM   15  C12 UNL     1     -21.000 -29.094 -12.897  1.00  0.00     0.030 A 
HETATM   16  C16 UNL     1     -19.774 -27.188 -12.129  1.00  0.00    -0.009 A 
HETATM   17  C13 UNL     1     -22.010 -28.854 -11.989  1.00  0.00     0.002 A 
HETATM   18  C14 UNL     1     -21.913 -27.774 -11.139  1.00  0.00     0.001 A 
HETATM   19  C15 UNL     1     -20.802 -26.970 -11.228  1.00  0.00     0.014 A 
HETATM   20  C17 UNL     1     -18.673 -26.361 -12.193  1.00  0.00     0.026 A 
HETATM   21  C18 UNL     1     -17.625 -26.578 -13.109  1.00  0.00     0.006 A 
BRANCH  21  22
HETATM   22  C19 UNL     1     -16.454 -25.716 -13.159  1.00  0.00     0.194 C 
BRANCH  22  23
HETATM   23  O6  UNL     1     -15.555 -26.240 -12.204  1.00  0.00    -0.388 OA
ATOM     24  H6  UNL     1     -14.950 -26.784 -12.694  1.00  0.00     0.210 HD
ENDBRANCH  22  23
BRANCH  22  25
HETATM   25  C20 UNL     1     -16.735 -24.265 -12.759  1.00  0.00     0.316 C 
BRANCH  25  26
HETATM   26  N10 UNL     1     -15.457 -23.825 -12.138  1.00  0.00    -0.062 N 
ATOM     27 3H10 UNL     1     -15.327 -24.132 -11.174  1.00  0.00     0.275 HD
ATOM     28 2H10 UNL     1     -14.625 -24.286 -12.508  1.00  0.00     0.275 HD
ATOM     29 1H10 UNL     1     -15.470 -22.813 -12.263  1.00  0.00     0.275 HD
ENDBRANCH  25  26
BRANCH  25  30
HETATM   30  C21 UNL     1     -16.913 -23.399 -13.953  1.00  0.00     0.207 C 
HETATM   31  O7  UNL     1     -18.001 -22.951 -14.365  1.00  0.00    -0.646 OA
HETATM   32  O8  UNL     1     -15.791 -23.024 -14.717  1.00  0.00    -0.646 OA
ENDBRANCH  25  30
ENDBRANCH  22  25
ENDBRANCH  21  22
ENDBRANCH   8  11
ENDBRANCH   6   7
BRANCH   1  33
HETATM   33  C2  UNL     1     -15.248 -30.096 -17.419  1.00  0.00     0.299 C 
HETATM   34  O2  UNL     1     -16.040 -31.020 -17.128  1.00  0.00    -0.259 OA
BRANCH  33  35
HETATM   35  O1  UNL     1     -15.360 -29.584 -18.691  1.00  0.00    -0.322 OA
HETATM   36  C1  UNL     1     -15.199 -28.194 -18.964  1.00  0.00     0.213 C 
ENDBRANCH  33  35
ENDBRANCH   1  33
BRANCH   5  37
HETATM   37  C6  UNL     1     -12.905 -28.563 -13.332  1.00  0.00     0.196 A 
HETATM   38  N5  UNL     1     -12.790 -27.280 -12.899  1.00  0.00    -0.220 N 
HETATM   39  O4  UNL     1     -12.521 -27.294 -11.636  1.00  0.00    -0.153 OA
ATOM     40  H5  UNL     1     -12.899 -26.446 -13.475  1.00  0.00     0.198 HD
HETATM   41  N6  UNL     1     -12.446 -28.521 -11.188  1.00  0.00    -0.222 N 
HETATM   42  C7  UNL     1     -12.679 -29.331 -12.216  1.00  0.00     0.169 A 
ATOM     43  H6  UNL     1     -12.247 -28.803 -10.228  1.00  0.00     0.198 HD
HETATM   44  N7  UNL     1     -12.690 -30.621 -12.171  1.00  0.00    -0.381 N 
ATOM     45  H72 UNL     1     -12.869 -31.243 -12.960  1.00  0.00     0.157 HD
ATOM     46  H71 UNL     1     -12.522 -31.192 -11.342  1.00  0.00     0.157 HD
ENDBRANCH   5  37
BRANCH   2  47
HETATM   47  C5  UNL     1     -12.076 -30.173 -17.788  1.00  0.00     0.288 C 
HETATM   48  O3  UNL     1     -11.975 -31.423 -18.037  1.00  0.00    -0.264 OA
HETATM   49  N1  UNL     1     -11.369 -29.280 -18.591  1.00  0.00    -0.271 N 
ATOM     50  H1  UNL     1     -11.425 -28.279 -18.400  1.00  0.00     0.189 HD
BRANCH  49  51
HETATM   51  N2  UNL     1     -10.597 -29.725 -19.637  1.00  0.00    -0.342 N 
ATOM     52  H22 UNL     1     -10.867 -29.465 -20.585  1.00  0.00     0.176 HD
ATOM     53  H21 UNL     1      -9.773 -30.304 -19.473  1.00  0.00     0.176 HD
ENDBRANCH  49  51
ENDBRANCH   2  47
TORSDOF 12
ENDMDL
MODEL 3
REMARK VINA RESULT: -8.194834290      2.790      7.848
REMARK  12 active torsions:
REMARK  status: ('A' for Active; 'I' for Inactive)
REMARK    1  A    between atoms: O1_2  and  C2_3 
REMARK    2  A    between atoms: C2_3  and  C3_5 
REMARK    3  A    between atoms: C4_6  and  C5_7 
REMARK       I    between atoms: C5_7  and  N1_9 
REMARK    4  A    between atoms: N1_9  and  N2_11 
REMARK    5  A    between atoms: N4_16  and  C6_17 
REMARK    6  A    between atoms: C8_27  and  N8_28 
REMARK       I    between atoms: N8_28  and  C9_30 
REMARK    7  A    between atoms: C9_30  and  C10_32 
REMARK    8  A    between atoms: C18_42  and  C19_43 
REMARK    9  A    between atoms: C19_43  and  O6_44 
REMARK   10  A    between atoms: C19_43  and  C20_46 
REMARK   11  A    between atoms: C20_46  and  N10_47 
REMARK   12  A    between atoms: C20_46  and  C21_51 
ROOT
HETATM    1  C3  UNL     1     -19.137 -26.769 -12.052  1.00  0.00     0.119 A 
HETATM    2  C4  UNL     1     -18.482 -26.397 -10.897  1.00  0.00     0.138 A 
HETATM    3  N3  UNL     1     -17.487 -25.544 -11.296  1.00  0.00    -0.284 N 
ATOM      4  H3  UNL     1     -16.824 -25.088 -10.670  1.00  0.00     0.188 HD
HETATM    5  N4  UNL     1     -17.511 -25.402 -12.582  1.00  0.00    -0.216 N 
HETATM    6  C8  UNL     1     -18.540 -26.164 -13.127  1.00  0.00     0.151 A 
ENDROOT
BRANCH   6   7
HETATM    7  N8  UNL     1     -18.616 -26.314 -14.488  1.00  0.00    -0.305 N 
HETATM    8  C9  UNL     1     -18.993 -25.493 -15.568  1.00  0.00     0.274 C 
HETATM    9  O5  UNL     1     -19.515 -24.376 -15.403  1.00  0.00    -0.266 OA
ATOM     10  H8  UNL     1     -18.331 -27.245 -14.791  1.00  0.00     0.170 HD
BRANCH   8  11
HETATM   11  C10 UNL     1     -18.776 -25.937 -16.964  1.00  0.00     0.110 A 
HETATM   12  N9  UNL     1     -19.884 -25.797 -17.768  1.00  0.00    -0.351 N 
HETATM   13  C11 UNL     1     -19.902 -26.131 -19.048  1.00  0.00     0.043 A 
ATOM     14  H9  UNL     1     -20.736 -25.416 -17.356  1.00  0.00     0.166 HD
HETATM   15  C12 UNL     1     -21.023 -25.989 -19.859  1.00  0.00     0.030 A 
HETATM   16  C16 UNL     1     -18.738 -26.644 -19.578  1.00  0.00    -0.009 A 
HETATM   17  C13 UNL     1     -21.000 -26.350 -21.190  1.00  0.00     0.002 A 
HETATM   18  C14 UNL     1     -19.842 -26.864 -21.731  1.00  0.00     0.001 A 
HETATM   19  C15 UNL     1     -18.743 -26.998 -20.917  1.00  0.00     0.014 A 
HETATM   20  C17 UNL     1     -17.618 -26.793 -18.789  1.00  0.00     0.026 A 
HETATM   21  C18 UNL     1     -17.610 -26.435 -17.427  1.00  0.00     0.006 A 
BRANCH  21  22
HETATM   22  C19 UNL     1     -16.419 -26.572 -16.601  1.00  0.00     0.194 C 
BRANCH  22  23
HETATM   23  O6  UNL     1     -15.379 -25.950 -17.327  1.00  0.00    -0.388 OA
ATOM     24  H6  UNL     1     -14.612 -26.495 -17.193  1.00  0.00     0.210 HD
ENDBRANCH  22  23
BRANCH  22  25
HETATM   25  C20 UNL     1     -15.993 -28.024 -16.365  1.00  0.00     0.316 C 
BRANCH  25  26
HETATM   26  N10 UNL     1     -14.809 -28.183 -17.252  1.00  0.00    -0.062 N 
ATOM     27 3H10 UNL     1     -14.989 -27.988 -18.237  1.00  0.00     0.275 HD
ATOM     28 2H10 UNL     1     -14.091 -27.469 -17.133  1.00  0.00     0.275 HD
ATOM     29 1H10 UNL     1     -14.496 -29.134 -17.059  1.00  0.00     0.275 HD
ENDBRANCH  25  26
BRANCH  25  30
HETATM   30  C21 UNL     1     -15.482 -28.220 -14.984  1.00  0.00     0.207 C 
HETATM   31  O7  UNL     1     -16.187 -28.366 -13.967  1.00  0.00    -0.646 OA
HETATM   32  O8  UNL     1     -14.093 -28.253 -14.751  1.00  0.00    -0.646 OA
ENDBRANCH  25  30
ENDBRANCH  22  25
ENDBRANCH  21  22
ENDBRANCH   8  11
ENDBRANCH   6   7
BRANCH   1  33
HETATM   33  C2  UNL     1     -20.410 -27.468 -12.010  1.00  0.00     0.299 C 
HETATM   34  O2  UNL     1     -20.709 -28.378 -12.816  1.00  0.00    -0.259 OA
BRANCH  33  35
HETATM   35  O1  UNL     1     -21.366 -27.155 -11.071  1.00  0.00    -0.322 OA
HETATM   36  C1  UNL     1     -22.572 -27.904 -10.942  1.00  0.00     0.213 C 
ENDBRANCH  33  35
ENDBRANCH   1  33
BRANCH   5  37
HETATM   37  C6  UNL     1     -16.606 -24.579 -13.328  1.00  0.00     0.196 A 
HETATM   38  N5  UNL     1     -16.883 -23.433 -14.002  1.00  0.00    -0.220 N 
HETATM   39  O4  UNL     1     -15.795 -22.999 -14.542  1.00  0.00    -0.153 OA
ATOM     40  H5  UNL     1     -17.799 -22.990 -14.070  1.00  0.00     0.198 HD
HETATM   41  N6  UNL     1     -14.789 -23.791 -14.270  1.00  0.00    -0.222 N 
HETATM   42  C7  UNL     1     -15.261 -24.781 -13.519  1.00  0.00     0.169 A 
ATOM     43  H6  UNL     1     -13.824 -23.671 -14.577  1.00  0.00     0.198 HD
HETATM   44  N7  UNL     1     -14.570 -25.766 -13.049  1.00  0.00    -0.381 N 
ATOM     45  H72 UNL     1     -14.931 -26.525 -12.473  1.00  0.00     0.157 HD
ATOM     46  H71 UNL     1     -13.571 -25.916 -13.191  1.00  0.00     0.157 HD
ENDBRANCH   5  37
BRANCH   2  47
HETATM   47  C5  UNL     1     -18.544 -26.774  -9.511  1.00  0.00     0.288 C 
HETATM   48  O3  UNL     1     -17.514 -27.357  -9.026  1.00  0.00    -0.264 OA
HETATM   49  N1  UNL     1     -19.639 -26.561  -8.676  1.00  0.00    -0.271 N 
ATOM     50  H1  UNL     1     -20.474 -26.110  -9.049  1.00  0.00     0.189 HD
BRANCH  49  51
HETATM   51  N2  UNL     1     -19.610 -26.948  -7.358  1.00  0.00    -0.342 N 
ATOM     52  H22 UNL     1     -18.714 -26.952  -6.872  1.00  0.00     0.176 HD
ATOM     53  H21 UNL     1     -20.463 -27.228  -6.874  1.00  0.00     0.176 HD
ENDBRANCH  49  51
ENDBRANCH   2  47
TORSDOF 12
ENDMDL
MODEL 4
REMARK VINA RESULT: -8.138930669      2.318      6.857
REMARK  12 active torsions:
REMARK  status: ('A' for Active; 'I' for Inactive)
REMARK    1  A    between atoms: O1_2  and  C2_3 
REMARK    2  A    between atoms: C2_3  and  C3_5 
REMARK    3  A    between atoms: C4_6  and  C5_7 
REMARK       I    between atoms: C5_7  and  N1_9 
REMARK    4  A    between atoms: N1_9  and  N2_11 
REMARK    5  A    between atoms: N4_16  and  C6_17 
REMARK    6  A    between atoms: C8_27  and  N8_28 
REMARK       I    between atoms: N8_28  and  C9_30 
REMARK    7  A    between atoms: C9_30  and  C10_32 
REMARK    8  A    between atoms: C18_42  and  C19_43 
REMARK    9  A    between atoms: C19_43  and  O6_44 
REMARK   10  A    between atoms: C19_43  and  C20_46 
REMARK   11  A    between atoms: C20_46  and  N10_47 
REMARK   12  A    between atoms: C20_46  and  C21_51 
ROOT
HETATM    1  C3  UNL     1     -17.407 -24.650 -14.479  1.00  0.00     0.119 A 
HETATM    2  C4  UNL     1     -16.943 -25.074 -13.252  1.00  0.00     0.138 A 
HETATM    3  N3  UNL     1     -17.372 -26.368 -13.122  1.00  0.00    -0.284 N 
ATOM      4  H3  UNL     1     -17.184 -26.968 -12.319  1.00  0.00     0.188 HD
HETATM    5  N4  UNL     1     -18.049 -26.720 -14.167  1.00  0.00    -0.216 N 
HETATM    6  C8  UNL     1     -18.114 -25.664 -15.072  1.00  0.00     0.151 A 
ENDROOT
BRANCH   6   7
HETATM    7  N8  UNL     1     -18.951 -25.757 -16.153  1.00  0.00    -0.305 N 
HETATM    8  C9  UNL     1     -18.805 -25.626 -17.548  1.00  0.00     0.274 C 
HETATM    9  O5  UNL     1     -17.754 -25.216 -18.071  1.00  0.00    -0.266 OA
ATOM     10  H8  UNL     1     -19.911 -25.973 -15.883  1.00  0.00     0.170 HD
BRANCH   8  11
HETATM   11  C10 UNL     1     -19.919 -25.978 -18.458  1.00  0.00     0.110 A 
HETATM   12  N9  UNL     1     -20.090 -27.334 -18.624  1.00  0.00    -0.351 N 
HETATM   13  C11 UNL     1     -21.030 -27.861 -19.392  1.00  0.00     0.043 A 
ATOM     14  H9  UNL     1     -19.460 -27.965 -18.130  1.00  0.00     0.166 HD
HETATM   15  C12 UNL     1     -21.200 -29.231 -19.559  1.00  0.00     0.030 A 
HETATM   16  C16 UNL     1     -21.867 -26.985 -20.048  1.00  0.00    -0.009 A 
HETATM   17  C13 UNL     1     -22.193 -29.740 -20.369  1.00  0.00     0.002 A 
HETATM   18  C14 UNL     1     -23.036 -28.874 -21.031  1.00  0.00     0.001 A 
HETATM   19  C15 UNL     1     -22.855 -27.523 -20.855  1.00  0.00     0.014 A 
HETATM   20  C17 UNL     1     -21.712 -25.625 -19.895  1.00  0.00     0.026 A 
HETATM   21  C18 UNL     1     -20.707 -25.073 -19.076  1.00  0.00     0.006 A 
BRANCH  21  22
HETATM   22  C19 UNL     1     -20.560 -23.637 -18.898  1.00  0.00     0.194 C 
BRANCH  22  23
HETATM   23  O6  UNL     1     -21.874 -23.129 -18.795  1.00  0.00    -0.388 OA
ATOM     24  H6  UNL     1     -21.793 -22.303 -18.333  1.00  0.00     0.210 HD
ENDBRANCH  22  23
BRANCH  22  25
HETATM   25  C20 UNL     1     -19.901 -22.930 -20.086  1.00  0.00     0.316 C 
BRANCH  25  26
HETATM   26  N10 UNL     1     -20.868 -21.851 -20.424  1.00  0.00    -0.062 N 
ATOM     27 3H10 UNL     1     -21.773 -21.934 -19.961  1.00  0.00     0.275 HD
ATOM     28 2H10 UNL     1     -20.634 -20.936 -20.037  1.00  0.00     0.275 HD
ATOM     29 1H10 UNL     1     -20.908 -21.882 -21.443  1.00  0.00     0.275 HD
ENDBRANCH  25  26
BRANCH  25  30
HETATM   30  C21 UNL     1     -18.655 -22.231 -19.677  1.00  0.00     0.207 C 
HETATM   31  O7  UNL     1     -17.501 -22.555 -20.016  1.00  0.00    -0.646 OA
HETATM   32  O8  UNL     1     -18.731 -21.102 -18.838  1.00  0.00    -0.646 OA
ENDBRANCH  25  30
ENDBRANCH  22  25
ENDBRANCH  21  22
ENDBRANCH   8  11
ENDBRANCH   6   7
BRANCH   1  33
HETATM   33  C2  UNL     1     -16.939 -23.414 -15.081  1.00  0.00     0.299 C 
HETATM   34  O2  UNL     1     -15.759 -23.012 -14.969  1.00  0.00    -0.259 OA
BRANCH  33  35
HETATM   35  O1  UNL     1     -17.784 -22.610 -15.810  1.00  0.00    -0.322 OA
HETATM   36  C1  UNL     1     -18.977 -22.063 -15.252  1.00  0.00     0.213 C 
ENDBRANCH  33  35
ENDBRANCH   1  33
BRANCH   5  37
HETATM   37  C6  UNL     1     -18.643 -28.009 -14.357  1.00  0.00     0.196 A 
HETATM   38  N5  UNL     1     -18.206 -29.020 -15.153  1.00  0.00    -0.220 N 
HETATM   39  O4  UNL     1     -19.023 -30.013 -15.043  1.00  0.00    -0.153 OA
ATOM     40  H5  UNL     1     -17.372 -28.997 -15.739  1.00  0.00     0.198 HD
HETATM   41  N6  UNL     1     -19.994 -29.731 -14.213  1.00  0.00    -0.222 N 
HETATM   42  C7  UNL     1     -19.787 -28.495 -13.771  1.00  0.00     0.169 A 
ATOM     43  H6  UNL     1     -20.766 -30.345 -13.953  1.00  0.00     0.198 HD
HETATM   44  N7  UNL     1     -20.535 -27.858 -12.933  1.00  0.00    -0.381 N 
ATOM     45  H72 UNL     1     -20.377 -26.910 -12.594  1.00  0.00     0.157 HD
ATOM     46  H71 UNL     1     -21.385 -28.219 -12.498  1.00  0.00     0.157 HD
ENDBRANCH   5  37
BRANCH   2  47
HETATM   47  C5  UNL     1     -16.271 -24.462 -12.138  1.00  0.00     0.288 C 
HETATM   48  O3  UNL     1     -16.802 -24.621 -10.986  1.00  0.00    -0.264 OA
HETATM   49  N1  UNL     1     -15.103 -23.707 -12.229  1.00  0.00    -0.271 N 
ATOM     50  H1  UNL     1     -14.672 -23.557 -13.141  1.00  0.00     0.189 HD
BRANCH  49  51
HETATM   51  N2  UNL     1     -14.522 -23.162 -11.109  1.00  0.00    -0.342 N 
ATOM     52  H22 UNL     1     -13.989 -23.774 -10.492  1.00  0.00     0.176 HD
ATOM     53  H21 UNL     1     -14.621 -22.170 -10.896  1.00  0.00     0.176 HD
ENDBRANCH  49  51
ENDBRANCH   2  47
TORSDOF 12
ENDMDL
MODEL 5
REMARK VINA RESULT: -8.088460325      2.492      6.676
REMARK  12 active torsions:
REMARK  status: ('A' for Active; 'I' for Inactive)
REMARK    1  A    between atoms: O1_2  and  C2_3 
REMARK    2  A    between atoms: C2_3  and  C3_5 
REMARK    3  A    between atoms: C4_6  and  C5_7 
REMARK       I    between atoms: C5_7  and  N1_9 
REMARK    4  A    between atoms: N1_9  and  N2_11 
REMARK    5  A    between atoms: N4_16  and  C6_17 
REMARK    6  A    between atoms: C8_27  and  N8_28 
REMARK       I    between atoms: N8_28  and  C9_30 
REMARK    7  A    between atoms: C9_30  and  C10_32 
REMARK    8  A    between atoms: C18_42  and  C19_43 
REMARK    9  A    between atoms: C19_43  and  O6_44 
REMARK   10  A    between atoms: C19_43  and  C20_46 
REMARK   11  A    between atoms: C20_46  and  N10_47 
REMARK   12  A    between atoms: C20_46  and  C21_51 
ROOT
HETATM    1  C3  UNL     1     -17.523 -24.569 -14.671  1.00  0.00     0.119 A 
HETATM    2  C4  UNL     1     -16.936 -25.072 -13.530  1.00  0.00     0.138 A 
HETATM    3  N3  UNL     1     -17.188 -26.418 -13.547  1.00  0.00    -0.284 N 
ATOM      4  H3  UNL     1     -16.878 -27.079 -12.835  1.00  0.00     0.188 HD
HETATM    5  N4  UNL     1     -17.878 -26.729 -14.596  1.00  0.00    -0.216 N 
HETATM    6  C8  UNL     1     -18.131 -25.590 -15.355  1.00  0.00     0.151 A 
ENDROOT
BRANCH   6   7
HETATM    7  N8  UNL     1     -19.014 -25.662 -16.401  1.00  0.00    -0.305 N 
HETATM    8  C9  UNL     1     -18.904 -25.794 -17.799  1.00  0.00     0.274 C 
HETATM    9  O5  UNL     1     -17.812 -25.725 -18.389  1.00  0.00    -0.266 OA
ATOM     10  H8  UNL     1     -19.985 -25.607 -16.093  1.00  0.00     0.170 HD
BRANCH   8  11
HETATM   11  C10 UNL     1     -20.108 -26.026 -18.631  1.00  0.00     0.110 A 
HETATM   12  N9  UNL     1     -20.384 -27.357 -18.846  1.00  0.00    -0.351 N 
HETATM   13  C11 UNL     1     -21.416 -27.780 -19.559  1.00  0.00     0.043 A 
ATOM     14  H9  UNL     1     -19.762 -28.053 -18.435  1.00  0.00     0.166 HD
HETATM   15  C12 UNL     1     -21.693 -29.126 -19.775  1.00  0.00     0.030 A 
HETATM   16  C16 UNL     1     -22.239 -26.819 -20.103  1.00  0.00    -0.009 A 
HETATM   17  C13 UNL     1     -22.779 -29.526 -20.525  1.00  0.00     0.002 A 
HETATM   18  C14 UNL     1     -23.609 -28.573 -21.074  1.00  0.00     0.001 A 
HETATM   19  C15 UNL     1     -23.322 -27.248 -20.851  1.00  0.00     0.014 A 
HETATM   20  C17 UNL     1     -21.978 -25.481 -19.899  1.00  0.00     0.026 A 
HETATM   21  C18 UNL     1     -20.877 -25.040 -19.139  1.00  0.00     0.006 A 
BRANCH  21  22
HETATM   22  C19 UNL     1     -20.617 -23.627 -18.907  1.00  0.00     0.194 C 
BRANCH  22  23
HETATM   23  O6  UNL     1     -21.888 -23.015 -18.826  1.00  0.00    -0.388 OA
ATOM     24  H6  UNL     1     -22.177 -23.145 -17.930  1.00  0.00     0.210 HD
ENDBRANCH  22  23
BRANCH  22  25
HETATM   25  C20 UNL     1     -19.863 -22.940 -20.049  1.00  0.00     0.316 C 
BRANCH  25  26
HETATM   26  N10 UNL     1     -20.799 -21.868 -20.484  1.00  0.00    -0.062 N 
ATOM     27 3H10 UNL     1     -21.319 -21.427 -19.725  1.00  0.00     0.275 HD
ATOM     28 2H10 UNL     1     -20.344 -21.015 -20.809  1.00  0.00     0.275 HD
ATOM     29 1H10 UNL     1     -21.380 -22.331 -21.182  1.00  0.00     0.275 HD
ENDBRANCH  25  26
BRANCH  25  30
HETATM   30  C21 UNL     1     -18.655 -22.234 -19.552  1.00  0.00     0.207 C 
HETATM   31  O7  UNL     1     -18.657 -21.180 -18.888  1.00  0.00    -0.646 OA
HETATM   32  O8  UNL     1     -17.377 -22.758 -19.826  1.00  0.00    -0.646 OA
ENDBRANCH  25  30
ENDBRANCH  22  25
ENDBRANCH  21  22
ENDBRANCH   8  11
ENDBRANCH   6   7
BRANCH   1  33
HETATM   33  C2  UNL     1     -17.253 -23.219 -15.131  1.00  0.00     0.299 C 
HETATM   34  O2  UNL     1     -16.146 -22.657 -14.967  1.00  0.00    -0.259 OA
BRANCH  33  35
HETATM   35  O1  UNL     1     -18.216 -22.478 -15.776  1.00  0.00    -0.322 OA
HETATM   36  C1  UNL     1     -19.191 -21.721 -15.063  1.00  0.00     0.213 C 
ENDBRANCH  33  35
ENDBRANCH   1  33
BRANCH   5  37
HETATM   37  C6  UNL     1     -18.315 -28.054 -14.922  1.00  0.00     0.196 A 
HETATM   38  N5  UNL     1     -19.271 -28.792 -14.301  1.00  0.00    -0.220 N 
HETATM   39  O4  UNL     1     -19.363 -29.933 -14.899  1.00  0.00    -0.153 OA
ATOM     40  H5  UNL     1     -19.824 -28.495 -13.498  1.00  0.00     0.198 HD
HETATM   41  N6  UNL     1     -18.518 -30.008 -15.894  1.00  0.00    -0.222 N 
HETATM   42  C7  UNL     1     -17.852 -28.858 -15.934  1.00  0.00     0.169 A 
ATOM     43  H6  UNL     1     -18.393 -30.801 -16.523  1.00  0.00     0.198 HD
HETATM   44  N7  UNL     1     -16.927 -28.551 -16.782  1.00  0.00    -0.381 N 
ATOM     45  H72 UNL     1     -16.417 -27.669 -16.812  1.00  0.00     0.157 HD
ATOM     46  H71 UNL     1     -16.584 -29.149 -17.533  1.00  0.00     0.157 HD
ENDBRANCH   5  37
BRANCH   2  47
HETATM   47  C5  UNL     1     -16.279 -24.514 -12.378  1.00  0.00     0.288 C 
HETATM   48  O3  UNL     1     -16.869 -24.657 -11.253  1.00  0.00    -0.264 OA
HETATM   49  N1  UNL     1     -15.067 -23.828 -12.407  1.00  0.00    -0.271 N 
ATOM     50  H1  UNL     1     -14.588 -23.692 -13.297  1.00  0.00     0.189 HD
BRANCH  49  51
HETATM   51  N2  UNL     1     -14.506 -23.332 -11.255  1.00  0.00    -0.342 N 
ATOM     52  H22 UNL     1     -14.828 -23.701 -10.360  1.00  0.00     0.176 HD
ATOM     53  H21 UNL     1     -13.785 -22.612 -11.289  1.00  0.00     0.176 HD
ENDBRANCH  49  51
ENDBRANCH   2  47
TORSDOF 12
ENDMDL
