MODEL 1
REMARK VINA RESULT: -6.892876357      0.000      0.000
REMARK  6 active torsions:
REMARK  status: ('A' for Active; 'I' for Inactive)
REMARK    1  A    between atoms: O1_2  and  C2_3 
REMARK    2  A    between atoms: C3_4  and  C4_5 
REMARK    3  A    between atoms: C13_16  and  C14_17 
REMARK    4  A    between atoms: C16_20  and  O5_21 
REMARK    5  A    between atoms: C22_29  and  C23_30 
REMARK    6  A    between atoms: C23_30  and  O6_31 
ROOT
HETATM    1  C2  UNL     1      -3.985   3.040  12.782  1.00  0.00     0.171 C 
HETATM    2  C3  UNL     1      -4.592   3.258  14.125  1.00  0.00     0.044 C 
HETATM    3  C5  UNL     1      -4.818   4.436  14.628  1.00  0.00    -0.010 C 
HETATM    4  C6  UNL     1      -4.513   5.705  13.970  1.00  0.00     0.034 C 
HETATM    5  C7  UNL     1      -3.980   5.564  12.600  1.00  0.00     0.007 C 
HETATM    6  C8  UNL     1      -5.013   5.839  11.493  1.00  0.00    -0.002 C 
HETATM    7  C9  UNL     1      -5.810   7.023  11.904  1.00  0.00     0.006 C 
HETATM    8  C10 UNL     1      -6.514   7.762  10.790  1.00  0.00     0.014 C 
HETATM    9  C11 UNL     1      -5.894   7.612   9.447  1.00  0.00     0.005 C 
HETATM   10  C12 UNL     1      -6.500   6.392   8.796  1.00  0.00     0.019 C 
HETATM   11  C13 UNL     1      -5.919   8.780   8.544  1.00  0.00     0.097 C 
HETATM   12  C16 UNL     1      -4.492   9.043   8.059  1.00  0.00     0.160 C 
HETATM   13  C17 UNL     1      -3.808   7.701   8.373  1.00  0.00     0.079 C 
HETATM   14  C18 UNL     1      -4.392   7.412   9.706  1.00  0.00     0.118 C 
HETATM   15  F1  UNL     1      -3.938   8.378  10.576  1.00  0.00    -0.242 F 
HETATM   16  C19 UNL     1      -4.230   6.036  10.217  1.00  0.00     0.031 C 
HETATM   17  C20 UNL     1      -2.791   5.637  10.310  1.00  0.00     0.009 C 
HETATM   18  C21 UNL     1      -2.760   4.245  10.938  1.00  0.00     0.015 C 
HETATM   19  C22 UNL     1      -3.224   4.301  12.372  1.00  0.00     0.016 C 
ENDROOT
BRANCH   2  20
HETATM   20  C4  UNL     1      -4.935   2.105  14.941  1.00  0.00     0.207 C 
HETATM   21  O2  UNL     1      -4.347   1.008  14.837  1.00  0.00    -0.644 OA
HETATM   22  O3  UNL     1      -5.952   2.160  15.899  1.00  0.00    -0.644 OA
ENDBRANCH   2  20
BRANCH   1  23
HETATM   23  O1  UNL     1      -4.920   2.683  11.860  1.00  0.00    -0.385 OA
HETATM   24  C1  UNL     1      -4.858   1.424  11.326  1.00  0.00     0.202 C 
ENDBRANCH   1  23
BRANCH  19  25
HETATM   25  C23 UNL     1      -1.956   4.368  13.237  1.00  0.00     0.177 C 
BRANCH  25  26
HETATM   26  O6  UNL     1      -0.983   3.572  12.662  1.00  0.00    -0.400 OA
ATOM     27  H6  UNL     1      -0.358   3.322  13.332  1.00  0.00     0.209 HD
ENDBRANCH  25  26
ENDBRANCH  19  25
BRANCH  11  28
HETATM   28  C14 UNL     1      -6.591   9.990   9.013  1.00  0.00     0.130 C 
HETATM   29  C15 UNL     1      -6.099  10.791  10.165  1.00  0.00     0.091 C 
HETATM   30  O4  UNL     1      -7.620  10.417   8.469  1.00  0.00    -0.298 OA
ENDBRANCH  11  28
BRANCH  12  31
HETATM   31  O5  UNL     1      -3.837   9.996   8.830  1.00  0.00    -0.278 OA
HETATM   32 CL1  UNL     1      -2.172  10.077   8.438  1.00  0.00     0.062 Cl
ENDBRANCH  12  31
TORSDOF 6
ENDMDL
MODEL 2
REMARK VINA RESULT: -6.832626959      2.631      7.282
REMARK  6 active torsions:
REMARK  status: ('A' for Active; 'I' for Inactive)
REMARK    1  A    between atoms: O1_2  and  C2_3 
REMARK    2  A    between atoms: C3_4  and  C4_5 
REMARK    3  A    between atoms: C13_16  and  C14_17 
REMARK    4  A    between atoms: C16_20  and  O5_21 
REMARK    5  A    between atoms: C22_29  and  C23_30 
REMARK    6  A    between atoms: C23_30  and  O6_31 
ROOT
HETATM    1  C2  UNL     1      -4.394   8.598   9.833  1.00  0.00     0.171 C 
HETATM    2  C3  UNL     1      -5.628   9.356  10.182  1.00  0.00     0.044 C 
HETATM    3  C5  UNL     1      -6.692   8.803  10.685  1.00  0.00    -0.010 C 
HETATM    4  C6  UNL     1      -6.843   7.379  10.977  1.00  0.00     0.034 C 
HETATM    5  C7  UNL     1      -5.628   6.577  10.727  1.00  0.00     0.007 C 
HETATM    6  C8  UNL     1      -4.841   6.219  11.999  1.00  0.00    -0.002 C 
HETATM    7  C9  UNL     1      -5.823   5.843  13.047  1.00  0.00     0.006 C 
HETATM    8  C10 UNL     1      -5.288   4.994  14.178  1.00  0.00     0.014 C 
HETATM    9  C11 UNL     1      -4.092   4.179  13.839  1.00  0.00     0.005 C 
HETATM   10  C12 UNL     1      -2.870   5.022  14.114  1.00  0.00     0.019 C 
HETATM   11  C13 UNL     1      -3.979   2.839  14.450  1.00  0.00     0.097 C 
HETATM   12  C16 UNL     1      -3.737   1.822  13.333  1.00  0.00     0.160 C 
HETATM   13  C17 UNL     1      -3.271   2.732  12.183  1.00  0.00     0.079 C 
HETATM   14  C18 UNL     1      -4.219   3.862  12.340  1.00  0.00     0.118 C 
HETATM   15  F1  UNL     1      -5.483   3.386  12.072  1.00  0.00    -0.242 F 
HETATM   16  C19 UNL     1      -3.893   5.108  11.616  1.00  0.00     0.031 C 
HETATM   17  C20 UNL     1      -3.771   4.883  10.141  1.00  0.00     0.009 C 
HETATM   18  C21 UNL     1      -3.531   6.252   9.506  1.00  0.00     0.015 C 
HETATM   19  C22 UNL     1      -4.754   7.123   9.651  1.00  0.00     0.016 C 
ENDROOT
BRANCH   2  20
HETATM   20  C4  UNL     1      -5.672  10.788   9.932  1.00  0.00     0.207 C 
HETATM   21  O2  UNL     1      -6.391  11.565  10.595  1.00  0.00    -0.644 OA
HETATM   22  O3  UNL     1      -4.906  11.380   8.925  1.00  0.00    -0.644 OA
ENDBRANCH   2  20
BRANCH   1  23
HETATM   23  O1  UNL     1      -3.415   8.776  10.761  1.00  0.00    -0.385 OA
HETATM   24  C1  UNL     1      -2.314   9.508  10.410  1.00  0.00     0.202 C 
ENDBRANCH   1  23
BRANCH  19  25
HETATM   25  C23 UNL     1      -5.531   7.005   8.331  1.00  0.00     0.177 C 
BRANCH  25  26
HETATM   26  O6  UNL     1      -4.775   6.272   7.435  1.00  0.00    -0.400 OA
ATOM     27  H6  UNL     1      -4.979   6.563   6.554  1.00  0.00     0.209 HD
ENDBRANCH  25  26
ENDBRANCH  19  25
BRANCH  11  28
HETATM   28  C14 UNL     1      -5.025   2.423  15.380  1.00  0.00     0.130 C 
HETATM   29  C15 UNL     1      -4.746   1.624  16.602  1.00  0.00     0.091 C 
HETATM   30  O4  UNL     1      -6.216   2.718  15.198  1.00  0.00    -0.298 OA
ENDBRANCH  11  28
BRANCH  12  31
HETATM   31  O5  UNL     1      -4.914   1.224  12.896  1.00  0.00    -0.278 OA
HETATM   32 CL1  UNL     1      -4.664   0.342  11.451  1.00  0.00     0.062 Cl
ENDBRANCH  12  31
TORSDOF 6
ENDMDL
MODEL 3
REMARK VINA RESULT: -6.664081679      2.086      2.945
REMARK  6 active torsions:
REMARK  status: ('A' for Active; 'I' for Inactive)
REMARK    1  A    between atoms: O1_2  and  C2_3 
REMARK    2  A    between atoms: C3_4  and  C4_5 
REMARK    3  A    between atoms: C13_16  and  C14_17 
REMARK    4  A    between atoms: C16_20  and  O5_21 
REMARK    5  A    between atoms: C22_29  and  C23_30 
REMARK    6  A    between atoms: C23_30  and  O6_31 
ROOT
HETATM    1  C2  UNL     1      -3.289   4.607  10.950  1.00  0.00     0.171 C 
HETATM    2  C3  UNL     1      -3.287   5.142  12.340  1.00  0.00     0.044 C 
HETATM    3  C5  UNL     1      -3.508   6.390  12.631  1.00  0.00    -0.010 C 
HETATM    4  C6  UNL     1      -3.783   7.444  11.656  1.00  0.00     0.034 C 
HETATM    5  C7  UNL     1      -3.877   6.970  10.261  1.00  0.00     0.007 C 
HETATM    6  C8  UNL     1      -5.318   6.836   9.739  1.00  0.00    -0.002 C 
HETATM    7  C9  UNL     1      -6.082   8.017  10.217  1.00  0.00     0.006 C 
HETATM    8  C10 UNL     1      -7.332   8.352   9.436  1.00  0.00     0.014 C 
HETATM    9  C11 UNL     1      -7.336   7.884   8.026  1.00  0.00     0.005 C 
HETATM   10  C12 UNL     1      -7.901   6.484   8.008  1.00  0.00     0.019 C 
HETATM   11  C13 UNL     1      -7.986   8.746   7.018  1.00  0.00     0.097 C 
HETATM   12  C16 UNL     1      -6.994   8.980   5.876  1.00  0.00     0.160 C 
HETATM   13  C17 UNL     1      -5.984   7.843   6.106  1.00  0.00     0.079 C 
HETATM   14  C18 UNL     1      -5.864   7.891   7.584  1.00  0.00     0.118 C 
HETATM   15  F1  UNL     1      -5.286   9.097   7.914  1.00  0.00    -0.242 F 
HETATM   16  C19 UNL     1      -5.221   6.732   8.236  1.00  0.00     0.031 C 
HETATM   17  C20 UNL     1      -3.834   6.498   7.724  1.00  0.00     0.009 C 
HETATM   18  C21 UNL     1      -3.253   5.345   8.540  1.00  0.00     0.015 C 
HETATM   19  C22 UNL     1      -3.053   5.762   9.976  1.00  0.00     0.016 C 
ENDROOT
BRANCH   2  20
HETATM   20  C4  UNL     1      -3.001   4.239  13.444  1.00  0.00     0.207 C 
HETATM   21  O2  UNL     1      -3.883   3.542  13.989  1.00  0.00    -0.644 OA
HETATM   22  O3  UNL     1      -1.710   4.100  13.962  1.00  0.00    -0.644 OA
ENDBRANCH   2  20
BRANCH   1  23
HETATM   23  O1  UNL     1      -4.435   3.929  10.673  1.00  0.00    -0.385 OA
HETATM   24  C1  UNL     1      -4.408   2.562  10.721  1.00  0.00     0.202 C 
ENDBRANCH   1  23
BRANCH  19  25
HETATM   25  C23 UNL     1      -1.579   6.175  10.108  1.00  0.00     0.177 C 
BRANCH  25  26
HETATM   26  O6  UNL     1      -0.784   5.081   9.824  1.00  0.00    -0.400 OA
ATOM     27  H6  UNL     1      -1.344   4.327   9.679  1.00  0.00     0.209 HD
ENDBRANCH  25  26
ENDBRANCH  19  25
BRANCH  11  28
HETATM   28  C14 UNL     1      -8.620   9.977   7.481  1.00  0.00     0.130 C 
HETATM   29  C15 UNL     1     -10.067  10.260   7.288  1.00  0.00     0.091 C 
HETATM   30  O4  UNL     1      -7.979  10.862   8.066  1.00  0.00    -0.298 OA
ENDBRANCH  11  28
BRANCH  12  31
HETATM   31  O5  UNL     1      -6.280  10.163   6.029  1.00  0.00    -0.278 OA
HETATM   32 CL1  UNL     1      -4.998  10.266   4.900  1.00  0.00     0.062 Cl
ENDBRANCH  12  31
TORSDOF 6
ENDMDL
MODEL 4
REMARK VINA RESULT: -6.424275861      4.560      7.926
REMARK  6 active torsions:
REMARK  status: ('A' for Active; 'I' for Inactive)
REMARK    1  A    between atoms: O1_2  and  C2_3 
REMARK    2  A    between atoms: C3_4  and  C4_5 
REMARK    3  A    between atoms: C13_16  and  C14_17 
REMARK    4  A    between atoms: C16_20  and  O5_21 
REMARK    5  A    between atoms: C22_29  and  C23_30 
REMARK    6  A    between atoms: C23_30  and  O6_31 
ROOT
HETATM    1  C2  UNL     1      -0.397  10.431  12.707  1.00  0.00     0.171 C 
HETATM    2  C3  UNL     1       0.745  10.209  11.778  1.00  0.00     0.044 C 
HETATM    3  C5  UNL     1       1.316   9.053  11.604  1.00  0.00    -0.010 C 
HETATM    4  C6  UNL     1       0.936   7.817  12.284  1.00  0.00     0.034 C 
HETATM    5  C7  UNL     1      -0.243   7.946  13.164  1.00  0.00     0.007 C 
HETATM    6  C8  UNL     1      -1.544   7.395  12.555  1.00  0.00    -0.002 C 
HETATM    7  C9  UNL     1      -1.216   6.118  11.871  1.00  0.00     0.006 C 
HETATM    8  C10 UNL     1      -2.375   5.174  11.648  1.00  0.00     0.014 C 
HETATM    9  C11 UNL     1      -3.505   5.332  12.600  1.00  0.00     0.005 C 
HETATM   10  C12 UNL     1      -4.449   6.361  12.025  1.00  0.00     0.019 C 
HETATM   11  C13 UNL     1      -4.221   4.112  13.024  1.00  0.00     0.097 C 
HETATM   12  C16 UNL     1      -4.261   4.085  14.553  1.00  0.00     0.160 C 
HETATM   13  C17 UNL     1      -3.949   5.553  14.895  1.00  0.00     0.079 C 
HETATM   14  C18 UNL     1      -2.875   5.831  13.910  1.00  0.00     0.118 C 
HETATM   15  F1  UNL     1      -1.796   5.039  14.237  1.00  0.00    -0.242 F 
HETATM   16  C19 UNL     1      -2.521   7.249  13.696  1.00  0.00     0.031 C 
HETATM   17  C20 UNL     1      -2.092   7.918  14.964  1.00  0.00     0.009 C 
HETATM   18  C21 UNL     1      -1.665   9.336  14.591  1.00  0.00     0.015 C 
HETATM   19  C22 UNL     1      -0.418   9.307  13.744  1.00  0.00     0.016 C 
ENDROOT
BRANCH   2  20
HETATM   20  C4  UNL     1       1.281  11.338  11.034  1.00  0.00     0.207 C 
HETATM   21  O2  UNL     1       1.375  12.483  11.524  1.00  0.00    -0.644 OA
HETATM   22  O3  UNL     1       1.725  11.204   9.715  1.00  0.00    -0.644 OA
ENDBRANCH   2  20
BRANCH   1  23
HETATM   23  O1  UNL     1      -1.578  10.531  12.037  1.00  0.00    -0.385 OA
HETATM   24  C1  UNL     1      -2.194  11.752  11.987  1.00  0.00     0.202 C 
ENDBRANCH   1  23
BRANCH  19  25
HETATM   25  C23 UNL     1       0.762   9.549  14.699  1.00  0.00     0.177 C 
BRANCH  25  26
HETATM   26  O6  UNL     1       0.569  10.755  15.346  1.00  0.00    -0.400 OA
ATOM     27  H6  UNL     1       1.097  10.765  16.136  1.00  0.00     0.209 HD
ENDBRANCH  25  26
ENDBRANCH  19  25
BRANCH  11  28
HETATM   28  C14 UNL     1      -3.801   2.839  12.444  1.00  0.00     0.130 C 
HETATM   29  C15 UNL     1      -4.752   1.892  11.803  1.00  0.00     0.091 C 
HETATM   30  O4  UNL     1      -2.616   2.475  12.457  1.00  0.00    -0.298 OA
ENDBRANCH  11  28
BRANCH  12  31
HETATM   31  O5  UNL     1      -3.224   3.337  15.097  1.00  0.00    -0.278 OA
HETATM   32 CL1  UNL     1      -3.821   2.073  16.085  1.00  0.00     0.062 Cl
ENDBRANCH  12  31
TORSDOF 6
ENDMDL
MODEL 5
REMARK VINA RESULT: -6.374629112      2.458      7.399
REMARK  6 active torsions:
REMARK  status: ('A' for Active; 'I' for Inactive)
REMARK    1  A    between atoms: O1_2  and  C2_3 
REMARK    2  A    between atoms: C3_4  and  C4_5 
REMARK    3  A    between atoms: C13_16  and  C14_17 
REMARK    4  A    between atoms: C16_20  and  O5_21 
REMARK    5  A    between atoms: C22_29  and  C23_30 
REMARK    6  A    between atoms: C23_30  and  O6_31 
ROOT
HETATM    1  C2  UNL     1      -5.811   8.982   7.680  1.00  0.00     0.171 C 
HETATM    2  C3  UNL     1      -7.246   9.183   8.021  1.00  0.00     0.044 C 
HETATM    3  C5  UNL     1      -7.966   8.298   8.646  1.00  0.00    -0.010 C 
HETATM    4  C6  UNL     1      -7.490   6.992   9.098  1.00  0.00     0.034 C 
HETATM    5  C7  UNL     1      -6.051   6.757   8.861  1.00  0.00     0.007 C 
HETATM    6  C8  UNL     1      -5.173   6.927  10.113  1.00  0.00    -0.002 C 
HETATM    7  C9  UNL     1      -5.890   6.303  11.255  1.00  0.00     0.006 C 
HETATM    8  C10 UNL     1      -5.032   5.909  12.435  1.00  0.00     0.014 C 
HETATM    9  C11 UNL     1      -3.605   5.643  12.113  1.00  0.00     0.005 C 
HETATM   10  C12 UNL     1      -2.859   6.952  12.219  1.00  0.00     0.019 C 
HETATM   11  C13 UNL     1      -2.923   4.565  12.856  1.00  0.00     0.097 C 
HETATM   12  C16 UNL     1      -2.279   3.616  11.843  1.00  0.00     0.160 C 
HETATM   13  C17 UNL     1      -2.260   4.487  10.574  1.00  0.00     0.079 C 
HETATM   14  C18 UNL     1      -3.599   5.119  10.668  1.00  0.00     0.118 C 
HETATM   15  F1  UNL     1      -4.539   4.123  10.531  1.00  0.00    -0.242 F 
HETATM   16  C19 UNL     1      -3.845   6.285   9.794  1.00  0.00     0.031 C 
HETATM   17  C20 UNL     1      -3.653   5.953   8.347  1.00  0.00     0.009 C 
HETATM   18  C21 UNL     1      -4.029   7.204   7.555  1.00  0.00     0.015 C 
HETATM   19  C22 UNL     1      -5.506   7.484   7.680  1.00  0.00     0.016 C 
ENDROOT
BRANCH   2  20
HETATM   20  C4  UNL     1      -7.903  10.417   7.621  1.00  0.00     0.207 C 
HETATM   21  O2  UNL     1      -7.806  11.475   8.279  1.00  0.00    -0.644 OA
HETATM   22  O3  UNL     1      -8.687  10.490   6.467  1.00  0.00    -0.644 OA
ENDBRANCH   2  20
BRANCH   1  23
HETATM   23  O1  UNL     1      -4.993   9.672   8.521  1.00  0.00    -0.385 OA
HETATM   24  C1  UNL     1      -4.310  10.749   8.024  1.00  0.00     0.202 C 
ENDBRANCH   1  23
BRANCH  19  25
HETATM   25  C23 UNL     1      -6.170   6.885   6.431  1.00  0.00     0.177 C 
BRANCH  25  26
HETATM   26  O6  UNL     1      -5.873   7.685   5.344  1.00  0.00    -0.400 OA
ATOM     27  H6  UNL     1      -4.945   7.885   5.357  1.00  0.00     0.209 HD
ENDBRANCH  25  26
ENDBRANCH  19  25
BRANCH  11  28
HETATM   28  C14 UNL     1      -3.681   3.863  13.889  1.00  0.00     0.130 C 
HETATM   29  C15 UNL     1      -5.054   3.339  13.665  1.00  0.00     0.091 C 
HETATM   30  O4  UNL     1      -3.215   3.666  15.021  1.00  0.00    -0.298 OA
ENDBRANCH  11  28
BRANCH  12  31
HETATM   31  O5  UNL     1      -3.091   2.527  11.547  1.00  0.00    -0.278 OA
HETATM   32 CL1  UNL     1      -2.162   1.115  11.276  1.00  0.00     0.062 Cl
ENDBRANCH  12  31
TORSDOF 6
ENDMDL
