MODEL 1
REMARK VINA RESULT: -3.226697170      0.000      0.000
REMARK  2 active torsions:
REMARK  status: ('A' for Active; 'I' for Inactive)
REMARK    1  A    between atoms: C2_5  and  N3_6 
REMARK    2  A    between atoms: C3_9  and  N4_10 
ROOT
HETATM    1  C1  UNL     1      63.725 -50.848  22.106  1.00  0.00     0.183 C 
HETATM    2  N1  UNL     1      62.745 -49.903  21.602  1.00  0.00    -0.245 N 
HETATM    3  N2  UNL     1      61.682 -49.522  22.286  1.00  0.00    -0.277 N 
ATOM      4  H2  UNL     1      61.539 -49.910  23.217  1.00  0.00     0.189 HD
HETATM    5  C2  UNL     1      60.778 -48.645  21.809  1.00  0.00     0.158 A 
HETATM    6  C3  UNL     1      60.963 -48.114  20.551  1.00  0.00     0.148 A 
HETATM    7  N5  UNL     1      62.043 -48.489  19.834  1.00  0.00    -0.290 N 
ATOM      8  H5  UNL     1      62.204 -48.112  18.900  1.00  0.00     0.172 HD
HETATM    9  C4  UNL     1      62.905 -49.372  20.378  1.00  0.00     0.342 A 
HETATM   10  O1  UNL     1      63.926 -49.731  19.709  1.00  0.00    -0.245 OA
ENDROOT
BRANCH   5  11
HETATM   11  N3  UNL     1      59.753 -48.288  22.487  1.00  0.00    -0.381 N 
ATOM     12  H32 UNL     1      59.746 -48.453  23.494  1.00  0.00     0.157 HD
ATOM     13  H31 UNL     1      58.942 -47.844  22.054  1.00  0.00     0.157 HD
ENDBRANCH   5  11
BRANCH   6  14
HETATM   14  N4  UNL     1      60.092 -47.279  20.110  1.00  0.00    -0.382 N 
ATOM     15  H42 UNL     1      59.353 -46.891  20.696  1.00  0.00     0.157 HD
ATOM     16  H41 UNL     1      60.147 -46.995  19.132  1.00  0.00     0.157 HD
ENDBRANCH   6  14
TORSDOF 2
ENDMDL
MODEL 2
REMARK VINA RESULT: -3.007021275      1.828      3.288
REMARK  2 active torsions:
REMARK  status: ('A' for Active; 'I' for Inactive)
REMARK    1  A    between atoms: C2_5  and  N3_6 
REMARK    2  A    between atoms: C3_9  and  N4_10 
ROOT
HETATM    1  C1  UNL     1      59.402 -48.548  22.459  1.00  0.00     0.183 C 
HETATM    2  N1  UNL     1      60.660 -48.763  21.769  1.00  0.00    -0.245 N 
HETATM    3  N2  UNL     1      61.618 -49.547  22.228  1.00  0.00    -0.277 N 
ATOM      4  H2  UNL     1      61.468 -50.029  23.114  1.00  0.00     0.189 HD
HETATM    5  C2  UNL     1      62.783 -49.740  21.581  1.00  0.00     0.158 A 
HETATM    6  C3  UNL     1      62.995 -49.094  20.382  1.00  0.00     0.148 A 
HETATM    7  N5  UNL     1      62.030 -48.289  19.893  1.00  0.00    -0.290 N 
ATOM      8  H5  UNL     1      62.160 -47.798  19.008  1.00  0.00     0.172 HD
HETATM    9  C4  UNL     1      60.888 -48.144  20.598  1.00  0.00     0.342 A 
HETATM   10  O1  UNL     1      59.974 -47.387  20.144  1.00  0.00    -0.245 OA
ENDROOT
BRANCH   5  11
HETATM   11  N3  UNL     1      63.700 -50.504  22.044  1.00  0.00    -0.381 N 
ATOM     12  H32 UNL     1      64.125 -50.276  22.943  1.00  0.00     0.157 HD
ATOM     13  H31 UNL     1      64.021 -51.332  21.542  1.00  0.00     0.157 HD
ENDBRANCH   5  11
BRANCH   6  14
HETATM   14  N4  UNL     1      64.111 -49.288  19.777  1.00  0.00    -0.382 N 
ATOM     15  H42 UNL     1      64.761 -50.029  20.040  1.00  0.00     0.157 HD
ATOM     16  H41 UNL     1      64.353 -48.673  19.000  1.00  0.00     0.157 HD
ENDBRANCH   6  14
TORSDOF 2
ENDMDL
MODEL 3
REMARK VINA RESULT: -2.732183339      1.147      2.237
REMARK  2 active torsions:
REMARK  status: ('A' for Active; 'I' for Inactive)
REMARK    1  A    between atoms: C2_5  and  N3_6 
REMARK    2  A    between atoms: C3_9  and  N4_10 
ROOT
HETATM    1  C1  UNL     1      64.045 -49.537  19.769  1.00  0.00     0.183 C 
HETATM    2  N1  UNL     1      62.841 -49.215  20.513  1.00  0.00    -0.245 N 
HETATM    3  N2  UNL     1      61.905 -48.400  20.066  1.00  0.00    -0.277 N 
ATOM      4  H2  UNL     1      62.030 -47.972  19.149  1.00  0.00     0.189 HD
HETATM    5  C2  UNL     1      60.791 -48.106  20.764  1.00  0.00     0.158 A 
HETATM    6  C3  UNL     1      60.611 -48.680  22.005  1.00  0.00     0.148 A 
HETATM    7  N5  UNL     1      61.556 -49.517  22.482  1.00  0.00    -0.290 N 
ATOM      8  H5  UNL     1      61.449 -49.955  23.397  1.00  0.00     0.172 HD
HETATM    9  C4  UNL     1      62.645 -49.763  21.725  1.00  0.00     0.342 A 
HETATM   10  O1  UNL     1      63.540 -50.551  22.167  1.00  0.00    -0.245 OA
ENDROOT
BRANCH   5  11
HETATM   11  N3  UNL     1      59.894 -47.312  20.313  1.00  0.00    -0.381 N 
ATOM     12  H32 UNL     1      59.323 -46.788  20.976  1.00  0.00     0.157 HD
ATOM     13  H31 UNL     1      59.732 -47.187  19.314  1.00  0.00     0.157 HD
ENDBRANCH   5  11
BRANCH   6  14
HETATM   14  N4  UNL     1      59.544 -48.390  22.659  1.00  0.00    -0.382 N 
ATOM     15  H42 UNL     1      59.000 -47.546  22.482  1.00  0.00     0.157 HD
ATOM     16  H41 UNL     1      59.232 -49.036  23.384  1.00  0.00     0.157 HD
ENDBRANCH   6  14
TORSDOF 2
ENDMDL
MODEL 4
REMARK VINA RESULT: -2.559831982      1.987      3.972
REMARK  2 active torsions:
REMARK  status: ('A' for Active; 'I' for Inactive)
REMARK    1  A    between atoms: C2_5  and  N3_6 
REMARK    2  A    between atoms: C3_9  and  N4_10 
ROOT
HETATM    1  C1  UNL     1      59.934 -47.030  20.101  1.00  0.00     0.183 C 
HETATM    2  N1  UNL     1      60.926 -47.967  20.596  1.00  0.00    -0.245 N 
HETATM    3  N2  UNL     1      62.075 -48.199  19.988  1.00  0.00    -0.277 N 
ATOM      4  H2  UNL     1      62.279 -47.696  19.125  1.00  0.00     0.189 HD
HETATM    5  C2  UNL     1      62.989 -49.071  20.454  1.00  0.00     0.158 A 
HETATM    6  C3  UNL     1      62.724 -49.756  21.620  1.00  0.00     0.148 A 
HETATM    7  N5  UNL     1      61.557 -49.534  22.259  1.00  0.00    -0.290 N 
ATOM      8  H5  UNL     1      61.334 -50.028  23.123  1.00  0.00     0.172 HD
HETATM    9  C4  UNL     1      60.689 -48.646  21.731  1.00  0.00     0.342 A 
HETATM   10  O1  UNL     1      59.587 -48.430  22.327  1.00  0.00    -0.245 OA
ENDROOT
BRANCH   5  11
HETATM   11  N3  UNL     1      64.098 -49.283  19.850  1.00  0.00    -0.381 N 
ATOM     12  H32 UNL     1      64.361 -50.243  19.626  1.00  0.00     0.157 HD
ATOM     13  H31 UNL     1      64.726 -48.524  19.585  1.00  0.00     0.157 HD
ENDBRANCH   5  11
BRANCH   6  14
HETATM   14  N4  UNL     1      63.607 -50.584  22.053  1.00  0.00    -0.382 N 
ATOM     15  H42 UNL     1      63.375 -51.528  22.359  1.00  0.00     0.157 HD
ATOM     16  H41 UNL     1      64.579 -50.278  22.088  1.00  0.00     0.157 HD
ENDBRANCH   6  14
TORSDOF 2
ENDMDL
MODEL 5
REMARK VINA RESULT: -2.496585327      1.495      1.698
REMARK  2 active torsions:
REMARK  status: ('A' for Active; 'I' for Inactive)
REMARK    1  A    between atoms: C2_5  and  N3_6 
REMARK    2  A    between atoms: C3_9  and  N4_10 
ROOT
HETATM    1  C1  UNL     1      62.198 -50.993  19.582  1.00  0.00     0.183 C 
HETATM    2  N1  UNL     1      62.044 -49.795  20.387  1.00  0.00    -0.245 N 
HETATM    3  N2  UNL     1      60.967 -49.534  21.105  1.00  0.00    -0.277 N 
ATOM      4  H2  UNL     1      60.202 -50.206  21.095  1.00  0.00     0.189 HD
HETATM    5  C2  UNL     1      60.834 -48.419  21.849  1.00  0.00     0.158 A 
HETATM    6  C3  UNL     1      61.864 -47.503  21.870  1.00  0.00     0.148 A 
HETATM    7  N5  UNL     1      62.974 -47.751  21.144  1.00  0.00    -0.290 N 
ATOM      8  H5  UNL     1      63.751 -47.090  21.141  1.00  0.00     0.172 HD
HETATM    9  C4  UNL     1      63.036 -48.889  20.423  1.00  0.00     0.342 A 
HETATM   10  O1  UNL     1      64.079 -49.130  19.737  1.00  0.00    -0.245 OA
ENDROOT
BRANCH   5  11
HETATM   11  N3  UNL     1      59.781 -48.182  22.538  1.00  0.00    -0.381 N 
ATOM     12  H32 UNL     1      59.761 -47.359  23.140  1.00  0.00     0.157 HD
ATOM     13  H31 UNL     1      58.962 -48.790  22.505  1.00  0.00     0.157 HD
ENDBRANCH   5  11
BRANCH   6  14
HETATM   14  N4  UNL     1      61.721 -46.445  22.584  1.00  0.00    -0.382 N 
ATOM     15  H42 UNL     1      60.836 -45.945  22.660  1.00  0.00     0.157 HD
ATOM     16  H41 UNL     1      62.532 -46.095  23.095  1.00  0.00     0.157 HD
ENDBRANCH   6  14
TORSDOF 2
ENDMDL
