MODEL 1
REMARK VINA RESULT: -9.113034495      0.000      0.000
REMARK  6 active torsions:
REMARK  status: ('A' for Active; 'I' for Inactive)
REMARK    1  A    between atoms: C2_2  and  C3_3 
REMARK    2  A    between atoms: C13_14  and  N1_15 
REMARK    3  A    between atoms: N1_15  and  C14_16 
REMARK    4  A    between atoms: N1_15  and  C16_18 
REMARK    5  A    between atoms: C19_21  and  C20_22 
REMARK    6  A    between atoms: C20_22  and  C21_23 
ROOT
HETATM    1  C3  UNL     1      28.526   0.892  33.861  1.00  0.00     0.001 C 
HETATM    2  C4  UNL     1      28.455   0.477  35.316  1.00  0.00     0.025 C 
HETATM    3  C5  UNL     1      28.901  -0.348  33.048  1.00  0.00     0.019 C 
HETATM    4  C6  UNL     1      30.384  -0.651  33.053  1.00  0.00     0.017 C 
HETATM    5  C7  UNL     1      31.184   0.431  32.266  1.00  0.00     0.015 C 
HETATM    6  C8  UNL     1      32.404   0.673  33.135  1.00  0.00     0.023 C 
HETATM    7  C9  UNL     1      30.220   1.558  32.281  1.00  0.00    -0.036 C 
HETATM    8  C10 UNL     1      29.864   2.155  31.211  1.00  0.00     0.058 C 
HETATM    9  C11 UNL     1      30.349   1.804  29.910  1.00  0.00     0.151 C 
HETATM   10  O1  UNL     1      29.881   2.309  28.834  1.00  0.00    -0.293 OA
HETATM   11  C12 UNL     1      31.439   0.819  29.778  1.00  0.00     0.119 C 
HETATM   12  C13 UNL     1      31.631  -0.039  30.943  1.00  0.00     0.242 C 
HETATM   13  C18 UNL     1      29.656   1.877  33.622  1.00  0.00    -0.031 C 
HETATM   14  C19 UNL     1      29.650   3.166  34.153  1.00  0.00     0.067 C 
ENDROOT
BRANCH  12  15
HETATM   15  N1  UNL     1      33.014  -0.568  31.018  1.00  0.00     0.093 N 
BRANCH  15  16
HETATM   16  C14 UNL     1      32.972  -1.963  30.567  1.00  0.00     0.268 C 
HETATM   17  C15 UNL     1      33.371  -2.980  31.561  1.00  0.00     0.037 C 
ENDBRANCH  15  16
BRANCH  15  18
HETATM   18  C16 UNL     1      33.889   0.164  30.156  1.00  0.00     0.268 C 
HETATM   19  C17 UNL     1      35.162   0.631  30.798  1.00  0.00     0.037 C 
ENDBRANCH  15  18
ENDBRANCH  12  15
BRANCH   1  20
HETATM   20  C2  UNL     1      27.212   1.349  33.455  1.00  0.00    -0.023 C 
HETATM   21  C1  UNL     1      26.586   1.012  32.337  1.00  0.00     0.008 C 
ENDBRANCH   1  20
BRANCH  14  22
HETATM   22  C20 UNL     1      28.955   4.132  33.664  1.00  0.00    -0.091 C 
BRANCH  22  23
HETATM   23  C21 UNL     1      28.301   5.181  33.198  1.00  0.00     0.135 C 
HETATM   24  C22 UNL     1      28.963   6.452  33.380  1.00  0.00     0.092 C 
HETATM   25  F1  UNL     1      27.154   4.867  32.648  1.00  0.00    -0.202 F 
ENDBRANCH  22  23
ENDBRANCH  14  22
TORSDOF 6
ENDMDL
MODEL 2
REMARK VINA RESULT: -8.100079775      1.168      1.253
REMARK  6 active torsions:
REMARK  status: ('A' for Active; 'I' for Inactive)
REMARK    1  A    between atoms: C2_2  and  C3_3 
REMARK    2  A    between atoms: C13_14  and  N1_15 
REMARK    3  A    between atoms: N1_15  and  C14_16 
REMARK    4  A    between atoms: N1_15  and  C16_18 
REMARK    5  A    between atoms: C19_21  and  C20_22 
REMARK    6  A    between atoms: C20_22  and  C21_23 
ROOT
HETATM    1  C3  UNL     1      29.021   0.884  33.695  1.00  0.00     0.001 C 
HETATM    2  C4  UNL     1      28.804   0.617  35.170  1.00  0.00     0.025 C 
HETATM    3  C5  UNL     1      29.246  -0.467  33.013  1.00  0.00     0.019 C 
HETATM    4  C6  UNL     1      30.662  -0.986  33.147  1.00  0.00     0.017 C 
HETATM    5  C7  UNL     1      31.663  -0.110  32.333  1.00  0.00     0.015 C 
HETATM    6  C8  UNL     1      32.855   0.024  33.263  1.00  0.00     0.023 C 
HETATM    7  C9  UNL     1      30.885   1.144  32.189  1.00  0.00    -0.036 C 
HETATM    8  C10 UNL     1      30.689   1.688  31.052  1.00  0.00     0.058 C 
HETATM    9  C11 UNL     1      31.187   1.153  29.822  1.00  0.00     0.151 C 
HETATM   10  O1  UNL     1      30.865   1.623  28.678  1.00  0.00    -0.293 OA
HETATM   11  C12 UNL     1      32.117   0.009  29.847  1.00  0.00     0.119 C 
HETATM   12  C13 UNL     1      32.108  -0.759  31.087  1.00  0.00     0.242 C 
HETATM   13  C18 UNL     1      30.302   1.664  33.458  1.00  0.00    -0.031 C 
HETATM   14  C19 UNL     1      30.464   2.982  33.881  1.00  0.00     0.067 C 
ENDROOT
BRANCH  12  15
HETATM   15  N1  UNL     1      33.385  -1.479  31.302  1.00  0.00     0.093 N 
BRANCH  15  16
HETATM   16  C14 UNL     1      33.096  -2.915  31.216  1.00  0.00     0.268 C 
HETATM   17  C15 UNL     1      31.776  -3.280  30.662  1.00  0.00     0.037 C 
ENDBRANCH  15  16
BRANCH  15  18
HETATM   18  C16 UNL     1      34.337  -1.144  30.289  1.00  0.00     0.268 C 
HETATM   19  C17 UNL     1      35.728  -1.646  30.539  1.00  0.00     0.037 C 
ENDBRANCH  15  18
ENDBRANCH  12  15
BRANCH   1  20
HETATM   20  C2  UNL     1      27.819   1.493  33.162  1.00  0.00    -0.023 C 
HETATM   21  C1  UNL     1      27.055   0.990  32.204  1.00  0.00     0.008 C 
ENDBRANCH   1  20
BRANCH  14  22
HETATM   22  C20 UNL     1      29.956   3.993  33.268  1.00  0.00    -0.091 C 
BRANCH  22  23
HETATM   23  C21 UNL     1      29.368   5.029  32.699  1.00  0.00     0.135 C 
HETATM   24  C22 UNL     1      27.951   5.153  32.955  1.00  0.00     0.092 C 
HETATM   25  F1  UNL     1      30.193   5.765  31.996  1.00  0.00    -0.202 F 
ENDBRANCH  22  23
ENDBRANCH  14  22
TORSDOF 6
ENDMDL
MODEL 3
REMARK VINA RESULT: -7.865852813      2.154      3.713
REMARK  6 active torsions:
REMARK  status: ('A' for Active; 'I' for Inactive)
REMARK    1  A    between atoms: C2_2  and  C3_3 
REMARK    2  A    between atoms: C13_14  and  N1_15 
REMARK    3  A    between atoms: N1_15  and  C14_16 
REMARK    4  A    between atoms: N1_15  and  C16_18 
REMARK    5  A    between atoms: C19_21  and  C20_22 
REMARK    6  A    between atoms: C20_22  and  C21_23 
ROOT
HETATM    1  C3  UNL     1      30.483   2.819  32.429  1.00  0.00     0.001 C 
HETATM    2  C4  UNL     1      30.740   4.306  32.292  1.00  0.00     0.025 C 
HETATM    3  C5  UNL     1      31.759   2.184  32.986  1.00  0.00     0.019 C 
HETATM    4  C6  UNL     1      32.817   1.924  31.935  1.00  0.00     0.017 C 
HETATM    5  C7  UNL     1      32.371   0.799  30.952  1.00  0.00     0.015 C 
HETATM    6  C8  UNL     1      32.797   1.326  29.594  1.00  0.00     0.023 C 
HETATM    7  C9  UNL     1      30.902   0.817  31.155  1.00  0.00    -0.036 C 
HETATM    8  C10 UNL     1      30.249  -0.242  31.437  1.00  0.00     0.058 C 
HETATM    9  C11 UNL     1      30.854  -1.530  31.586  1.00  0.00     0.151 C 
HETATM   10  O1  UNL     1      30.217  -2.554  32.009  1.00  0.00    -0.293 OA
HETATM   11  C12 UNL     1      32.277  -1.713  31.242  1.00  0.00     0.119 C 
HETATM   12  C13 UNL     1      33.057  -0.480  31.199  1.00  0.00     0.242 C 
HETATM   13  C18 UNL     1      30.278   2.167  31.074  1.00  0.00    -0.031 C 
HETATM   14  C19 UNL     1      29.172   2.442  30.271  1.00  0.00     0.067 C 
ENDROOT
BRANCH  12  15
HETATM   15  N1  UNL     1      34.248  -0.611  30.325  1.00  0.00     0.093 N 
BRANCH  15  16
HETATM   16  C14 UNL     1      35.432  -0.527  31.187  1.00  0.00     0.268 C 
HETATM   17  C15 UNL     1      36.258   0.690  31.041  1.00  0.00     0.037 C 
ENDBRANCH  15  16
BRANCH  15  18
HETATM   18  C16 UNL     1      34.257  -1.875  29.659  1.00  0.00     0.268 C 
HETATM   19  C17 UNL     1      33.739  -1.851  28.252  1.00  0.00     0.037 C 
ENDBRANCH  15  18
ENDBRANCH  12  15
BRANCH   1  20
HETATM   20  C2  UNL     1      29.403   2.630  33.376  1.00  0.00    -0.023 C 
HETATM   21  C1  UNL     1      29.458   1.893  34.476  1.00  0.00     0.008 C 
ENDBRANCH   1  20
BRANCH  14  22
HETATM   22  C20 UNL     1      28.003   1.947  30.478  1.00  0.00    -0.091 C 
BRANCH  22  23
HETATM   23  C21 UNL     1      26.843   1.359  30.706  1.00  0.00     0.135 C 
HETATM   24  C22 UNL     1      26.453   1.278  32.094  1.00  0.00     0.092 C 
HETATM   25  F1  UNL     1      26.250   0.953  29.610  1.00  0.00    -0.202 F 
ENDBRANCH  22  23
ENDBRANCH  14  22
TORSDOF 6
ENDMDL
MODEL 4
REMARK VINA RESULT: -7.766825762      1.514      1.982
REMARK  6 active torsions:
REMARK  status: ('A' for Active; 'I' for Inactive)
REMARK    1  A    between atoms: C2_2  and  C3_3 
REMARK    2  A    between atoms: C13_14  and  N1_15 
REMARK    3  A    between atoms: N1_15  and  C14_16 
REMARK    4  A    between atoms: N1_15  and  C16_18 
REMARK    5  A    between atoms: C19_21  and  C20_22 
REMARK    6  A    between atoms: C20_22  and  C21_23 
ROOT
HETATM    1  C3  UNL     1      30.055   0.620  33.540  1.00  0.00     0.001 C 
HETATM    2  C4  UNL     1      30.030   0.570  35.053  1.00  0.00     0.025 C 
HETATM    3  C5  UNL     1      30.949  -0.526  33.058  1.00  0.00     0.019 C 
HETATM    4  C6  UNL     1      32.427  -0.206  33.112  1.00  0.00     0.017 C 
HETATM    5  C7  UNL     1      32.807   0.883  32.063  1.00  0.00     0.015 C 
HETATM    6  C8  UNL     1      33.762   1.788  32.821  1.00  0.00     0.023 C 
HETATM    7  C9  UNL     1      31.484   1.503  31.812  1.00  0.00    -0.036 C 
HETATM    8  C10 UNL     1      31.016   1.637  30.632  1.00  0.00     0.058 C 
HETATM    9  C11 UNL     1      31.706   1.208  29.453  1.00  0.00     0.151 C 
HETATM   10  O1  UNL     1      31.170   1.213  28.293  1.00  0.00    -0.293 OA
HETATM   11  C12 UNL     1      33.099   0.735  29.554  1.00  0.00     0.119 C 
HETATM   12  C13 UNL     1      33.511   0.328  30.894  1.00  0.00     0.242 C 
HETATM   13  C18 UNL     1      30.731   1.884  33.040  1.00  0.00    -0.031 C 
HETATM   14  C19 UNL     1      30.182   3.150  33.228  1.00  0.00     0.067 C 
ENDROOT
BRANCH  12  15
HETATM   15  N1  UNL     1      34.979   0.424  31.074  1.00  0.00     0.093 N 
BRANCH  15  16
HETATM   16  C14 UNL     1      35.572  -0.770  30.463  1.00  0.00     0.268 C 
HETATM   17  C15 UNL     1      35.963  -1.850  31.392  1.00  0.00     0.037 C 
ENDBRANCH  15  16
BRANCH  15  18
HETATM   18  C16 UNL     1      35.500   1.580  30.415  1.00  0.00     0.268 C 
HETATM   19  C17 UNL     1      36.996   1.691  30.423  1.00  0.00     0.037 C 
ENDBRANCH  15  18
ENDBRANCH  12  15
BRANCH   1  20
HETATM   20  C2  UNL     1      28.706   0.408  33.056  1.00  0.00    -0.023 C 
HETATM   21  C1  UNL     1      27.595   0.798  33.663  1.00  0.00     0.008 C 
ENDBRANCH   1  20
BRANCH  14  22
HETATM   22  C20 UNL     1      29.210   3.615  32.524  1.00  0.00    -0.091 C 
BRANCH  22  23
HETATM   23  C21 UNL     1      28.158   4.036  31.846  1.00  0.00     0.135 C 
HETATM   24  C22 UNL     1      27.899   3.336  30.609  1.00  0.00     0.092 C 
HETATM   25  F1  UNL     1      27.533   5.027  32.433  1.00  0.00    -0.202 F 
ENDBRANCH  22  23
ENDBRANCH  14  22
TORSDOF 6
ENDMDL
MODEL 5
REMARK VINA RESULT: -7.625031290      2.225      3.712
REMARK  6 active torsions:
REMARK  status: ('A' for Active; 'I' for Inactive)
REMARK    1  A    between atoms: C2_2  and  C3_3 
REMARK    2  A    between atoms: C13_14  and  N1_15 
REMARK    3  A    between atoms: N1_15  and  C14_16 
REMARK    4  A    between atoms: N1_15  and  C16_18 
REMARK    5  A    between atoms: C19_21  and  C20_22 
REMARK    6  A    between atoms: C20_22  and  C21_23 
ROOT
HETATM    1  C3  UNL     1      30.616   3.608  32.222  1.00  0.00     0.001 C 
HETATM    2  C4  UNL     1      31.155   5.009  32.022  1.00  0.00     0.025 C 
HETATM    3  C5  UNL     1      31.595   2.866  33.135  1.00  0.00     0.019 C 
HETATM    4  C6  UNL     1      32.805   2.318  32.410  1.00  0.00     0.017 C 
HETATM    5  C7  UNL     1      32.408   1.155  31.450  1.00  0.00     0.015 C 
HETATM    6  C8  UNL     1      33.224   1.432  30.200  1.00  0.00     0.023 C 
HETATM    7  C9  UNL     1      30.960   1.418  31.276  1.00  0.00    -0.036 C 
HETATM    8  C10 UNL     1      30.082   0.514  31.479  1.00  0.00     0.058 C 
HETATM    9  C11 UNL     1      30.400  -0.820  31.889  1.00  0.00     0.151 C 
HETATM   10  O1  UNL     1      29.512  -1.674  32.228  1.00  0.00    -0.293 OA
HETATM   11  C12 UNL     1      31.808  -1.256  31.929  1.00  0.00     0.119 C 
HETATM   12  C13 UNL     1      32.783  -0.170  31.973  1.00  0.00     0.242 C 
HETATM   13  C18 UNL     1      30.619   2.824  30.922  1.00  0.00    -0.031 C 
HETATM   14  C19 UNL     1      29.797   3.156  29.847  1.00  0.00     0.067 C 
ENDROOT
BRANCH  12  15
HETATM   15  N1  UNL     1      34.101  -0.588  31.441  1.00  0.00     0.093 N 
BRANCH  15  16
HETATM   16  C14 UNL     1      35.034  -0.631  32.572  1.00  0.00     0.268 C 
HETATM   17  C15 UNL     1      36.465  -0.466  32.241  1.00  0.00     0.037 C 
ENDBRANCH  15  16
BRANCH  15  18
HETATM   18  C16 UNL     1      34.028  -1.892  30.861  1.00  0.00     0.268 C 
HETATM   19  C17 UNL     1      34.312  -1.945  29.389  1.00  0.00     0.037 C 
ENDBRANCH  15  18
ENDBRANCH  12  15
BRANCH   1  20
HETATM   20  C2  UNL     1      29.330   3.706  32.881  1.00  0.00    -0.023 C 
HETATM   21  C1  UNL     1      28.666   4.827  33.122  1.00  0.00     0.008 C 
ENDBRANCH   1  20
BRANCH  14  22
HETATM   22  C20 UNL     1      28.543   2.871  29.798  1.00  0.00    -0.091 C 
BRANCH  22  23
HETATM   23  C21 UNL     1      27.257   2.605  29.660  1.00  0.00     0.135 C 
HETATM   24  C22 UNL     1      26.813   1.372  30.268  1.00  0.00     0.092 C 
HETATM   25  F1  UNL     1      26.612   3.525  28.986  1.00  0.00    -0.202 F 
ENDBRANCH  22  23
ENDBRANCH  14  22
TORSDOF 6
ENDMDL
