MODEL 1
REMARK VINA RESULT: -7.408621415      0.000      0.000
REMARK  4 active torsions:
REMARK  status: ('A' for Active; 'I' for Inactive)
REMARK    1  A    between atoms: O1_2  and  N1_3 
REMARK    2  A    between atoms: C2_5  and  N2_6 
REMARK    3  A    between atoms: C2_5  and  C8_14 
REMARK       I    between atoms: N2_6  and  C3_8 
REMARK    4  A    between atoms: C3_8  and  C4_10 
ROOT
HETATM    1  N1  UNL     1      14.037   9.615  83.158  1.00  0.00    -0.252 N 
ATOM      2  H1  UNL     1      13.625   8.970  83.833  1.00  0.00     0.196 HD
HETATM    3  C2  UNL     1      14.216   9.185  81.907  1.00  0.00     0.135 C 
ENDROOT
BRANCH   3   4
HETATM    4  N2  UNL     1      13.796   7.874  81.704  1.00  0.00    -0.312 N 
HETATM    5  C3  UNL     1      14.342   6.663  82.157  1.00  0.00     0.230 C 
HETATM    6  O2  UNL     1      15.366   6.649  82.855  1.00  0.00    -0.272 OA
ATOM      7  H2  UNL     1      12.956   7.778  81.134  1.00  0.00     0.170 HD
BRANCH   5   8
HETATM    8  C4  UNL     1      13.744   5.328  81.840  1.00  0.00     0.030 C 
HETATM    9  C5  UNL     1      13.649   5.253  80.331  1.00  0.00     0.025 C 
HETATM   10  C6  UNL     1      14.657   4.209  82.278  1.00  0.00     0.025 C 
HETATM   11  C7  UNL     1      12.411   5.136  82.496  1.00  0.00     0.025 C 
ENDBRANCH   5   8
ENDBRANCH   3   4
BRANCH   3  12
HETATM   12  C8  UNL     1      14.826  10.148  81.024  1.00  0.00     0.218 C 
HETATM   13  C9  UNL     1      16.313  10.276  81.049  1.00  0.00     0.211 C 
HETATM   14  O3  UNL     1      16.508  11.132  79.940  1.00  0.00    -0.353 OA
HETATM   15  C10 UNL     1      15.520  10.809  79.043  1.00  0.00     0.158 C 
HETATM   16  C11 UNL     1      16.184  10.142  77.850  1.00  0.00     0.078 C 
HETATM   17  C12 UNL     1      14.795  12.025  78.504  1.00  0.00     0.078 C 
HETATM   18  O4  UNL     1      14.583   9.992  79.660  1.00  0.00    -0.341 OA
ENDBRANCH   3  12
BRANCH   1  19
HETATM   19  O1  UNL     1      14.368  10.847  83.582  1.00  0.00    -0.284 OA
HETATM   20  C1  UNL     1      13.802  11.558  84.636  1.00  0.00     0.237 C 
ENDBRANCH   1  19
TORSDOF 4
ENDMDL
MODEL 2
REMARK VINA RESULT: -7.347825096      0.135      1.017
REMARK  4 active torsions:
REMARK  status: ('A' for Active; 'I' for Inactive)
REMARK    1  A    between atoms: O1_2  and  N1_3 
REMARK    2  A    between atoms: C2_5  and  N2_6 
REMARK    3  A    between atoms: C2_5  and  C8_14 
REMARK       I    between atoms: N2_6  and  C3_8 
REMARK    4  A    between atoms: C3_8  and  C4_10 
ROOT
HETATM    1  N1  UNL     1      14.056   9.523  83.118  1.00  0.00    -0.252 N 
ATOM      2  H1  UNL     1      13.646   8.862  83.778  1.00  0.00     0.196 HD
HETATM    3  C2  UNL     1      14.221   9.125  81.854  1.00  0.00     0.135 C 
ENDROOT
BRANCH   3   4
HETATM    4  N2  UNL     1      13.793   7.822  81.620  1.00  0.00    -0.312 N 
HETATM    5  C3  UNL     1      14.375   6.595  81.974  1.00  0.00     0.230 C 
HETATM    6  O2  UNL     1      15.448   6.556  82.593  1.00  0.00    -0.272 OA
ATOM      7  H2  UNL     1      12.914   7.747  81.109  1.00  0.00     0.170 HD
BRANCH   5   8
HETATM    8  C4  UNL     1      13.762   5.272  81.638  1.00  0.00     0.030 C 
HETATM    9  C5  UNL     1      14.672   4.219  82.233  1.00  0.00     0.025 C 
HETATM   10  C6  UNL     1      12.416   5.116  82.303  1.00  0.00     0.025 C 
HETATM   11  C7  UNL     1      13.585   5.090  80.162  1.00  0.00     0.025 C 
ENDBRANCH   5   8
ENDBRANCH   3   4
BRANCH   3  12
HETATM   12  C8  UNL     1      14.828  10.108  80.991  1.00  0.00     0.218 C 
HETATM   13  C9  UNL     1      16.312  10.255  81.035  1.00  0.00     0.211 C 
HETATM   14  O3  UNL     1      16.508  11.129  79.939  1.00  0.00    -0.353 OA
HETATM   15  C10 UNL     1      15.534  10.806  79.028  1.00  0.00     0.158 C 
HETATM   16  C11 UNL     1      16.219  10.165  77.832  1.00  0.00     0.078 C 
HETATM   17  C12 UNL     1      14.800  12.020  78.497  1.00  0.00     0.078 C 
HETATM   18  O4  UNL     1      14.602   9.968  79.623  1.00  0.00    -0.341 OA
ENDBRANCH   3  12
BRANCH   1  19
HETATM   19  O1  UNL     1      14.397  10.741  83.571  1.00  0.00    -0.284 OA
HETATM   20  C1  UNL     1      13.770  11.474  84.574  1.00  0.00     0.237 C 
ENDBRANCH   1  19
TORSDOF 4
ENDMDL
MODEL 3
REMARK VINA RESULT: -7.262928041      1.932      5.582
REMARK  4 active torsions:
REMARK  status: ('A' for Active; 'I' for Inactive)
REMARK    1  A    between atoms: O1_2  and  N1_3 
REMARK    2  A    between atoms: C2_5  and  N2_6 
REMARK    3  A    between atoms: C2_5  and  C8_14 
REMARK       I    between atoms: N2_6  and  C3_8 
REMARK    4  A    between atoms: C3_8  and  C4_10 
ROOT
HETATM    1  N1  UNL     1      14.573   8.281  82.585  1.00  0.00    -0.252 N 
ATOM      2  H1  UNL     1      14.950   7.701  81.835  1.00  0.00     0.196 HD
HETATM    3  C2  UNL     1      14.098   9.487  82.266  1.00  0.00     0.135 C 
ENDROOT
BRANCH   3   4
HETATM    4  N2  UNL     1      14.190   9.780  80.909  1.00  0.00    -0.312 N 
HETATM    5  C3  UNL     1      15.308  10.085  80.117  1.00  0.00     0.230 C 
HETATM    6  O2  UNL     1      16.443  10.129  80.611  1.00  0.00    -0.272 OA
ATOM      7  H2  UNL     1      13.300   9.773  80.410  1.00  0.00     0.170 HD
BRANCH   5   8
HETATM    8  C4  UNL     1      15.217  10.373  78.651  1.00  0.00     0.030 C 
HETATM    9  C5  UNL     1      14.254   9.355  78.078  1.00  0.00     0.025 C 
HETATM   10  C6  UNL     1      14.616  11.734  78.404  1.00  0.00     0.025 C 
HETATM   11  C7  UNL     1      16.556  10.317  77.981  1.00  0.00     0.025 C 
ENDBRANCH   5   8
ENDBRANCH   3   4
BRANCH   3  12
HETATM   12  C8  UNL     1      13.609  10.253  83.385  1.00  0.00     0.218 C 
HETATM   13  C9  UNL     1      12.257   9.921  83.923  1.00  0.00     0.211 C 
HETATM   14  O3  UNL     1      12.249  10.722  85.090  1.00  0.00    -0.353 OA
HETATM   15  C10 UNL     1      13.550  10.754  85.527  1.00  0.00     0.158 C 
HETATM   16  C11 UNL     1      13.617   9.967  86.826  1.00  0.00     0.078 C 
HETATM   17  C12 UNL     1      14.026  12.155  85.852  1.00  0.00     0.078 C 
HETATM   18  O4  UNL     1      14.382  10.237  84.545  1.00  0.00    -0.341 OA
ENDBRANCH   3  12
BRANCH   1  19
HETATM   19  O1  UNL     1      14.586   7.786  83.835  1.00  0.00    -0.284 OA
HETATM   20  C1  UNL     1      14.009   6.600  84.279  1.00  0.00     0.237 C 
ENDBRANCH   1  19
TORSDOF 4
ENDMDL
MODEL 4
REMARK VINA RESULT: -7.216801853      1.308      4.567
REMARK  4 active torsions:
REMARK  status: ('A' for Active; 'I' for Inactive)
REMARK    1  A    between atoms: O1_2  and  N1_3 
REMARK    2  A    between atoms: C2_5  and  N2_6 
REMARK    3  A    between atoms: C2_5  and  C8_14 
REMARK       I    between atoms: N2_6  and  C3_8 
REMARK    4  A    between atoms: C3_8  and  C4_10 
ROOT
HETATM    1  N1  UNL     1      14.640   7.610  82.324  1.00  0.00    -0.252 N 
ATOM      2  H1  UNL     1      14.505   7.379  83.308  1.00  0.00     0.196 HD
HETATM    3  C2  UNL     1      14.653   8.899  81.977  1.00  0.00     0.135 C 
ENDROOT
BRANCH   3   4
HETATM    4  N2  UNL     1      14.475   9.765  83.052  1.00  0.00    -0.312 N 
HETATM    5  C3  UNL     1      13.303  10.185  83.700  1.00  0.00     0.230 C 
HETATM    6  O2  UNL     1      12.192   9.779  83.329  1.00  0.00    -0.272 OA
ATOM      7  H2  UNL     1      15.337  10.159  83.429  1.00  0.00     0.170 HD
BRANCH   5   8
HETATM    8  C4  UNL     1      13.303  11.132  84.859  1.00  0.00     0.030 C 
HETATM    9  C5  UNL     1      13.919  10.380  86.020  1.00  0.00     0.025 C 
HETATM   10  C6  UNL     1      14.191  12.321  84.585  1.00  0.00     0.025 C 
HETATM   11  C7  UNL     1      11.928  11.631  85.180  1.00  0.00     0.025 C 
ENDBRANCH   5   8
ENDBRANCH   3   4
BRANCH   3  12
HETATM   12  C8  UNL     1      14.822   9.139  80.566  1.00  0.00     0.218 C 
HETATM   13  C9  UNL     1      13.615   9.052  79.692  1.00  0.00     0.211 C 
HETATM   14  O3  UNL     1      14.152   9.540  78.477  1.00  0.00    -0.353 OA
HETATM   15  C10 UNL     1      15.097  10.469  78.835  1.00  0.00     0.158 C 
HETATM   16  C11 UNL     1      14.574  11.836  78.425  1.00  0.00     0.078 C 
HETATM   17  C12 UNL     1      16.412  10.280  78.107  1.00  0.00     0.078 C 
HETATM   18  O4  UNL     1      15.345  10.377  80.197  1.00  0.00    -0.341 OA
ENDBRANCH   3  12
BRANCH   1  19
HETATM   19  O1  UNL     1      14.793   6.598  81.452  1.00  0.00    -0.284 OA
HETATM   20  C1  UNL     1      13.894   5.569  81.186  1.00  0.00     0.237 C 
ENDBRANCH   1  19
TORSDOF 4
ENDMDL
MODEL 5
REMARK VINA RESULT: -7.176848463      1.513      5.369
REMARK  4 active torsions:
REMARK  status: ('A' for Active; 'I' for Inactive)
REMARK    1  A    between atoms: O1_2  and  N1_3 
REMARK    2  A    between atoms: C2_5  and  N2_6 
REMARK    3  A    between atoms: C2_5  and  C8_14 
REMARK       I    between atoms: N2_6  and  C3_8 
REMARK    4  A    between atoms: C3_8  and  C4_10 
ROOT
HETATM    1  N1  UNL     1      14.358  10.534  83.111  1.00  0.00    -0.252 N 
ATOM      2  H1  UNL     1      14.589  11.416  82.654  1.00  0.00     0.196 HD
HETATM    3  C2  UNL     1      14.099   9.476  82.339  1.00  0.00     0.135 C 
ENDROOT
BRANCH   3   4
HETATM    4  N2  UNL     1      14.188   9.747  80.977  1.00  0.00    -0.312 N 
HETATM    5  C3  UNL     1      15.288  10.129  80.194  1.00  0.00     0.230 C 
HETATM    6  O2  UNL     1      16.408  10.283  80.704  1.00  0.00    -0.272 OA
ATOM      7  H2  UNL     1      13.311   9.652  80.465  1.00  0.00     0.170 HD
BRANCH   5   8
HETATM    8  C4  UNL     1      15.197  10.376  78.721  1.00  0.00     0.030 C 
HETATM    9  C5  UNL     1      14.241   9.337  78.175  1.00  0.00     0.025 C 
HETATM   10  C6  UNL     1      14.588  11.726  78.435  1.00  0.00     0.025 C 
HETATM   11  C7  UNL     1      16.537  10.310  78.054  1.00  0.00     0.025 C 
ENDBRANCH   5   8
ENDBRANCH   3   4
BRANCH   3  12
HETATM   12  C8  UNL     1      13.757   8.276  83.061  1.00  0.00     0.218 C 
HETATM   13  C9  UNL     1      12.720   7.378  82.475  1.00  0.00     0.211 C 
HETATM   14  O3  UNL     1      12.832   6.268  83.344  1.00  0.00    -0.353 OA
HETATM   15  C10 UNL     1      14.154   6.210  83.706  1.00  0.00     0.158 C 
HETATM   16  C11 UNL     1      14.753   4.971  83.062  1.00  0.00     0.078 C 
HETATM   17  C12 UNL     1      14.349   6.050  85.200  1.00  0.00     0.078 C 
HETATM   18  O4  UNL     1      14.793   7.378  83.314  1.00  0.00    -0.341 OA
ENDBRANCH   3  12
BRANCH   1  19
HETATM   19  O1  UNL     1      14.332  10.506  84.455  1.00  0.00    -0.284 OA
HETATM   20  C1  UNL     1      13.942  11.529  85.313  1.00  0.00     0.237 C 
ENDBRANCH   1  19
TORSDOF 4
ENDMDL
