MODEL 1
REMARK VINA RESULT: -6.104991708      0.000      0.000
REMARK  4 active torsions:
REMARK  status: ('A' for Active; 'I' for Inactive)
REMARK    1  A    between atoms: C1_2  and  N2_4 
REMARK    2  A    between atoms: N2_4  and  N3_6 
REMARK    3  A    between atoms: C2_8  and  C3_9 
REMARK    4  A    between atoms: C3_9  and  N4_10 
ROOT
HETATM    1  N3  UNL     1     -20.859  14.871  -5.188  1.00  0.00    -0.312 N 
ATOM      2  H3  UNL     1     -21.345  14.678  -6.064  1.00  0.00     0.185 HD
HETATM    3  C2  UNL     1     -20.043  13.975  -4.751  1.00  0.00     0.099 C 
ENDROOT
BRANCH   1   4
HETATM    4  N2  UNL     1     -21.125  16.073  -4.561  1.00  0.00    -0.279 N 
ATOM      5  H2  UNL     1     -21.261  16.086  -3.550  1.00  0.00     0.189 HD
BRANCH   4   6
HETATM    6  C1  UNL     1     -21.214  17.290  -5.287  1.00  0.00     0.199 C 
HETATM    7  N1  UNL     1     -22.403  18.058  -5.263  1.00  0.00    -0.068 NA
HETATM    8  S1  UNL     1     -19.961  17.860  -6.178  1.00  0.00    -0.043 SA
ENDBRANCH   4   6
ENDBRANCH   1   4
BRANCH   3   9
HETATM    9  C3  UNL     1     -19.879  12.755  -5.543  1.00  0.00     0.168 C 
BRANCH   9  10
HETATM   10  N4  UNL     1     -20.915  11.781  -5.325  1.00  0.00    -0.362 N 
HETATM   11  C4  UNL     1     -20.651  10.550  -5.609  1.00  0.00     0.197 C 
HETATM   12  N5  UNL     1     -19.391  10.130  -6.122  1.00  0.00    -0.067 NA
HETATM   13  N6  UNL     1     -21.629   9.513  -5.421  1.00  0.00    -0.067 NA
ATOM     14  H4  UNL     1     -21.826  12.054  -4.957  1.00  0.00     0.162 HD
ENDBRANCH   9  10
ENDBRANCH   3   9
TORSDOF 4
ENDMDL
MODEL 2
REMARK VINA RESULT: -5.900715063      1.135      1.261
REMARK  4 active torsions:
REMARK  status: ('A' for Active; 'I' for Inactive)
REMARK    1  A    between atoms: C1_2  and  N2_4 
REMARK    2  A    between atoms: N2_4  and  N3_6 
REMARK    3  A    between atoms: C2_8  and  C3_9 
REMARK    4  A    between atoms: C3_9  and  N4_10 
ROOT
HETATM    1  N3  UNL     1     -21.090  16.004  -5.056  1.00  0.00    -0.312 N 
ATOM      2  H3  UNL     1     -20.587  16.055  -4.170  1.00  0.00     0.185 HD
HETATM    3  C2  UNL     1     -20.974  14.921  -5.745  1.00  0.00     0.099 C 
ENDROOT
BRANCH   1   4
HETATM    4  N2  UNL     1     -21.844  17.101  -5.427  1.00  0.00    -0.279 N 
ATOM      5  H2  UNL     1     -22.854  16.997  -5.531  1.00  0.00     0.189 HD
BRANCH   4   6
HETATM    6  C1  UNL     1     -21.251  18.368  -5.666  1.00  0.00     0.199 C 
HETATM    7  N1  UNL     1     -21.957  19.561  -5.380  1.00  0.00    -0.068 NA
HETATM    8  S1  UNL     1     -19.736  18.513  -6.279  1.00  0.00    -0.043 SA
ENDBRANCH   4   6
ENDBRANCH   1   4
BRANCH   3   9
HETATM    9  C3  UNL     1     -20.132  13.854  -5.202  1.00  0.00     0.168 C 
BRANCH   9  10
HETATM   10  N4  UNL     1     -20.817  12.598  -5.052  1.00  0.00    -0.362 N 
HETATM   11  C4  UNL     1     -20.330  11.571  -5.665  1.00  0.00     0.197 C 
HETATM   12  N5  UNL     1     -19.157  11.638  -6.470  1.00  0.00    -0.067 NA
HETATM   13  N6  UNL     1     -20.952  10.279  -5.569  1.00  0.00    -0.067 NA
ATOM     14  H4  UNL     1     -21.658  12.521  -4.481  1.00  0.00     0.162 HD
ENDBRANCH   9  10
ENDBRANCH   3   9
TORSDOF 4
ENDMDL
MODEL 3
REMARK VINA RESULT: -5.771149011      2.857      6.513
REMARK  4 active torsions:
REMARK  status: ('A' for Active; 'I' for Inactive)
REMARK    1  A    between atoms: C1_2  and  N2_4 
REMARK    2  A    between atoms: N2_4  and  N3_6 
REMARK    3  A    between atoms: C2_8  and  C3_9 
REMARK    4  A    between atoms: C3_9  and  N4_10 
ROOT
HETATM    1  N3  UNL     1     -20.840  14.478  -5.142  1.00  0.00    -0.312 N 
ATOM      2  H3  UNL     1     -21.429  14.494  -5.975  1.00  0.00     0.185 HD
HETATM    3  C2  UNL     1     -20.653  15.593  -4.524  1.00  0.00     0.099 C 
ENDROOT
BRANCH   1   4
HETATM    4  N2  UNL     1     -20.302  13.263  -4.763  1.00  0.00    -0.279 N 
ATOM      5  H2  UNL     1     -20.148  13.075  -3.772  1.00  0.00     0.189 HD
BRANCH   4   6
HETATM    6  C1  UNL     1     -19.957  12.269  -5.717  1.00  0.00     0.199 C 
HETATM    7  N1  UNL     1     -19.236  12.611  -6.886  1.00  0.00    -0.068 NA
HETATM    8  S1  UNL     1     -20.373  10.696  -5.514  1.00  0.00    -0.043 SA
ENDBRANCH   4   6
ENDBRANCH   1   4
BRANCH   3   9
HETATM    9  C3  UNL     1     -21.300  16.790  -5.064  1.00  0.00     0.168 C 
BRANCH   9  10
HETATM   10  N4  UNL     1     -20.374  17.782  -5.542  1.00  0.00    -0.362 N 
HETATM   11  C4  UNL     1     -20.811  18.986  -5.696  1.00  0.00     0.197 C 
HETATM   12  N5  UNL     1     -22.155  19.362  -5.413  1.00  0.00    -0.067 NA
HETATM   13  N6  UNL     1     -19.953  20.038  -6.170  1.00  0.00    -0.067 NA
ATOM     14  H4  UNL     1     -19.406  17.541  -5.752  1.00  0.00     0.162 HD
ENDBRANCH   9  10
ENDBRANCH   3   9
TORSDOF 4
ENDMDL
MODEL 4
REMARK VINA RESULT: -5.752716874      2.748      5.743
REMARK  4 active torsions:
REMARK  status: ('A' for Active; 'I' for Inactive)
REMARK    1  A    between atoms: C1_2  and  N2_4 
REMARK    2  A    between atoms: N2_4  and  N3_6 
REMARK    3  A    between atoms: C2_8  and  C3_9 
REMARK    4  A    between atoms: C3_9  and  N4_10 
ROOT
HETATM    1  N3  UNL     1     -20.674  13.723  -5.152  1.00  0.00    -0.312 N 
ATOM      2  H3  UNL     1     -21.020  14.274  -5.938  1.00  0.00     0.185 HD
HETATM    3  C2  UNL     1     -19.965  14.331  -4.264  1.00  0.00     0.099 C 
ENDROOT
BRANCH   1   4
HETATM    4  N2  UNL     1     -21.000  12.381  -5.122  1.00  0.00    -0.279 N 
ATOM      5  H2  UNL     1     -21.840  12.085  -4.624  1.00  0.00     0.189 HD
BRANCH   4   6
HETATM    6  C1  UNL     1     -20.197  11.402  -5.765  1.00  0.00     0.199 C 
HETATM    7  N1  UNL     1     -19.059  11.782  -6.514  1.00  0.00    -0.068 NA
HETATM    8  S1  UNL     1     -20.545   9.802  -5.673  1.00  0.00    -0.043 SA
ENDBRANCH   4   6
ENDBRANCH   1   4
BRANCH   3   9
HETATM    9  C3  UNL     1     -19.715  15.761  -4.453  1.00  0.00     0.168 C 
BRANCH   9  10
HETATM   10  N4  UNL     1     -20.874  16.584  -4.236  1.00  0.00    -0.362 N 
HETATM   11  C4  UNL     1     -21.516  17.003  -5.274  1.00  0.00     0.197 C 
HETATM   12  N5  UNL     1     -21.123  16.683  -6.605  1.00  0.00    -0.067 NA
HETATM   13  N6  UNL     1     -22.685  17.830  -5.147  1.00  0.00    -0.067 NA
ATOM     14  H4  UNL     1     -21.179  16.828  -3.293  1.00  0.00     0.162 HD
ENDBRANCH   9  10
ENDBRANCH   3   9
TORSDOF 4
ENDMDL
MODEL 5
REMARK VINA RESULT: -5.748473302      2.842      6.367
REMARK  4 active torsions:
REMARK  status: ('A' for Active; 'I' for Inactive)
REMARK    1  A    between atoms: C1_2  and  N2_4 
REMARK    2  A    between atoms: N2_4  and  N3_6 
REMARK    3  A    between atoms: C2_8  and  C3_9 
REMARK    4  A    between atoms: C3_9  and  N4_10 
ROOT
HETATM    1  N3  UNL     1     -20.431  14.145  -5.066  1.00  0.00    -0.312 N 
ATOM      2  H3  UNL     1     -19.759  14.458  -4.365  1.00  0.00     0.185 HD
HETATM    3  C2  UNL     1     -20.869  15.020  -5.904  1.00  0.00     0.099 C 
ENDROOT
BRANCH   1   4
HETATM    4  N2  UNL     1     -20.802  12.814  -5.045  1.00  0.00    -0.279 N 
ATOM      5  H2  UNL     1     -21.652  12.543  -4.549  1.00  0.00     0.189 HD
BRANCH   4   6
HETATM    6  C1  UNL     1     -20.032  11.814  -5.695  1.00  0.00     0.199 C 
HETATM    7  N1  UNL     1     -18.879  12.161  -6.438  1.00  0.00    -0.068 NA
HETATM    8  S1  UNL     1     -20.436  10.226  -5.618  1.00  0.00    -0.043 SA
ENDBRANCH   4   6
ENDBRANCH   1   4
BRANCH   3   9
HETATM    9  C3  UNL     1     -20.369  16.391  -5.784  1.00  0.00     0.168 C 
BRANCH   9  10
HETATM   10  N4  UNL     1     -21.394  17.356  -5.487  1.00  0.00    -0.362 N 
HETATM   11  C4  UNL     1     -21.117  18.602  -5.676  1.00  0.00     0.197 C 
HETATM   12  N5  UNL     1     -19.854  19.048  -6.160  1.00  0.00    -0.067 NA
HETATM   13  N6  UNL     1     -22.084  19.631  -5.404  1.00  0.00    -0.067 NA
ATOM     14  H4  UNL     1     -22.307  17.065  -5.140  1.00  0.00     0.162 HD
ENDBRANCH   9  10
ENDBRANCH   3   9
TORSDOF 4
ENDMDL
