MODEL 1
REMARK VINA RESULT: -5.896533887      0.000      0.000
REMARK  4 active torsions:
REMARK  status: ('A' for Active; 'I' for Inactive)
REMARK    1  A    between atoms: C2_2  and  N1_3 
REMARK    2  A    between atoms: C2_2  and  C6_12 
REMARK    3  A    between atoms: N1_3  and  C3_5 
REMARK    4  A    between atoms: C5_9  and  O1_10 
ROOT
HETATM    1  C3  UNL     1       2.015  24.648  28.479  1.00  0.00     0.139 C 
HETATM    2  C4  UNL     1       2.919  23.532  28.087  1.00  0.00     0.159 C 
HETATM    3  N2  UNL     1       1.932  22.524  27.639  1.00  0.00    -0.144 NA
HETATM    4  N3  UNL     1       0.835  22.632  28.480  1.00  0.00    -0.114 NA
HETATM    5  C5  UNL     1       0.958  23.821  29.250  1.00  0.00     0.250 C 
ENDROOT
BRANCH   1   6
HETATM    6  N1  UNL     1       2.454  25.635  29.344  1.00  0.00    -0.408 N 
ATOM      7  H1  UNL     1       1.803  26.380  29.593  1.00  0.00     0.154 HD
BRANCH   6   8
HETATM    8  C2  UNL     1       3.735  25.671  29.897  1.00  0.00     0.077 C 
HETATM    9  C1  UNL     1       4.396  27.008  29.628  1.00  0.00     0.032 C 
BRANCH   8  10
HETATM   10  C6  UNL     1       3.824  25.414  31.373  1.00  0.00     0.007 A 
HETATM   11  C7  UNL     1       2.792  24.647  32.105  1.00  0.00     0.007 A 
HETATM   12  C8  UNL     1       4.034  23.930  31.728  1.00  0.00     0.007 A 
ENDBRANCH   8  10
ENDBRANCH   6   8
ENDBRANCH   1   6
BRANCH   5  13
HETATM   13  O1  UNL     1      -0.174  24.562  29.438  1.00  0.00    -0.376 OA
ATOM     14  H1  UNL     1      -0.875  24.012  29.768  1.00  0.00     0.211 HD
ENDBRANCH   5  13
TORSDOF 4
ENDMDL
MODEL 2
REMARK VINA RESULT: -5.737146670      2.770      4.673
REMARK  4 active torsions:
REMARK  status: ('A' for Active; 'I' for Inactive)
REMARK    1  A    between atoms: C2_2  and  N1_3 
REMARK    2  A    between atoms: C2_2  and  C6_12 
REMARK    3  A    between atoms: N1_3  and  C3_5 
REMARK    4  A    between atoms: C5_9  and  O1_10 
ROOT
HETATM    1  C3  UNL     1       5.325  26.492  29.341  1.00  0.00     0.139 C 
HETATM    2  C4  UNL     1       6.454  26.960  28.491  1.00  0.00     0.159 C 
HETATM    3  N2  UNL     1       6.821  28.214  29.188  1.00  0.00    -0.144 NA
HETATM    4  N3  UNL     1       5.640  28.788  29.632  1.00  0.00    -0.114 NA
HETATM    5  C5  UNL     1       4.586  27.843  29.497  1.00  0.00     0.250 C 
ENDROOT
BRANCH   1   6
HETATM    6  N1  UNL     1       4.400  25.589  28.844  1.00  0.00    -0.408 N 
ATOM      7  H1  UNL     1       3.903  25.834  27.988  1.00  0.00     0.154 HD
BRANCH   6   8
HETATM    8  C2  UNL     1       4.109  24.364  29.446  1.00  0.00     0.077 C 
HETATM    9  C1  UNL     1       4.921  24.184  30.712  1.00  0.00     0.032 C 
BRANCH   8  10
HETATM   10  C6  UNL     1       2.669  24.128  29.797  1.00  0.00     0.007 A 
HETATM   11  C7  UNL     1       1.561  24.816  29.097  1.00  0.00     0.007 A 
HETATM   12  C8  UNL     1       1.870  23.426  28.682  1.00  0.00     0.007 A 
ENDBRANCH   8  10
ENDBRANCH   6   8
ENDBRANCH   1   6
BRANCH   5  13
HETATM   13  O1  UNL     1       3.680  27.769  30.517  1.00  0.00    -0.376 OA
ATOM     14  H1  UNL     1       3.317  28.629  30.695  1.00  0.00     0.211 HD
ENDBRANCH   5  13
TORSDOF 4
ENDMDL
MODEL 3
REMARK VINA RESULT: -5.539465796      2.666      4.812
REMARK  4 active torsions:
REMARK  status: ('A' for Active; 'I' for Inactive)
REMARK    1  A    between atoms: C2_2  and  N1_3 
REMARK    2  A    between atoms: C2_2  and  C6_12 
REMARK    3  A    between atoms: N1_3  and  C3_5 
REMARK    4  A    between atoms: C5_9  and  O1_10 
ROOT
HETATM    1  C3  UNL     1       4.783  26.742  29.599  1.00  0.00     0.139 C 
HETATM    2  C4  UNL     1       5.909  26.863  28.633  1.00  0.00     0.159 C 
HETATM    3  N2  UNL     1       6.562  28.096  29.125  1.00  0.00    -0.144 NA
HETATM    4  N3  UNL     1       5.552  28.947  29.545  1.00  0.00    -0.114 NA
HETATM    5  C5  UNL     1       4.330  28.222  29.602  1.00  0.00     0.250 C 
ENDROOT
BRANCH   1   6
HETATM    6  N1  UNL     1       3.667  25.986  29.284  1.00  0.00    -0.408 N 
ATOM      7  H1  UNL     1       2.916  26.435  28.759  1.00  0.00     0.154 HD
BRANCH   6   8
HETATM    8  C2  UNL     1       3.508  24.647  29.643  1.00  0.00     0.077 C 
HETATM    9  C1  UNL     1       2.853  24.532  31.005  1.00  0.00     0.032 C 
BRANCH   8  10
HETATM   10  C6  UNL     1       2.718  23.798  28.691  1.00  0.00     0.007 A 
HETATM   11  C7  UNL     1       2.798  23.972  27.223  1.00  0.00     0.007 A 
HETATM   12  C8  UNL     1       3.589  22.871  27.822  1.00  0.00     0.007 A 
ENDBRANCH   8  10
ENDBRANCH   6   8
ENDBRANCH   1   6
BRANCH   5  13
HETATM   13  O1  UNL     1       3.511  28.462  30.669  1.00  0.00    -0.376 OA
ATOM     14  H1  UNL     1       2.781  29.009  30.404  1.00  0.00     0.211 HD
ENDBRANCH   5  13
TORSDOF 4
ENDMDL
MODEL 4
REMARK VINA RESULT: -5.406831478      1.658      2.785
REMARK  4 active torsions:
REMARK  status: ('A' for Active; 'I' for Inactive)
REMARK    1  A    between atoms: C2_2  and  N1_3 
REMARK    2  A    between atoms: C2_2  and  C6_12 
REMARK    3  A    between atoms: N1_3  and  C3_5 
REMARK    4  A    between atoms: C5_9  and  O1_10 
ROOT
HETATM    1  C3  UNL     1       1.662  24.018  29.374  1.00  0.00     0.139 C 
HETATM    2  C4  UNL     1       0.192  24.224  29.492  1.00  0.00     0.159 C 
HETATM    3  N2  UNL     1      -0.301  22.863  29.184  1.00  0.00    -0.144 NA
HETATM    4  N3  UNL     1       0.528  22.347  28.200  1.00  0.00    -0.114 NA
HETATM    5  C5  UNL     1       1.667  23.187  28.068  1.00  0.00     0.250 C 
ENDROOT
BRANCH   1   6
HETATM    6  N1  UNL     1       2.506  25.095  29.162  1.00  0.00    -0.408 N 
ATOM      7  H1  UNL     1       2.303  25.716  28.379  1.00  0.00     0.154 HD
BRANCH   6   8
HETATM    8  C2  UNL     1       3.616  25.380  29.957  1.00  0.00     0.077 C 
HETATM    9  C1  UNL     1       3.556  24.606  31.258  1.00  0.00     0.032 C 
BRANCH   8  10
HETATM   10  C6  UNL     1       4.957  25.114  29.337  1.00  0.00     0.007 A 
HETATM   11  C7  UNL     1       5.220  25.333  27.897  1.00  0.00     0.007 A 
HETATM   12  C8  UNL     1       5.669  26.386  28.839  1.00  0.00     0.007 A 
ENDBRANCH   8  10
ENDBRANCH   6   8
ENDBRANCH   1   6
BRANCH   5  13
HETATM   13  O1  UNL     1       2.878  22.575  27.905  1.00  0.00    -0.376 OA
ATOM     14  H1  UNL     1       2.929  22.173  27.046  1.00  0.00     0.211 HD
ENDBRANCH   5  13
TORSDOF 4
ENDMDL
MODEL 5
REMARK VINA RESULT: -5.399743175      3.533      5.141
REMARK  4 active torsions:
REMARK  status: ('A' for Active; 'I' for Inactive)
REMARK    1  A    between atoms: C2_2  and  N1_3 
REMARK    2  A    between atoms: C2_2  and  C6_12 
REMARK    3  A    between atoms: N1_3  and  C3_5 
REMARK    4  A    between atoms: C5_9  and  O1_10 
ROOT
HETATM    1  C3  UNL     1       4.883  26.775  28.934  1.00  0.00     0.139 C 
HETATM    2  C4  UNL     1       3.946  27.353  29.935  1.00  0.00     0.159 C 
HETATM    3  N2  UNL     1       4.258  28.794  29.804  1.00  0.00    -0.144 NA
HETATM    4  N3  UNL     1       5.623  28.892  29.586  1.00  0.00    -0.114 NA
HETATM    5  C5  UNL     1       6.141  27.599  29.302  1.00  0.00     0.250 C 
ENDROOT
BRANCH   1   6
HETATM    6  N1  UNL     1       5.249  25.442  29.003  1.00  0.00    -0.408 N 
ATOM      7  H1  UNL     1       5.893  25.158  29.740  1.00  0.00     0.154 HD
BRANCH   6   8
HETATM    8  C2  UNL     1       4.787  24.463  28.122  1.00  0.00     0.077 C 
HETATM    9  C1  UNL     1       5.944  23.665  27.555  1.00  0.00     0.032 C 
BRANCH   8  10
HETATM   10  C6  UNL     1       3.798  23.484  28.684  1.00  0.00     0.007 A 
HETATM   11  C7  UNL     1       2.503  23.910  29.260  1.00  0.00     0.007 A 
HETATM   12  C8  UNL     1       2.492  23.391  27.872  1.00  0.00     0.007 A 
ENDBRANCH   8  10
ENDBRANCH   6   8
ENDBRANCH   1   6
BRANCH   5  13
HETATM   13  O1  UNL     1       7.073  27.505  28.307  1.00  0.00    -0.376 OA
ATOM     14  H1  UNL     1       7.940  27.398  28.681  1.00  0.00     0.211 HD
ENDBRANCH   5  13
TORSDOF 4
ENDMDL
