MODEL 1
REMARK VINA RESULT: -7.448380265      0.000      0.000
REMARK  7 active torsions:
REMARK  status: ('A' for Active; 'I' for Inactive)
REMARK    1  A    between atoms: O1_2  and  C2_3 
REMARK    2  A    between atoms: C2_3  and  C3_4 
REMARK    3  A    between atoms: C10_13  and  S1_14 
REMARK    4  A    between atoms: S1_14  and  C11_15 
REMARK    5  A    between atoms: C11_15  and  C12_16 
REMARK    6  A    between atoms: C13_20  and  O4_21 
REMARK    7  A    between atoms: C14_23  and  O5_24 
ROOT
HETATM    1  C2  UNL     1      -2.859   2.739  10.925  1.00  0.00     0.172 C 
HETATM    2  C6  UNL     1      -2.997   3.456  12.216  1.00  0.00     0.111 C 
HETATM    3  C7  UNL     1      -4.286   3.273  12.940  1.00  0.00     0.119 C 
HETATM    4  O2  UNL     1      -5.237   4.268  12.651  1.00  0.00    -0.306 OA
HETATM    5  C8  UNL     1      -4.817   5.403  13.329  1.00  0.00     0.260 C 
HETATM    6  O3  UNL     1      -5.167   6.604  13.144  1.00  0.00    -0.265 OA
HETATM    7  C9  UNL     1      -3.826   5.041  14.390  1.00  0.00     0.129 C 
HETATM    8  C10 UNL     1      -4.028   3.520  14.425  1.00  0.00     0.095 C 
HETATM    9  C13 UNL     1      -4.777   1.887  12.727  1.00  0.00     0.209 C 
HETATM   10  C14 UNL     1      -4.752   1.433  11.321  1.00  0.00     0.292 C 
HETATM   11  O6  UNL     1      -3.911   2.035  10.469  1.00  0.00    -0.322 OA
ENDROOT
BRANCH   8  12
HETATM   12  S1  UNL     1      -5.467   3.039  15.376  1.00  0.00    -0.155 SA
BRANCH  12  13
HETATM   13  C11 UNL     1      -5.087   1.884  16.696  1.00  0.00     0.118 C 
BRANCH  13  14
HETATM   14  C12 UNL     1      -6.325   1.675  17.500  1.00  0.00     0.063 C 
HETATM   15  N1  UNL     1      -7.309   1.007  17.031  1.00  0.00    -0.410 N 
ATOM     16  H12 UNL     1      -7.230   0.618  16.091  1.00  0.00     0.155 HD
ATOM     17  H11 UNL     1      -8.156   0.864  17.582  1.00  0.00     0.155 HD
ENDBRANCH  13  14
ENDBRANCH  12  13
ENDBRANCH   8  12
BRANCH   9  18
HETATM   18  O4  UNL     1      -4.025   1.017  13.529  1.00  0.00    -0.388 OA
ATOM     19  H4  UNL     1      -4.092   0.140  13.170  1.00  0.00     0.210 HD
ENDBRANCH   9  18
BRANCH   1  20
HETATM   20  O1  UNL     1      -2.521   3.667   9.906  1.00  0.00    -0.359 OA
HETATM   21  C1  UNL     1      -3.499   4.604   9.682  1.00  0.00     0.205 C 
ENDBRANCH   1  20
BRANCH   1  22
HETATM   22  C3  UNL     1      -1.589   1.873  11.025  1.00  0.00     0.040 C 
HETATM   23  C4  UNL     1      -0.513   2.436  10.129  1.00  0.00     0.015 C 
HETATM   24  C5  UNL     1      -1.918   0.478  10.508  1.00  0.00     0.015 C 
ENDBRANCH   1  22
BRANCH  10  25
HETATM   25  O5  UNL     1      -6.069   1.598  10.813  1.00  0.00    -0.368 OA
ATOM     26  H5  UNL     1      -6.028   2.294  10.167  1.00  0.00     0.212 HD
ENDBRANCH  10  25
TORSDOF 7
ENDMDL
MODEL 2
REMARK VINA RESULT: -7.200053345      1.306      1.433
REMARK  7 active torsions:
REMARK  status: ('A' for Active; 'I' for Inactive)
REMARK    1  A    between atoms: O1_2  and  C2_3 
REMARK    2  A    between atoms: C2_3  and  C3_4 
REMARK    3  A    between atoms: C10_13  and  S1_14 
REMARK    4  A    between atoms: S1_14  and  C11_15 
REMARK    5  A    between atoms: C11_15  and  C12_16 
REMARK    6  A    between atoms: C13_20  and  O4_21 
REMARK    7  A    between atoms: C14_23  and  O5_24 
ROOT
HETATM    1  C2  UNL     1      -3.300   3.446  10.972  1.00  0.00     0.172 C 
HETATM    2  C6  UNL     1      -3.319   3.560  12.451  1.00  0.00     0.111 C 
HETATM    3  C7  UNL     1      -4.375   2.786  13.161  1.00  0.00     0.119 C 
HETATM    4  O2  UNL     1      -5.544   3.528  13.408  1.00  0.00    -0.306 OA
HETATM    5  C8  UNL     1      -5.232   4.390  14.448  1.00  0.00     0.260 C 
HETATM    6  O3  UNL     1      -5.844   5.435  14.815  1.00  0.00    -0.265 OA
HETATM    7  C9  UNL     1      -3.998   3.929  15.158  1.00  0.00     0.129 C 
HETATM    8  C10 UNL     1      -3.882   2.512  14.580  1.00  0.00     0.095 C 
HETATM    9  C13 UNL     1      -4.612   1.505  12.444  1.00  0.00     0.209 C 
HETATM   10  C14 UNL     1      -4.777   1.639  10.981  1.00  0.00     0.292 C 
HETATM   11  O6  UNL     1      -4.260   2.716  10.375  1.00  0.00    -0.322 OA
ENDROOT
BRANCH   8  12
HETATM   12  S1  UNL     1      -4.977   1.348  15.388  1.00  0.00    -0.155 SA
BRANCH  12  13
HETATM   13  C11 UNL     1      -5.303   1.759  17.104  1.00  0.00     0.118 C 
BRANCH  13  14
HETATM   14  C12 UNL     1      -6.744   2.118  17.229  1.00  0.00     0.063 C 
HETATM   15  N1  UNL     1      -7.179   3.250  16.823  1.00  0.00    -0.410 N 
ATOM     16  H12 UNL     1      -6.516   3.906  16.410  1.00  0.00     0.155 HD
ATOM     17  H11 UNL     1      -8.165   3.495  16.909  1.00  0.00     0.155 HD
ENDBRANCH  13  14
ENDBRANCH  12  13
ENDBRANCH   8  12
BRANCH   9  18
HETATM   18  O4  UNL     1      -3.558   0.628  12.733  1.00  0.00    -0.388 OA
ATOM     19  H4  UNL     1      -3.646  -0.143  12.184  1.00  0.00     0.210 HD
ENDBRANCH   9  18
BRANCH   1  20
HETATM   20  O1  UNL     1      -3.363   4.743  10.401  1.00  0.00    -0.359 OA
HETATM   21  C1  UNL     1      -4.607   5.316  10.497  1.00  0.00     0.205 C 
ENDBRANCH   1  20
BRANCH   1  22
HETATM   22  C3  UNL     1      -1.889   2.973  10.575  1.00  0.00     0.040 C 
HETATM   23  C4  UNL     1      -0.926   3.223  11.709  1.00  0.00     0.015 C 
HETATM   24  C5  UNL     1      -1.417   3.810   9.393  1.00  0.00     0.015 C 
ENDBRANCH   1  22
BRANCH  10  25
HETATM   25  O5  UNL     1      -6.174   1.631  10.724  1.00  0.00    -0.368 OA
ATOM     26  H5  UNL     1      -6.320   2.212   9.987  1.00  0.00     0.212 HD
ENDBRANCH  10  25
TORSDOF 7
ENDMDL
MODEL 3
REMARK VINA RESULT: -6.442687189      3.195      4.940
REMARK  7 active torsions:
REMARK  status: ('A' for Active; 'I' for Inactive)
REMARK    1  A    between atoms: O1_2  and  C2_3 
REMARK    2  A    between atoms: C2_3  and  C3_4 
REMARK    3  A    between atoms: C10_13  and  S1_14 
REMARK    4  A    between atoms: S1_14  and  C11_15 
REMARK    5  A    between atoms: C11_15  and  C12_16 
REMARK    6  A    between atoms: C13_20  and  O4_21 
REMARK    7  A    between atoms: C14_23  and  O5_24 
ROOT
HETATM    1  C2  UNL     1      -2.538   5.034  11.704  1.00  0.00     0.172 C 
HETATM    2  C6  UNL     1      -3.056   3.710  12.126  1.00  0.00     0.111 C 
HETATM    3  C7  UNL     1      -2.931   2.605  11.135  1.00  0.00     0.119 C 
HETATM    4  O2  UNL     1      -4.074   2.439  10.332  1.00  0.00    -0.306 OA
HETATM    5  C8  UNL     1      -5.023   1.838  11.144  1.00  0.00     0.260 C 
HETATM    6  O3  UNL     1      -6.274   1.765  10.970  1.00  0.00    -0.265 OA
HETATM    7  C9  UNL     1      -4.374   1.233  12.348  1.00  0.00     0.129 C 
HETATM    8  C10 UNL     1      -2.906   1.286  11.906  1.00  0.00     0.095 C 
HETATM    9  C13 UNL     1      -1.671   2.773  10.366  1.00  0.00     0.209 C 
HETATM   10  C14 UNL     1      -1.443   4.139   9.847  1.00  0.00     0.292 C 
HETATM   11  O6  UNL     1      -2.056   5.164  10.454  1.00  0.00    -0.322 OA
ENDROOT
BRANCH   8  12
HETATM   12  S1  UNL     1      -2.473  -0.053  10.798  1.00  0.00    -0.155 SA
BRANCH  12  13
HETATM   13  C11 UNL     1      -3.429  -1.544  11.086  1.00  0.00     0.118 C 
BRANCH  13  14
HETATM   14  C12 UNL     1      -2.483  -2.693  11.172  1.00  0.00     0.063 C 
HETATM   15  N1  UNL     1      -2.909  -3.899  11.183  1.00  0.00    -0.410 N 
ATOM     16  H12 UNL     1      -3.915  -4.060  11.130  1.00  0.00     0.155 HD
ATOM     17  H11 UNL     1      -2.261  -4.684  11.242  1.00  0.00     0.155 HD
ENDBRANCH  13  14
ENDBRANCH  12  13
ENDBRANCH   8  12
BRANCH   9  18
HETATM   18  O4  UNL     1      -0.595   2.378  11.174  1.00  0.00    -0.388 OA
ATOM     19  H4  UNL     1      -0.516   2.993  11.895  1.00  0.00     0.210 HD
ENDBRANCH   9  18
BRANCH   1  20
HETATM   20  O1  UNL     1      -3.562   6.006  11.846  1.00  0.00    -0.359 OA
HETATM   21  C1  UNL     1      -4.596   5.835  10.960  1.00  0.00     0.205 C 
ENDBRANCH   1  20
BRANCH   1  22
HETATM   22  C3  UNL     1      -1.509   5.474  12.763  1.00  0.00     0.040 C 
HETATM   23  C4  UNL     1      -1.752   4.730  14.053  1.00  0.00     0.015 C 
HETATM   24  C5  UNL     1      -1.720   6.954  13.052  1.00  0.00     0.015 C 
ENDBRANCH   1  22
BRANCH  10  25
HETATM   25  O5  UNL     1      -1.855   4.135   8.488  1.00  0.00    -0.368 OA
ATOM     26  H5  UNL     1      -2.750   3.817   8.474  1.00  0.00     0.212 HD
ENDBRANCH  10  25
TORSDOF 7
ENDMDL
MODEL 4
REMARK VINA RESULT: -6.266985665      3.706      6.354
REMARK  7 active torsions:
REMARK  status: ('A' for Active; 'I' for Inactive)
REMARK    1  A    between atoms: O1_2  and  C2_3 
REMARK    2  A    between atoms: C2_3  and  C3_4 
REMARK    3  A    between atoms: C10_13  and  S1_14 
REMARK    4  A    between atoms: S1_14  and  C11_15 
REMARK    5  A    between atoms: C11_15  and  C12_16 
REMARK    6  A    between atoms: C13_20  and  O4_21 
REMARK    7  A    between atoms: C14_23  and  O5_24 
ROOT
HETATM    1  C2  UNL     1      -4.423   3.981  12.894  1.00  0.00     0.172 C 
HETATM    2  C6  UNL     1      -3.054   3.556  12.511  1.00  0.00     0.111 C 
HETATM    3  C7  UNL     1      -2.564   4.021  11.184  1.00  0.00     0.119 C 
HETATM    4  O2  UNL     1      -2.796   3.099  10.147  1.00  0.00    -0.306 OA
HETATM    5  C8  UNL     1      -1.868   2.084  10.329  1.00  0.00     0.260 C 
HETATM    6  O3  UNL     1      -1.876   0.915   9.844  1.00  0.00    -0.265 OA
HETATM    7  C9  UNL     1      -0.764   2.540  11.229  1.00  0.00     0.129 C 
HETATM    8  C10 UNL     1      -1.038   4.050  11.232  1.00  0.00     0.095 C 
HETATM    9  C13 UNL     1      -3.095   5.382  10.912  1.00  0.00     0.209 C 
HETATM   10  C14 UNL     1      -4.544   5.540  11.161  1.00  0.00     0.292 C 
HETATM   11  O6  UNL     1      -5.144   4.692  12.007  1.00  0.00    -0.322 OA
ENDROOT
BRANCH   8  12
HETATM   12  S1  UNL     1      -0.402   4.866   9.770  1.00  0.00    -0.155 SA
BRANCH  12  13
HETATM   13  C11 UNL     1       0.682   3.822   8.793  1.00  0.00     0.118 C 
BRANCH  13  14
HETATM   14  C12 UNL     1       0.013   3.552   7.488  1.00  0.00     0.063 C 
HETATM   15  N1  UNL     1       0.688   3.193   6.463  1.00  0.00    -0.410 N 
ATOM     16  H12 UNL     1       1.699   3.094   6.557  1.00  0.00     0.155 HD
ATOM     17  H11 UNL     1       0.230   3.008   5.571  1.00  0.00     0.155 HD
ENDBRANCH  13  14
ENDBRANCH  12  13
ENDBRANCH   8  12
BRANCH   9  18
HETATM   18  O4  UNL     1      -2.370   6.307  11.676  1.00  0.00    -0.388 OA
ATOM     19  H4  UNL     1      -2.272   5.962  12.556  1.00  0.00     0.210 HD
ENDBRANCH   9  18
BRANCH   1  20
HETATM   20  O1  UNL     1      -5.196   2.836  13.219  1.00  0.00    -0.359 OA
HETATM   21  C1  UNL     1      -4.794   1.706  12.555  1.00  0.00     0.205 C 
ENDBRANCH   1  20
BRANCH   1  22
HETATM   22  C3  UNL     1      -4.308   4.705  14.249  1.00  0.00     0.040 C 
HETATM   23  C4  UNL     1      -3.458   3.892  15.193  1.00  0.00     0.015 C 
HETATM   24  C5  UNL     1      -5.698   4.798  14.863  1.00  0.00     0.015 C 
ENDBRANCH   1  22
BRANCH  10  25
HETATM   25  O5  UNL     1      -5.191   5.422   9.902  1.00  0.00    -0.368 OA
ATOM     26  H5  UNL     1      -5.800   4.696   9.974  1.00  0.00     0.212 HD
ENDBRANCH  10  25
TORSDOF 7
ENDMDL
MODEL 5
REMARK VINA RESULT: -6.241144718      2.596      4.931
REMARK  7 active torsions:
REMARK  status: ('A' for Active; 'I' for Inactive)
REMARK    1  A    between atoms: O1_2  and  C2_3 
REMARK    2  A    between atoms: C2_3  and  C3_4 
REMARK    3  A    between atoms: C10_13  and  S1_14 
REMARK    4  A    between atoms: S1_14  and  C11_15 
REMARK    5  A    between atoms: C11_15  and  C12_16 
REMARK    6  A    between atoms: C13_20  and  O4_21 
REMARK    7  A    between atoms: C14_23  and  O5_24 
ROOT
HETATM    1  C2  UNL     1      -2.501   5.675  13.332  1.00  0.00     0.172 C 
HETATM    2  C6  UNL     1      -2.826   4.903  12.108  1.00  0.00     0.111 C 
HETATM    3  C7  UNL     1      -3.413   3.550  12.316  1.00  0.00     0.119 C 
HETATM    4  O2  UNL     1      -2.456   2.519  12.328  1.00  0.00    -0.306 OA
HETATM    5  C8  UNL     1      -2.075   2.342  11.006  1.00  0.00     0.260 C 
HETATM    6  O3  UNL     1      -1.049   1.755  10.555  1.00  0.00    -0.265 OA
HETATM    7  C9  UNL     1      -3.077   2.962  10.085  1.00  0.00     0.129 C 
HETATM    8  C10 UNL     1      -4.227   3.197  11.073  1.00  0.00     0.095 C 
HETATM    9  C13 UNL     1      -4.291   3.573  13.515  1.00  0.00     0.209 C 
HETATM   10  C14 UNL     1      -3.691   4.210  14.706  1.00  0.00     0.292 C 
HETATM   11  O6  UNL     1      -2.696   5.089  14.528  1.00  0.00    -0.322 OA
ENDROOT
BRANCH   8  12
HETATM   12  S1  UNL     1      -5.185   1.714  11.378  1.00  0.00    -0.155 SA
BRANCH  12  13
HETATM   13  C11 UNL     1      -4.460   0.243  10.649  1.00  0.00     0.118 C 
BRANCH  13  14
HETATM   14  C12 UNL     1      -4.008  -0.648  11.755  1.00  0.00     0.063 C 
HETATM   15  N1  UNL     1      -3.963  -0.229  12.962  1.00  0.00    -0.410 N 
ATOM     16  H12 UNL     1      -4.244   0.733  13.154  1.00  0.00     0.155 HD
ATOM     17  H11 UNL     1      -3.654  -0.839  13.718  1.00  0.00     0.155 HD
ENDBRANCH  13  14
ENDBRANCH  12  13
ENDBRANCH   8  12
BRANCH   9  18
HETATM   18  O4  UNL     1      -5.492   4.213  13.179  1.00  0.00    -0.388 OA
ATOM     19  H4  UNL     1      -6.194   3.572  13.203  1.00  0.00     0.210 HD
ENDBRANCH   9  18
BRANCH   1  20
HETATM   20  O1  UNL     1      -1.139   6.070  13.291  1.00  0.00    -0.359 OA
HETATM   21  C1  UNL     1      -0.436   5.479  12.271  1.00  0.00     0.205 C 
ENDBRANCH   1  20
BRANCH   1  22
HETATM   22  C3  UNL     1      -3.244   7.020  13.226  1.00  0.00     0.040 C 
HETATM   23  C4  UNL     1      -3.623   7.284  11.790  1.00  0.00     0.015 C 
HETATM   24  C5  UNL     1      -2.291   8.130  13.649  1.00  0.00     0.015 C 
ENDBRANCH   1  22
BRANCH  10  25
HETATM   25  O5  UNL     1      -3.197   3.162  15.527  1.00  0.00    -0.368 OA
ATOM     26  H5  UNL     1      -3.887   2.949  16.145  1.00  0.00     0.212 HD
ENDBRANCH  10  25
TORSDOF 7
ENDMDL
