MODEL 1
REMARK VINA RESULT: -7.115352214      0.000      0.000
REMARK  9 active torsions:
REMARK  status: ('A' for Active; 'I' for Inactive)
REMARK       I    between atoms: C1_4  and  N3_6 
REMARK    1  A    between atoms: N3_6  and  C2_8 
REMARK    2  A    between atoms: C2_8  and  C3_9 
REMARK    3  A    between atoms: C3_9  and  C4_10 
REMARK    4  A    between atoms: C4_10  and  C5_11 
REMARK    5  A    between atoms: C5_11  and  N5_15 
REMARK    6  A    between atoms: N5_15  and  C6_17 
REMARK    7  A    between atoms: C6_17  and  C7_18 
REMARK    8  A    between atoms: C7_18  and  N6_19 
REMARK    9  A    between atoms: C13_25  and  C14_26 
ROOT
HETATM    1  C6  UNL     1       0.892 -11.132   4.472  1.00  0.00     0.149 C 
ENDROOT
BRANCH   1   2
HETATM    2  N5  UNL     1       1.037 -10.322   5.654  1.00  0.00    -0.377 N 
ATOM      3  H5  UNL     1       0.558 -10.632   6.499  1.00  0.00     0.160 HD
BRANCH   2   4
HETATM    4  C5  UNL     1       1.789  -9.139   5.730  1.00  0.00     0.087 C 
HETATM    5  N4  UNL     1       3.046  -9.078   5.515  1.00  0.00    -0.288 N 
HETATM    6 CL1  UNL     1       3.991  -7.648   5.611  1.00  0.00     0.012 Cl
ATOM      7  H4  UNL     1       3.526  -9.944   5.267  1.00  0.00     0.181 HD
BRANCH   4   8
HETATM    8  C4  UNL     1       1.106  -7.852   6.092  1.00  0.00     0.078 C 
BRANCH   8   9
HETATM    9  C3  UNL     1      -0.151  -8.280   6.856  1.00  0.00     0.027 C 
BRANCH   9  10
HETATM   10  C2  UNL     1      -1.382  -7.543   6.375  1.00  0.00     0.122 C 
BRANCH  10  11
HETATM   11  N3  UNL     1      -1.883  -8.264   5.229  1.00  0.00    -0.365 N 
HETATM   12  C1  UNL     1      -3.290  -8.264   5.004  1.00  0.00     0.181 C 
HETATM   13  N1  UNL     1      -3.820  -7.152   4.593  1.00  0.00    -0.374 N 
HETATM   14  N2  UNL     1      -4.085  -9.415   5.213  1.00  0.00    -0.064 NA
ATOM     15  H12 UNL     1      -4.827  -7.152   4.432  1.00  0.00     0.158 HD
ATOM     16  H11 UNL     1      -3.247  -6.322   4.443  1.00  0.00     0.158 HD
ATOM     17  H3  UNL     1      -1.250  -8.759   4.600  1.00  0.00     0.162 HD
ENDBRANCH  10  11
ENDBRANCH   9  10
ENDBRANCH   8   9
ENDBRANCH   4   8
ENDBRANCH   2   4
ENDBRANCH   1   2
BRANCH   1  18
HETATM   18  C7  UNL     1       0.383 -10.289   3.357  1.00  0.00     0.257 C 
BRANCH  18  19
HETATM   19  N6  UNL     1       1.257 -10.298   2.194  1.00  0.00    -0.065 N 
HETATM   20  C8  UNL     1       2.305 -11.248   2.491  1.00  0.00     0.238 C 
HETATM   21  C9  UNL     1       3.590 -10.690   1.925  1.00  0.00     0.033 C 
HETATM   22  C10 UNL     1       3.239 -10.180   0.520  1.00  0.00    -0.003 C 
HETATM   23  C11 UNL     1       2.478  -8.927   0.679  1.00  0.00     0.033 C 
HETATM   24  C13 UNL     1       2.567 -11.301  -0.210  1.00  0.00     0.024 C 
HETATM   25  C12 UNL     1       1.795  -8.943   2.043  1.00  0.00     0.238 C 
HETATM   26  C20 UNL     1       1.101 -11.400  -0.025  1.00  0.00     0.037 C 
HETATM   27  C21 UNL     1       0.481 -10.587   1.039  1.00  0.00     0.238 C 
BRANCH  24  28
HETATM   28  C14 UNL     1       2.921 -11.327  -1.654  1.00  0.00    -0.054 A 
HETATM   29  C15 UNL     1       1.958 -11.397  -2.645  1.00  0.00     0.007 A 
HETATM   30  C16 UNL     1       2.372 -11.404  -3.952  1.00  0.00     0.001 A 
HETATM   31  C17 UNL     1       3.707 -11.346  -4.332  1.00  0.00     0.000 A 
HETATM   32  C18 UNL     1       4.641 -11.277  -3.321  1.00  0.00     0.001 A 
HETATM   33  C19 UNL     1       4.279 -11.266  -1.991  1.00  0.00     0.007 A 
ENDBRANCH  24  28
ENDBRANCH  18  19
ENDBRANCH   1  18
TORSDOF 9
ENDMDL
MODEL 2
REMARK VINA RESULT: -6.990414419      1.650      2.431
REMARK  9 active torsions:
REMARK  status: ('A' for Active; 'I' for Inactive)
REMARK       I    between atoms: C1_4  and  N3_6 
REMARK    1  A    between atoms: N3_6  and  C2_8 
REMARK    2  A    between atoms: C2_8  and  C3_9 
REMARK    3  A    between atoms: C3_9  and  C4_10 
REMARK    4  A    between atoms: C4_10  and  C5_11 
REMARK    5  A    between atoms: C5_11  and  N5_15 
REMARK    6  A    between atoms: N5_15  and  C6_17 
REMARK    7  A    between atoms: C6_17  and  C7_18 
REMARK    8  A    between atoms: C7_18  and  N6_19 
REMARK    9  A    between atoms: C13_25  and  C14_26 
ROOT
HETATM    1  C6  UNL     1       2.965  -8.821   5.393  1.00  0.00     0.149 C 
ENDROOT
BRANCH   1   2
HETATM    2  N5  UNL     1       2.201  -8.915   6.610  1.00  0.00    -0.377 N 
ATOM      3  H5  UNL     1       2.680  -8.698   7.484  1.00  0.00     0.160 HD
BRANCH   2   4
HETATM    4  C5  UNL     1       0.848  -9.282   6.683  1.00  0.00     0.087 C 
HETATM    5  N4  UNL     1       0.394 -10.178   7.471  1.00  0.00    -0.288 N 
HETATM    6 CL1  UNL     1      -1.252 -10.653   7.573  1.00  0.00     0.012 Cl
ATOM      7  H4  UNL     1       1.060 -10.648   8.085  1.00  0.00     0.181 HD
BRANCH   4   8
HETATM    8  C4  UNL     1      -0.151  -8.605   5.789  1.00  0.00     0.078 C 
BRANCH   8   9
HETATM    9  C3  UNL     1      -0.649  -7.404   6.600  1.00  0.00     0.027 C 
BRANCH   9  10
HETATM   10  C2  UNL     1      -2.140  -7.200   6.448  1.00  0.00     0.122 C 
BRANCH  10  11
HETATM   11  N3  UNL     1      -2.529  -7.848   5.218  1.00  0.00    -0.365 N 
HETATM   12  C1  UNL     1      -3.922  -7.955   4.932  1.00  0.00     0.181 C 
HETATM   13  N1  UNL     1      -4.542  -6.863   4.606  1.00  0.00    -0.374 N 
HETATM   14  N2  UNL     1      -4.608  -9.190   4.997  1.00  0.00    -0.064 NA
ATOM     15  H12 UNL     1      -5.538  -6.940   4.402  1.00  0.00     0.158 HD
ATOM     16  H11 UNL     1      -4.047  -5.972   4.560  1.00  0.00     0.158 HD
ATOM     17  H3  UNL     1      -1.830  -8.217   4.573  1.00  0.00     0.162 HD
ENDBRANCH  10  11
ENDBRANCH   9  10
ENDBRANCH   8   9
ENDBRANCH   4   8
ENDBRANCH   2   4
ENDBRANCH   1   2
BRANCH   1  18
HETATM   18  C7  UNL     1       3.139 -10.181   4.815  1.00  0.00     0.257 C 
BRANCH  18  19
HETATM   19  N6  UNL     1       2.542 -10.318   3.495  1.00  0.00    -0.065 N 
HETATM   20  C8  UNL     1       2.312  -8.972   3.021  1.00  0.00     0.238 C 
HETATM   21  C9  UNL     1       1.002  -8.980   2.268  1.00  0.00     0.033 C 
HETATM   22  C10 UNL     1       1.041 -10.230   1.377  1.00  0.00    -0.003 C 
HETATM   23  C11 UNL     1       0.829 -11.402   2.247  1.00  0.00     0.033 C 
HETATM   24  C13 UNL     1       2.315 -10.182   0.592  1.00  0.00     0.024 C 
HETATM   25  C12 UNL     1       1.281 -11.046   3.660  1.00  0.00     0.238 C 
HETATM   26  C20 UNL     1       3.498 -10.778   1.251  1.00  0.00     0.037 C 
HETATM   27  C21 UNL     1       3.398 -11.113   2.685  1.00  0.00     0.238 C 
BRANCH  24  28
HETATM   28  C14 UNL     1       2.149 -10.720  -0.785  1.00  0.00    -0.054 A 
HETATM   29  C15 UNL     1       0.924 -10.726  -1.428  1.00  0.00     0.007 A 
HETATM   30  C16 UNL     1       0.863 -11.230  -2.702  1.00  0.00     0.001 A 
HETATM   31  C17 UNL     1       1.965 -11.735  -3.379  1.00  0.00     0.000 A 
HETATM   32  C18 UNL     1       3.171 -11.714  -2.710  1.00  0.00     0.001 A 
HETATM   33  C19 UNL     1       3.288 -11.218  -1.429  1.00  0.00     0.007 A 
ENDBRANCH  24  28
ENDBRANCH  18  19
ENDBRANCH   1  18
TORSDOF 9
ENDMDL
MODEL 3
REMARK VINA RESULT: -6.977701413      2.359      2.901
REMARK  9 active torsions:
REMARK  status: ('A' for Active; 'I' for Inactive)
REMARK       I    between atoms: C1_4  and  N3_6 
REMARK    1  A    between atoms: N3_6  and  C2_8 
REMARK    2  A    between atoms: C2_8  and  C3_9 
REMARK    3  A    between atoms: C3_9  and  C4_10 
REMARK    4  A    between atoms: C4_10  and  C5_11 
REMARK    5  A    between atoms: C5_11  and  N5_15 
REMARK    6  A    between atoms: N5_15  and  C6_17 
REMARK    7  A    between atoms: C6_17  and  C7_18 
REMARK    8  A    between atoms: C7_18  and  N6_19 
REMARK    9  A    between atoms: C13_25  and  C14_26 
ROOT
HETATM    1  C6  UNL     1       0.576  -8.805   4.487  1.00  0.00     0.149 C 
ENDROOT
BRANCH   1   2
HETATM    2  N5  UNL     1      -0.209  -8.848   5.692  1.00  0.00    -0.377 N 
ATOM      3  H5  UNL     1       0.276  -9.058   6.564  1.00  0.00     0.160 HD
BRANCH   2   4
HETATM    4  C5  UNL     1      -1.593  -8.622   5.758  1.00  0.00     0.087 C 
HETATM    5  N4  UNL     1      -2.262  -8.021   4.851  1.00  0.00    -0.288 N 
HETATM    6 CL1  UNL     1      -3.951  -7.722   4.911  1.00  0.00     0.012 Cl
ATOM      7  H4  UNL     1      -1.754  -7.693   4.030  1.00  0.00     0.181 HD
BRANCH   4   8
HETATM    8  C4  UNL     1      -2.363  -9.095   6.958  1.00  0.00     0.078 C 
BRANCH   8   9
HETATM    9  C3  UNL     1      -1.619 -10.350   7.427  1.00  0.00     0.027 C 
BRANCH   9  10
HETATM   10  C2  UNL     1      -2.351 -11.617   7.041  1.00  0.00     0.122 C 
BRANCH  10  11
HETATM   11  N3  UNL     1      -1.623 -12.204   5.941  1.00  0.00    -0.365 N 
HETATM   12  C1  UNL     1      -2.337 -12.471   4.736  1.00  0.00     0.181 C 
HETATM   13  N1  UNL     1      -2.685 -11.447   4.019  1.00  0.00    -0.374 N 
HETATM   14  N2  UNL     1      -2.657 -13.787   4.329  1.00  0.00    -0.064 NA
ATOM     15  H12 UNL     1      -3.196 -11.638   3.157  1.00  0.00     0.158 HD
ATOM     16  H11 UNL     1      -2.455 -10.498   4.313  1.00  0.00     0.158 HD
ATOM     17  H3  UNL     1      -0.630 -12.421   6.023  1.00  0.00     0.162 HD
ENDBRANCH  10  11
ENDBRANCH   9  10
ENDBRANCH   8   9
ENDBRANCH   4   8
ENDBRANCH   2   4
ENDBRANCH   1   2
BRANCH   1  18
HETATM   18  C7  UNL     1       0.653 -10.170   3.899  1.00  0.00     0.257 C 
BRANCH  18  19
HETATM   19  N6  UNL     1       1.340 -10.198   2.618  1.00  0.00    -0.065 N 
HETATM   20  C8  UNL     1       2.411 -11.159   2.761  1.00  0.00     0.238 C 
HETATM   21  C9  UNL     1       3.601 -10.620   2.001  1.00  0.00     0.033 C 
HETATM   22  C10 UNL     1       3.046 -10.117   0.661  1.00  0.00    -0.003 C 
HETATM   23  C11 UNL     1       2.331  -8.854   0.922  1.00  0.00     0.033 C 
HETATM   24  C13 UNL     1       2.259 -11.236   0.053  1.00  0.00     0.024 C 
HETATM   25  C12 UNL     1       1.863  -8.852   2.374  1.00  0.00     0.238 C 
HETATM   26  C20 UNL     1       0.838 -11.316   0.459  1.00  0.00     0.037 C 
HETATM   27  C21 UNL     1       0.394 -10.487   1.597  1.00  0.00     0.238 C 
BRANCH  24  28
HETATM   28  C14 UNL     1       2.389 -11.278  -1.428  1.00  0.00    -0.054 A 
HETATM   29  C15 UNL     1       1.288 -11.229  -2.264  1.00  0.00     0.007 A 
HETATM   30  C16 UNL     1       1.500 -11.261  -3.618  1.00  0.00     0.001 A 
HETATM   31  C17 UNL     1       2.761 -11.339  -4.194  1.00  0.00     0.000 A 
HETATM   32  C18 UNL     1       3.837 -11.385  -3.334  1.00  0.00     0.001 A 
HETATM   33  C19 UNL     1       3.681 -11.356  -1.964  1.00  0.00     0.007 A 
ENDBRANCH  24  28
ENDBRANCH  18  19
ENDBRANCH   1  18
TORSDOF 9
ENDMDL
MODEL 4
REMARK VINA RESULT: -6.959169026      6.940      9.262
REMARK  9 active torsions:
REMARK  status: ('A' for Active; 'I' for Inactive)
REMARK       I    between atoms: C1_4  and  N3_6 
REMARK    1  A    between atoms: N3_6  and  C2_8 
REMARK    2  A    between atoms: C2_8  and  C3_9 
REMARK    3  A    between atoms: C3_9  and  C4_10 
REMARK    4  A    between atoms: C4_10  and  C5_11 
REMARK    5  A    between atoms: C5_11  and  N5_15 
REMARK    6  A    between atoms: N5_15  and  C6_17 
REMARK    7  A    between atoms: C6_17  and  C7_18 
REMARK    8  A    between atoms: C7_18  and  N6_19 
REMARK    9  A    between atoms: C13_25  and  C14_26 
ROOT
HETATM    1  C6  UNL     1       7.905 -11.629   0.520  1.00  0.00     0.149 C 
ENDROOT
BRANCH   1   2
HETATM    2  N5  UNL     1       6.845 -10.806  -0.002  1.00  0.00    -0.377 N 
ATOM      3  H5  UNL     1       6.581  -9.981   0.536  1.00  0.00     0.160 HD
BRANCH   2   4
HETATM    4  C5  UNL     1       6.148 -11.056  -1.194  1.00  0.00     0.087 C 
HETATM    5  N4  UNL     1       6.632 -10.858  -2.359  1.00  0.00    -0.288 N 
HETATM    6 CL1  UNL     1       5.798 -11.144  -3.831  1.00  0.00     0.012 Cl
ATOM      7  H4  UNL     1       7.587 -10.504  -2.419  1.00  0.00     0.181 HD
BRANCH   4   8
HETATM    8  C4  UNL     1       4.740 -11.578  -1.131  1.00  0.00     0.078 C 
BRANCH   8   9
HETATM    9  C3  UNL     1       4.137 -10.920   0.114  1.00  0.00     0.027 C 
BRANCH   9  10
HETATM   10  C2  UNL     1       2.664 -11.232   0.259  1.00  0.00     0.122 C 
BRANCH  10  11
HETATM   11  N3  UNL     1       1.964 -10.412  -0.702  1.00  0.00    -0.365 N 
HETATM   12  C1  UNL     1       0.545 -10.325  -0.597  1.00  0.00     0.181 C 
HETATM   13  N1  UNL     1       0.069  -9.643   0.399  1.00  0.00    -0.374 N 
HETATM   14  N2  UNL     1      -0.316 -10.949  -1.530  1.00  0.00    -0.064 NA
ATOM     15  H12 UNL     1      -0.946  -9.581   0.475  1.00  0.00     0.158 HD
ATOM     16  H11 UNL     1       0.691  -9.194   1.072  1.00  0.00     0.158 HD
ATOM     17  H3  UNL     1       2.469  -9.911  -1.433  1.00  0.00     0.162 HD
ENDBRANCH  10  11
ENDBRANCH   9  10
ENDBRANCH   8   9
ENDBRANCH   4   8
ENDBRANCH   2   4
ENDBRANCH   1   2
BRANCH   1  18
HETATM   18  C7  UNL     1       9.139 -10.810   0.666  1.00  0.00     0.257 C 
BRANCH  18  19
HETATM   19  N6  UNL     1      10.290 -11.393  -0.005  1.00  0.00    -0.065 N 
HETATM   20  C8  UNL     1      10.758 -12.454   0.858  1.00  0.00     0.238 C 
HETATM   21  C9  UNL     1      12.268 -12.449   0.798  1.00  0.00     0.033 C 
HETATM   22  C10 UNL     1      12.624 -12.304  -0.688  1.00  0.00    -0.003 C 
HETATM   23  C11 UNL     1      12.360 -10.905  -1.075  1.00  0.00     0.033 C 
HETATM   24  C13 UNL     1      11.885 -13.371  -1.434  1.00  0.00     0.024 C 
HETATM   25  C12 UNL     1      11.296 -10.336  -0.141  1.00  0.00     0.238 C 
HETATM   26  C20 UNL     1      10.514 -13.020  -1.866  1.00  0.00     0.037 C 
HETATM   27  C21 UNL     1       9.905 -11.795  -1.313  1.00  0.00     0.238 C 
BRANCH  24  28
HETATM   28  C14 UNL     1      12.675 -13.916  -2.570  1.00  0.00    -0.054 A 
HETATM   29  C15 UNL     1      13.522 -13.122  -3.323  1.00  0.00     0.007 A 
HETATM   30  C16 UNL     1      14.222 -13.708  -4.346  1.00  0.00     0.001 A 
HETATM   31  C17 UNL     1      14.125 -15.057  -4.664  1.00  0.00     0.000 A 
HETATM   32  C18 UNL     1      13.274 -15.820  -3.895  1.00  0.00     0.001 A 
HETATM   33  C19 UNL     1      12.547 -15.282  -2.855  1.00  0.00     0.007 A 
ENDBRANCH  24  28
ENDBRANCH  18  19
ENDBRANCH   1  18
TORSDOF 9
ENDMDL
MODEL 5
REMARK VINA RESULT: -6.800241774      2.015      3.420
REMARK  9 active torsions:
REMARK  status: ('A' for Active; 'I' for Inactive)
REMARK       I    between atoms: C1_4  and  N3_6 
REMARK    1  A    between atoms: N3_6  and  C2_8 
REMARK    2  A    between atoms: C2_8  and  C3_9 
REMARK    3  A    between atoms: C3_9  and  C4_10 
REMARK    4  A    between atoms: C4_10  and  C5_11 
REMARK    5  A    between atoms: C5_11  and  N5_15 
REMARK    6  A    between atoms: N5_15  and  C6_17 
REMARK    7  A    between atoms: C6_17  and  C7_18 
REMARK    8  A    between atoms: C7_18  and  N6_19 
REMARK    9  A    between atoms: C13_25  and  C14_26 
ROOT
HETATM    1  C6  UNL     1       0.759  -9.310   1.548  1.00  0.00     0.149 C 
ENDROOT
BRANCH   1   2
HETATM    2  N5  UNL     1       0.473  -9.268   2.958  1.00  0.00    -0.377 N 
ATOM      3  H5  UNL     1      -0.503  -9.348   3.243  1.00  0.00     0.160 HD
BRANCH   2   4
HETATM    4  C5  UNL     1       1.436  -9.125   3.969  1.00  0.00     0.087 C 
HETATM    5  N4  UNL     1       2.591  -9.667   3.936  1.00  0.00    -0.288 N 
HETATM    6 CL1  UNL     1       3.782  -9.518   5.163  1.00  0.00     0.012 Cl
ATOM      7  H4  UNL     1       2.824 -10.232   3.119  1.00  0.00     0.181 HD
BRANCH   4   8
HETATM    8  C4  UNL     1       1.117  -8.298   5.182  1.00  0.00     0.078 C 
BRANCH   8   9
HETATM    9  C3  UNL     1      -0.172  -8.910   5.741  1.00  0.00     0.027 C 
BRANCH   9  10
HETATM   10  C2  UNL     1       0.105 -10.135   6.585  1.00  0.00     0.122 C 
BRANCH  10  11
HETATM   11  N3  UNL     1      -0.885 -11.123   6.230  1.00  0.00    -0.365 N 
HETATM   12  C1  UNL     1      -0.637 -11.934   5.084  1.00  0.00     0.181 C 
HETATM   13  N1  UNL     1       0.290 -12.836   5.190  1.00  0.00    -0.374 N 
HETATM   14  N2  UNL     1      -1.362 -11.774   3.880  1.00  0.00    -0.064 NA
ATOM     15  H12 UNL     1       0.468 -13.416   4.371  1.00  0.00     0.158 HD
ATOM     16  H11 UNL     1       0.813 -12.950   6.058  1.00  0.00     0.158 HD
ATOM     17  H3  UNL     1      -1.736 -11.238   6.780  1.00  0.00     0.162 HD
ENDBRANCH  10  11
ENDBRANCH   9  10
ENDBRANCH   8   9
ENDBRANCH   4   8
ENDBRANCH   2   4
ENDBRANCH   1   2
BRANCH   1  18
HETATM   18  C7  UNL     1       0.661 -10.714   1.066  1.00  0.00     0.257 C 
BRANCH  18  19
HETATM   19  N6  UNL     1       1.647 -11.035   0.046  1.00  0.00    -0.065 N 
HETATM   20  C8  UNL     1       1.596  -9.953  -0.912  1.00  0.00     0.238 C 
HETATM   21  C9  UNL     1       1.781 -10.561  -2.283  1.00  0.00     0.033 C 
HETATM   22  C10 UNL     1       2.941 -11.556  -2.144  1.00  0.00    -0.003 C 
HETATM   23  C11 UNL     1       2.430 -12.737  -1.423  1.00  0.00     0.033 C 
HETATM   24  C13 UNL     1       4.092 -10.823  -1.528  1.00  0.00     0.024 C 
HETATM   25  C12 UNL     1       1.246 -12.305  -0.564  1.00  0.00     0.238 C 
HETATM   26  C20 UNL     1       4.116 -10.793  -0.049  1.00  0.00     0.037 C 
HETATM   27  C21 UNL     1       2.907 -11.235   0.674  1.00  0.00     0.238 C 
BRANCH  24  28
HETATM   28  C14 UNL     1       5.402 -11.271  -2.070  1.00  0.00    -0.054 A 
HETATM   29  C15 UNL     1       5.560 -11.645  -3.393  1.00  0.00     0.007 A 
HETATM   30  C16 UNL     1       6.806 -12.034  -3.812  1.00  0.00     0.001 A 
HETATM   31  C17 UNL     1       7.917 -12.072  -2.978  1.00  0.00     0.000 A 
HETATM   32  C18 UNL     1       7.726 -11.693  -1.667  1.00  0.00     0.001 A 
HETATM   33  C19 UNL     1       6.494 -11.293  -1.193  1.00  0.00     0.007 A 
ENDBRANCH  24  28
ENDBRANCH  18  19
ENDBRANCH   1  18
TORSDOF 9
ENDMDL
