MODEL 1
REMARK VINA RESULT: -3.677047692      0.000      0.000
REMARK  1 active torsions:
REMARK  status: ('A' for Active; 'I' for Inactive)
REMARK    1  A    between atoms: C3_5  and  N3_6 
ROOT
HETATM    1  C1  UNL     1       2.951  -1.249  41.805  1.00  0.00     0.301 C 
HETATM    2  N1  UNL     1       4.156  -1.928  42.257  1.00  0.00     0.051 N 
HETATM    3  C2  UNL     1       5.403  -1.318  41.928  1.00  0.00     0.301 C 
HETATM    4  N2  UNL     1       4.023  -3.312  42.316  1.00  0.00     0.021 NA
HETATM    5  C3  UNL     1       4.096  -2.652  43.529  1.00  0.00     0.524 A 
ENDROOT
BRANCH   5   6
HETATM    6  N3  UNL     1       2.952  -2.281  44.328  1.00  0.00    -0.032 N 
ATOM      7  H33 UNL     1       2.082  -2.482  43.836  1.00  0.00     0.278 HD
ATOM      8  H32 UNL     1       2.841  -2.910  45.122  1.00  0.00     0.278 HD
ATOM      9  H31 UNL     1       2.984  -1.308  44.633  1.00  0.00     0.278 HD
ENDBRANCH   5   6
TORSDOF 1
ENDMDL
MODEL 2
REMARK VINA RESULT: -3.514507507      1.163      1.963
REMARK  1 active torsions:
REMARK  status: ('A' for Active; 'I' for Inactive)
REMARK    1  A    between atoms: C3_5  and  N3_6 
ROOT
HETATM    1  C1  UNL     1       5.502  -2.607  42.642  1.00  0.00     0.301 C 
HETATM    2  N1  UNL     1       4.237  -1.898  42.515  1.00  0.00     0.051 N 
HETATM    3  C2  UNL     1       4.173  -0.863  41.535  1.00  0.00     0.301 C 
HETATM    4  N2  UNL     1       3.535  -1.804  43.712  1.00  0.00     0.021 NA
HETATM    5  C3  UNL     1       3.005  -2.651  42.756  1.00  0.00     0.524 A 
ENDROOT
BRANCH   5   6
HETATM    6  N3  UNL     1       3.210  -4.080  42.727  1.00  0.00    -0.032 N 
ATOM      7  H33 UNL     1       2.321  -4.578  42.765  1.00  0.00     0.278 HD
ATOM      8  H32 UNL     1       3.531  -4.385  41.809  1.00  0.00     0.278 HD
ATOM      9  H31 UNL     1       3.842  -4.402  43.461  1.00  0.00     0.278 HD
ENDBRANCH   5   6
TORSDOF 1
ENDMDL
MODEL 3
REMARK VINA RESULT: -3.494269574      9.885     10.802
REMARK  1 active torsions:
REMARK  status: ('A' for Active; 'I' for Inactive)
REMARK    1  A    between atoms: C3_5  and  N3_6 
ROOT
HETATM    1  C1  UNL     1       6.553   3.662  52.441  1.00  0.00     0.301 C 
HETATM    2  N1  UNL     1       6.054   2.295  52.444  1.00  0.00     0.051 N 
HETATM    3  C2  UNL     1       4.747   2.086  52.978  1.00  0.00     0.301 C 
HETATM    4  N2  UNL     1       7.056   1.341  52.594  1.00  0.00     0.021 NA
HETATM    5  C3  UNL     1       6.463   1.416  51.347  1.00  0.00     0.524 A 
ENDROOT
BRANCH   5   6
HETATM    6  N3  UNL     1       7.008   2.143  50.225  1.00  0.00    -0.032 N 
ATOM      7  H33 UNL     1       7.923   1.777  49.962  1.00  0.00     0.278 HD
ATOM      8  H32 UNL     1       6.495   1.933  49.369  1.00  0.00     0.278 HD
ATOM      9  H31 UNL     1       7.050   3.148  50.390  1.00  0.00     0.278 HD
ENDBRANCH   5   6
TORSDOF 1
ENDMDL
MODEL 4
REMARK VINA RESULT: -3.488227362      1.270      2.542
REMARK  1 active torsions:
REMARK  status: ('A' for Active; 'I' for Inactive)
REMARK    1  A    between atoms: C3_5  and  N3_6 
ROOT
HETATM    1  C1  UNL     1       5.099  -2.275  42.672  1.00  0.00     0.301 C 
HETATM    2  N1  UNL     1       3.655  -2.371  42.523  1.00  0.00     0.051 N 
HETATM    3  C2  UNL     1       2.952  -3.122  43.511  1.00  0.00     0.301 C 
HETATM    4  N2  UNL     1       3.234  -2.349  41.196  1.00  0.00     0.021 NA
HETATM    5  C3  UNL     1       2.951  -1.223  41.947  1.00  0.00     0.524 A 
ENDROOT
BRANCH   5   6
HETATM    6  N3  UNL     1       3.750  -0.021  41.950  1.00  0.00    -0.032 N 
ATOM      7  H33 UNL     1       3.807   0.378  42.886  1.00  0.00     0.278 HD
ATOM      8  H32 UNL     1       4.735  -0.235  41.801  1.00  0.00     0.278 HD
ATOM      9  H31 UNL     1       3.421   0.672  41.276  1.00  0.00     0.278 HD
ENDBRANCH   5   6
TORSDOF 1
ENDMDL
MODEL 5
REMARK VINA RESULT: -3.261934620      8.974      9.839
REMARK  1 active torsions:
REMARK  status: ('A' for Active; 'I' for Inactive)
REMARK    1  A    between atoms: C3_5  and  N3_6 
ROOT
HETATM    1  C1  UNL     1       9.709   2.687  45.282  1.00  0.00     0.301 C 
HETATM    2  N1  UNL     1      10.493   3.674  46.009  1.00  0.00     0.051 N 
HETATM    3  C2  UNL     1      10.949   3.308  47.310  1.00  0.00     0.301 C 
HETATM    4  N2  UNL     1      10.142   4.987  45.709  1.00  0.00     0.021 NA
HETATM    5  C3  UNL     1      11.367   4.557  45.232  1.00  0.00     0.524 A 
ENDROOT
BRANCH   5   6
HETATM    6  N3  UNL     1      11.598   4.074  43.892  1.00  0.00    -0.032 N 
ATOM      7  H33 UNL     1      10.800   4.273  43.289  1.00  0.00     0.278 HD
ATOM      8  H32 UNL     1      12.306   4.634  43.418  1.00  0.00     0.278 HD
ATOM      9  H31 UNL     1      11.838   3.083  43.866  1.00  0.00     0.278 HD
ENDBRANCH   5   6
TORSDOF 1
ENDMDL
