MODEL 1
REMARK VINA RESULT: -5.915713690      0.000      0.000
REMARK  1 active torsions:
REMARK  status: ('A' for Active; 'I' for Inactive)
REMARK    1  A    between atoms: C2_5  and  C3_6 
ROOT
HETATM    1  O1  UNL     1      -2.610  65.181  31.888  1.00  0.00    -0.236 OA
HETATM    2  C1  UNL     1      -2.796  63.925  31.730  1.00  0.00     0.388 A 
HETATM    3  N1  UNL     1      -1.966  62.929  32.065  1.00  0.00    -0.289 N 
ATOM      4  H1  UNL     1      -1.050  63.029  32.502  1.00  0.00     0.172 HD
HETATM    5  C2  UNL     1      -2.560  61.774  31.719  1.00  0.00     0.110 A 
HETATM    6  N2  UNL     1      -3.755  62.096  31.175  1.00  0.00    -0.243 N 
ATOM      7  H2  UNL     1      -4.449  61.443  30.811  1.00  0.00     0.196 HD
HETATM    8  O2  UNL     1      -3.851  63.370  31.201  1.00  0.00    -0.179 OA
ENDROOT
BRANCH   5   9
HETATM    9  C3  UNL     1      -1.972  60.398  31.918  1.00  0.00     0.055 C 
HETATM   10  C4  UNL     1      -0.644  60.343  31.274  1.00  0.00     0.012 C 
HETATM   11  C5  UNL     1      -0.545  59.608  29.995  1.00  0.00     0.001 C 
HETATM   12  C6  UNL     1      -1.469  58.423  29.877  1.00  0.00     0.000 C 
HETATM   13  C7  UNL     1      -2.882  58.988  30.081  1.00  0.00     0.001 C 
HETATM   14  C8  UNL     1      -2.943  59.346  31.550  1.00  0.00     0.012 C 
ENDBRANCH   5   9
TORSDOF 1
ENDMDL
MODEL 2
REMARK VINA RESULT: -5.755944450      0.644      1.257
REMARK  1 active torsions:
REMARK  status: ('A' for Active; 'I' for Inactive)
REMARK    1  A    between atoms: C2_5  and  C3_6 
ROOT
HETATM    1  O1  UNL     1      -4.555  64.623  31.130  1.00  0.00    -0.236 OA
HETATM    2  C1  UNL     1      -3.616  63.822  31.467  1.00  0.00     0.388 A 
HETATM    3  N1  UNL     1      -3.640  62.484  31.454  1.00  0.00    -0.289 N 
ATOM      4  H1  UNL     1      -4.425  61.898  31.169  1.00  0.00     0.172 HD
HETATM    5  C2  UNL     1      -2.443  62.053  31.887  1.00  0.00     0.110 A 
HETATM    6  N2  UNL     1      -1.705  63.152  32.157  1.00  0.00    -0.243 N 
ATOM      7  H2  UNL     1      -0.746  63.167  32.504  1.00  0.00     0.196 HD
HETATM    8  O2  UNL     1      -2.433  64.170  31.897  1.00  0.00    -0.179 OA
ENDROOT
BRANCH   5   9
HETATM    9  C3  UNL     1      -2.037  60.606  32.030  1.00  0.00     0.055 C 
HETATM   10  C4  UNL     1      -0.681  60.428  31.471  1.00  0.00     0.012 C 
HETATM   11  C5  UNL     1      -0.577  59.763  30.155  1.00  0.00     0.001 C 
HETATM   12  C6  UNL     1      -1.623  58.708  29.898  1.00  0.00     0.000 C 
HETATM   13  C7  UNL     1      -2.971  59.428  30.047  1.00  0.00     0.001 C 
HETATM   14  C8  UNL     1      -3.095  59.704  31.530  1.00  0.00     0.012 C 
ENDBRANCH   5   9
TORSDOF 1
ENDMDL
MODEL 3
REMARK VINA RESULT: -5.653347163      3.482      4.794
REMARK  1 active torsions:
REMARK  status: ('A' for Active; 'I' for Inactive)
REMARK    1  A    between atoms: C2_5  and  C3_6 
ROOT
HETATM    1  O1  UNL     1      -6.621  56.663  31.390  1.00  0.00    -0.236 OA
HETATM    2  C1  UNL     1      -6.157  57.791  31.002  1.00  0.00     0.388 A 
HETATM    3  N1  UNL     1      -4.875  58.119  30.797  1.00  0.00    -0.289 N 
ATOM      4  H1  UNL     1      -4.069  57.507  30.922  1.00  0.00     0.172 HD
HETATM    5  C2  UNL     1      -4.845  59.402  30.397  1.00  0.00     0.110 A 
HETATM    6  N2  UNL     1      -6.125  59.833  30.366  1.00  0.00    -0.243 N 
ATOM      7  H2  UNL     1      -6.443  60.766  30.103  1.00  0.00     0.196 HD
HETATM    8  O2  UNL     1      -6.862  58.855  30.730  1.00  0.00    -0.179 OA
ENDROOT
BRANCH   5   9
HETATM    9  C3  UNL     1      -3.596  60.179  30.056  1.00  0.00     0.055 C 
HETATM   10  C4  UNL     1      -2.434  59.529  30.696  1.00  0.00     0.012 C 
HETATM   11  C5  UNL     1      -1.865  60.189  31.890  1.00  0.00     0.001 C 
HETATM   12  C6  UNL     1      -1.952  61.694  31.879  1.00  0.00     0.000 C 
HETATM   13  C7  UNL     1      -3.446  62.013  31.731  1.00  0.00     0.001 C 
HETATM   14  C8  UNL     1      -3.782  61.623  30.308  1.00  0.00     0.012 C 
ENDBRANCH   5   9
TORSDOF 1
ENDMDL
MODEL 4
REMARK VINA RESULT: -5.522611842      3.035      3.861
REMARK  1 active torsions:
REMARK  status: ('A' for Active; 'I' for Inactive)
REMARK    1  A    between atoms: C2_5  and  C3_6 
ROOT
HETATM    1  O1  UNL     1      -6.492  59.827  30.591  1.00  0.00    -0.236 OA
HETATM    2  C1  UNL     1      -5.275  59.444  30.487  1.00  0.00     0.388 A 
HETATM    3  N1  UNL     1      -4.218  60.176  30.115  1.00  0.00    -0.289 N 
ATOM      4  H1  UNL     1      -4.229  61.162  29.857  1.00  0.00     0.172 HD
HETATM    5  C2  UNL     1      -3.140  59.374  30.145  1.00  0.00     0.110 A 
HETATM    6  N2  UNL     1      -3.569  58.155  30.539  1.00  0.00    -0.243 N 
ATOM      7  H2  UNL     1      -2.994  57.321  30.662  1.00  0.00     0.196 HD
HETATM    8  O2  UNL     1      -4.830  58.241  30.729  1.00  0.00    -0.179 OA
ENDROOT
BRANCH   5   9
HETATM    9  C3  UNL     1      -1.732  59.793  29.796  1.00  0.00     0.055 C 
HETATM   10  C4  UNL     1      -0.918  58.586  29.544  1.00  0.00     0.012 C 
HETATM   11  C5  UNL     1       0.040  58.187  30.596  1.00  0.00     0.001 C 
HETATM   12  C6  UNL     1       0.646  59.335  31.364  1.00  0.00     0.000 C 
HETATM   13  C7  UNL     1      -0.546  60.096  31.963  1.00  0.00     0.001 C 
HETATM   14  C8  UNL     1      -1.207  60.765  30.777  1.00  0.00     0.012 C 
ENDBRANCH   5   9
TORSDOF 1
ENDMDL
MODEL 5
REMARK VINA RESULT: -5.098780932      2.708      3.856
REMARK  1 active torsions:
REMARK  status: ('A' for Active; 'I' for Inactive)
REMARK    1  A    between atoms: C2_5  and  C3_6 
ROOT
HETATM    1  O1  UNL     1      -7.166  58.504  30.057  1.00  0.00    -0.236 OA
HETATM    2  C1  UNL     1      -6.029  59.022  30.335  1.00  0.00     0.388 A 
HETATM    3  N1  UNL     1      -4.934  58.395  30.782  1.00  0.00    -0.289 N 
ATOM      4  H1  UNL     1      -4.846  57.397  30.970  1.00  0.00     0.172 HD
HETATM    5  C2  UNL     1      -3.974  59.322  30.940  1.00  0.00     0.110 A 
HETATM    6  N2  UNL     1      -4.511  60.508  30.581  1.00  0.00    -0.243 N 
ATOM      7  H2  UNL     1      -4.039  61.413  30.587  1.00  0.00     0.196 HD
HETATM    8  O2  UNL     1      -5.720  60.286  30.232  1.00  0.00    -0.179 OA
ENDROOT
BRANCH   5   9
HETATM    9  C3  UNL     1      -2.571  59.049  31.430  1.00  0.00     0.055 C 
HETATM   10  C4  UNL     1      -1.880  60.335  31.653  1.00  0.00     0.012 C 
HETATM   11  C5  UNL     1      -0.870  60.740  30.653  1.00  0.00     0.001 C 
HETATM   12  C6  UNL     1      -0.113  59.598  30.024  1.00  0.00     0.000 C 
HETATM   13  C7  UNL     1      -1.186  58.699  29.392  1.00  0.00     0.001 C 
HETATM   14  C8  UNL     1      -1.891  58.059  30.570  1.00  0.00     0.012 C 
ENDBRANCH   5   9
TORSDOF 1
ENDMDL
