MODEL 1
REMARK VINA RESULT: -6.990201397      0.000      0.000
REMARK  3 active torsions:
REMARK  status: ('A' for Active; 'I' for Inactive)
REMARK    1  A    between atoms: C2_7  and  C3_8 
REMARK       I    between atoms: C3_8  and  N3_10 
REMARK    2  A    between atoms: N3_10  and  N4_12 
REMARK    3  A    between atoms: C4_14  and  C5_15 
ROOT
HETATM    1  C3  UNL     1      14.517  28.053  76.746  1.00  0.00     0.304 C 
HETATM    2  O1  UNL     1      15.150  29.098  76.474  1.00  0.00    -0.263 OA
HETATM    3  N3  UNL     1      15.032  27.070  77.626  1.00  0.00    -0.264 N 
ATOM      4  H3  UNL     1      14.478  26.236  77.815  1.00  0.00     0.190 HD
ENDROOT
BRANCH   1   5
HETATM    5  C2  UNL     1      13.203  27.885  76.107  1.00  0.00     0.192 A 
HETATM    6  N2  UNL     1      12.076  28.048  76.822  1.00  0.00    -0.171 N 
HETATM    7  C1  UNL     1      10.846  27.913  76.314  1.00  0.00     0.678 A 
ATOM      8  H2  UNL     1      12.165  28.289  77.810  1.00  0.00     0.186 HD
HETATM    9  N1  UNL     1       9.780  28.076  77.028  1.00  0.00    -0.234 N 
HETATM   10  N8  UNL     1      10.737  27.595  75.016  1.00  0.00    -0.188 N 
ATOM     11  H12 UNL     1       9.863  28.318  78.015  1.00  0.00     0.174 HD
ATOM     12  H11 UNL     1       8.843  27.974  76.641  1.00  0.00     0.174 HD
HETATM   13  C8  UNL     1      11.861  27.429  74.292  1.00  0.00     0.199 A 
ATOM     14  H8  UNL     1       9.819  27.482  74.585  1.00  0.00     0.185 HD
HETATM   15  N7  UNL     1      13.090  27.567  74.809  1.00  0.00    -0.333 N 
ATOM     16  H7  UNL     1      13.919  27.432  74.229  1.00  0.00     0.168 HD
ENDBRANCH   1   5
BRANCH   3  17
HETATM   17  N4  UNL     1      16.261  27.209  78.235  1.00  0.00    -0.308 N 
HETATM   18  C4  UNL     1      16.518  26.472  79.272  1.00  0.00     0.121 C 
ATOM     19  H4  UNL     1      16.949  27.872  77.880  1.00  0.00     0.186 HD
BRANCH  18  20
HETATM   20  C5  UNL     1      17.804  26.581  79.953  1.00  0.00     0.014 A 
HETATM   21  C6  UNL     1      18.846  25.680  79.942  1.00  0.00     0.121 A 
HETATM   22  N5  UNL     1      19.828  26.184  80.701  1.00  0.00    -0.311 N 
HETATM   23  N6  UNL     1      19.495  27.359  81.209  1.00  0.00    -0.311 N 
ATOM     24  H5  UNL     1      20.721  25.720  80.867  1.00  0.00     0.186 HD
HETATM   25  C7  UNL     1      18.253  27.623  80.761  1.00  0.00     0.121 A 
ATOM     26  H6  UNL     1      20.064  27.948  81.817  1.00  0.00     0.186 HD
ENDBRANCH  18  20
ENDBRANCH   3  17
TORSDOF 3
ENDMDL
MODEL 2
REMARK VINA RESULT: -6.967283330      3.131      3.310
REMARK  3 active torsions:
REMARK  status: ('A' for Active; 'I' for Inactive)
REMARK    1  A    between atoms: C2_7  and  C3_8 
REMARK       I    between atoms: C3_8  and  N3_10 
REMARK    2  A    between atoms: N3_10  and  N4_12 
REMARK    3  A    between atoms: C4_14  and  C5_15 
ROOT
HETATM    1  C3  UNL     1      14.548  28.289  76.000  1.00  0.00     0.304 C 
HETATM    2  O1  UNL     1      14.773  29.253  76.767  1.00  0.00    -0.263 OA
HETATM    3  N3  UNL     1      15.586  27.455  75.519  1.00  0.00    -0.264 N 
ATOM      4  H3  UNL     1      15.352  26.683  74.895  1.00  0.00     0.190 HD
ENDROOT
BRANCH   1   5
HETATM    5  C2  UNL     1      13.148  28.058  75.614  1.00  0.00     0.192 A 
HETATM    6  N2  UNL     1      12.175  28.099  76.540  1.00  0.00    -0.171 N 
HETATM    7  C1  UNL     1      10.879  27.900  76.269  1.00  0.00     0.678 A 
ATOM      8  H2  UNL     1      12.439  28.294  77.507  1.00  0.00     0.186 HD
HETATM    9  N1  UNL     1       9.966  27.946  77.183  1.00  0.00    -0.234 N 
HETATM   10  N8  UNL     1      10.539  27.645  74.997  1.00  0.00    -0.188 N 
ATOM     11  H12 UNL     1      10.224  28.140  78.149  1.00  0.00     0.174 HD
ATOM     12  H11 UNL     1       8.979  27.795  76.976  1.00  0.00     0.174 HD
HETATM   13  C8  UNL     1      11.508  27.601  74.062  1.00  0.00     0.199 A 
ATOM     14  H8  UNL     1       9.564  27.486  74.743  1.00  0.00     0.185 HD
HETATM   15  N7  UNL     1      12.804  27.802  74.343  1.00  0.00    -0.333 N 
ATOM     16  H7  UNL     1      13.510  27.761  73.608  1.00  0.00     0.168 HD
ENDBRANCH   1   5
BRANCH   3  17
HETATM   17  N4  UNL     1      16.904  27.654  75.868  1.00  0.00    -0.308 N 
HETATM   18  C4  UNL     1      17.651  28.355  75.072  1.00  0.00     0.121 C 
ATOM     19  H4  UNL     1      17.282  27.261  76.730  1.00  0.00     0.186 HD
BRANCH  18  20
HETATM   20  C5  UNL     1      19.053  28.595  75.397  1.00  0.00     0.014 A 
HETATM   21  C6  UNL     1      20.008  27.671  75.760  1.00  0.00     0.121 A 
HETATM   22  N5  UNL     1      21.156  28.330  75.966  1.00  0.00    -0.311 N 
HETATM   23  N6  UNL     1      21.013  29.629  75.760  1.00  0.00    -0.311 N 
ATOM     24  H5  UNL     1      22.030  27.886  76.246  1.00  0.00     0.186 HD
HETATM   25  C7  UNL     1      19.727  29.814  75.409  1.00  0.00     0.121 A 
ATOM     26  H6  UNL     1      21.733  30.346  75.850  1.00  0.00     0.186 HD
ENDBRANCH  18  20
ENDBRANCH   3  17
TORSDOF 3
ENDMDL
MODEL 3
REMARK VINA RESULT: -6.944865398      2.974      7.144
REMARK  3 active torsions:
REMARK  status: ('A' for Active; 'I' for Inactive)
REMARK    1  A    between atoms: C2_7  and  C3_8 
REMARK       I    between atoms: C3_8  and  N3_10 
REMARK    2  A    between atoms: N3_10  and  N4_12 
REMARK    3  A    between atoms: C4_14  and  C5_15 
ROOT
HETATM    1  C3  UNL     1      15.309  26.301  77.447  1.00  0.00     0.304 C 
HETATM    2  O1  UNL     1      16.303  26.525  76.719  1.00  0.00    -0.263 OA
HETATM    3  N3  UNL     1      14.049  26.902  77.204  1.00  0.00    -0.264 N 
ATOM      4  H3  UNL     1      13.271  26.688  77.827  1.00  0.00     0.190 HD
ENDROOT
BRANCH   1   5
HETATM    5  C2  UNL     1      15.505  25.380  78.577  1.00  0.00     0.192 A 
HETATM    6  N2  UNL     1      14.823  25.558  79.722  1.00  0.00    -0.171 N 
HETATM    7  C1  UNL     1      14.946  24.764  80.793  1.00  0.00     0.678 A 
ATOM      8  H2  UNL     1      14.174  26.344  79.778  1.00  0.00     0.186 HD
HETATM    9  N1  UNL     1      14.276  24.961  81.880  1.00  0.00    -0.234 N 
HETATM   10  N8  UNL     1      15.801  23.735  80.713  1.00  0.00    -0.188 N 
ATOM     11  H12 UNL     1      13.626  25.744  81.941  1.00  0.00     0.174 HD
ATOM     12  H11 UNL     1      14.369  24.357  82.696  1.00  0.00     0.174 HD
HETATM   13  C8  UNL     1      16.489  23.550  79.569  1.00  0.00     0.199 A 
ATOM     14  H8  UNL     1      15.928  23.103  81.503  1.00  0.00     0.185 HD
HETATM   15  N7  UNL     1      16.360  24.349  78.501  1.00  0.00    -0.333 N 
ATOM     16  H7  UNL     1      16.898  24.178  77.652  1.00  0.00     0.168 HD
ENDBRANCH   1   5
BRANCH   3  17
HETATM   17  N4  UNL     1      13.845  27.767  76.152  1.00  0.00    -0.308 N 
HETATM   18  C4  UNL     1      13.263  27.310  75.086  1.00  0.00     0.121 C 
ATOM     19  H4  UNL     1      14.143  28.741  76.209  1.00  0.00     0.186 HD
BRANCH  18  20
HETATM   20  C5  UNL     1      13.023  28.186  73.944  1.00  0.00     0.014 A 
HETATM   21  C6  UNL     1      11.817  28.501  73.357  1.00  0.00     0.121 A 
HETATM   22  N5  UNL     1      12.064  29.338  72.341  1.00  0.00    -0.311 N 
HETATM   23  N6  UNL     1      13.358  29.590  72.224  1.00  0.00    -0.311 N 
ATOM     24  H5  UNL     1      11.346  29.731  71.733  1.00  0.00     0.186 HD
HETATM   25  C7  UNL     1      13.966  28.892  73.200  1.00  0.00     0.121 A 
ATOM     26  H6  UNL     1      13.804  30.193  71.533  1.00  0.00     0.186 HD
ENDBRANCH  18  20
ENDBRANCH   3  17
TORSDOF 3
ENDMDL
MODEL 4
REMARK VINA RESULT: -6.856461446      1.783      2.210
REMARK  3 active torsions:
REMARK  status: ('A' for Active; 'I' for Inactive)
REMARK    1  A    between atoms: C2_7  and  C3_8 
REMARK       I    between atoms: C3_8  and  N3_10 
REMARK    2  A    between atoms: N3_10  and  N4_12 
REMARK    3  A    between atoms: C4_14  and  C5_15 
ROOT
HETATM    1  C3  UNL     1      14.231  26.867  76.437  1.00  0.00     0.304 C 
HETATM    2  O1  UNL     1      15.226  27.235  75.772  1.00  0.00    -0.263 OA
HETATM    3  N3  UNL     1      14.362  26.134  77.642  1.00  0.00    -0.264 N 
ATOM      4  H3  UNL     1      13.520  25.856  78.146  1.00  0.00     0.190 HD
ENDROOT
BRANCH   1   5
HETATM    5  C2  UNL     1      12.907  27.230  75.909  1.00  0.00     0.192 A 
HETATM    6  N2  UNL     1      11.897  27.514  76.751  1.00  0.00    -0.171 N 
HETATM    7  C1  UNL     1      10.666  27.852  76.350  1.00  0.00     0.678 A 
ATOM      8  H2  UNL     1      12.081  27.468  77.754  1.00  0.00     0.186 HD
HETATM    9  N1  UNL     1       9.716  28.119  77.184  1.00  0.00    -0.234 N 
HETATM   10  N8  UNL     1      10.432  27.908  75.031  1.00  0.00    -0.188 N 
ATOM     11  H12 UNL     1       9.893  28.076  78.187  1.00  0.00     0.174 HD
ATOM     12  H11 UNL     1       8.778  28.377  76.878  1.00  0.00     0.174 HD
HETATM   13  C8  UNL     1      11.438  27.625  74.180  1.00  0.00     0.199 A 
ATOM     14  H8  UNL     1       9.509  28.162  74.678  1.00  0.00     0.185 HD
HETATM   15  N7  UNL     1      12.669  27.287  74.591  1.00  0.00    -0.333 N 
ATOM     16  H7  UNL     1      13.406  27.078  73.917  1.00  0.00     0.168 HD
ENDBRANCH   1   5
BRANCH   3  17
HETATM   17  N4  UNL     1      15.593  25.784  78.153  1.00  0.00    -0.308 N 
HETATM   18  C4  UNL     1      15.870  24.522  78.276  1.00  0.00     0.121 C 
ATOM     19  H4  UNL     1      16.268  26.498  78.426  1.00  0.00     0.186 HD
BRANCH  18  20
HETATM   20  C5  UNL     1      17.160  24.100  78.812  1.00  0.00     0.014 A 
HETATM   21  C6  UNL     1      17.946  24.750  79.737  1.00  0.00     0.121 A 
HETATM   22  N5  UNL     1      19.041  24.006  79.938  1.00  0.00    -0.311 N 
HETATM   23  N6  UNL     1      19.022  22.907  79.200  1.00  0.00    -0.311 N 
ATOM     24  H5  UNL     1      19.795  24.254  80.578  1.00  0.00     0.186 HD
HETATM   25  C7  UNL     1      17.873  22.945  78.500  1.00  0.00     0.121 A 
ATOM     26  H6  UNL     1      19.735  22.178  79.169  1.00  0.00     0.186 HD
ENDBRANCH  18  20
ENDBRANCH   3  17
TORSDOF 3
ENDMDL
MODEL 5
REMARK VINA RESULT: -6.775321982      2.507      2.616
REMARK  3 active torsions:
REMARK  status: ('A' for Active; 'I' for Inactive)
REMARK    1  A    between atoms: C2_7  and  C3_8 
REMARK       I    between atoms: C3_8  and  N3_10 
REMARK    2  A    between atoms: N3_10  and  N4_12 
REMARK    3  A    between atoms: C4_14  and  C5_15 
ROOT
HETATM    1  C3  UNL     1      14.455  28.423  75.844  1.00  0.00     0.304 C 
HETATM    2  O1  UNL     1      14.751  29.286  76.702  1.00  0.00    -0.263 OA
HETATM    3  N3  UNL     1      15.444  27.686  75.149  1.00  0.00    -0.264 N 
ATOM      4  H3  UNL     1      15.152  26.994  74.458  1.00  0.00     0.190 HD
ENDROOT
BRANCH   1   5
HETATM    5  C2  UNL     1      13.024  28.206  75.584  1.00  0.00     0.192 A 
HETATM    6  N2  UNL     1      12.161  28.083  76.608  1.00  0.00    -0.171 N 
HETATM    7  C1  UNL     1      10.846  27.884  76.454  1.00  0.00     0.678 A 
ATOM      8  H2  UNL     1      12.530  28.144  77.558  1.00  0.00     0.186 HD
HETATM    9  N1  UNL     1      10.042  27.769  77.459  1.00  0.00    -0.234 N 
HETATM   10  N8  UNL     1      10.369  27.803  75.204  1.00  0.00    -0.188 N 
ATOM     11  H12 UNL     1      10.405  27.831  78.410  1.00  0.00     0.174 HD
ATOM     12  H11 UNL     1       9.040  27.618  77.342  1.00  0.00     0.174 HD
HETATM   13  C8  UNL     1      11.226  27.924  74.172  1.00  0.00     0.199 A 
ATOM     14  H8  UNL     1       9.374  27.652  75.038  1.00  0.00     0.185 HD
HETATM   15  N7  UNL     1      12.542  28.124  74.335  1.00  0.00    -0.333 N 
ATOM     16  H7  UNL     1      13.161  28.211  73.529  1.00  0.00     0.168 HD
ENDBRANCH   1   5
BRANCH   3  17
HETATM   17  N4  UNL     1      16.790  27.874  75.377  1.00  0.00    -0.308 N 
HETATM   18  C4  UNL     1      17.377  27.111  76.247  1.00  0.00     0.121 C 
ATOM     19  H4  UNL     1      17.310  28.594  74.876  1.00  0.00     0.186 HD
BRANCH  18  20
HETATM   20  C5  UNL     1      18.800  27.271  76.526  1.00  0.00     0.014 A 
HETATM   21  C6  UNL     1      19.496  26.861  77.642  1.00  0.00     0.121 A 
HETATM   22  N5  UNL     1      20.778  27.212  77.475  1.00  0.00    -0.311 N 
HETATM   23  N6  UNL     1      20.966  27.828  76.319  1.00  0.00    -0.311 N 
ATOM     24  H5  UNL     1      21.516  27.028  78.154  1.00  0.00     0.186 HD
HETATM   25  C7  UNL     1      19.762  27.875  75.719  1.00  0.00     0.121 A 
ATOM     26  H6  UNL     1      21.846  28.193  75.956  1.00  0.00     0.186 HD
ENDBRANCH  18  20
ENDBRANCH   3  17
TORSDOF 3
ENDMDL
