MODEL 1
REMARK VINA RESULT: -6.888108709      0.000      0.000
REMARK  2 active torsions:
REMARK  status: ('A' for Active; 'I' for Inactive)
REMARK    1  A    between atoms: O1_2  and  N1_3 
REMARK       I    between atoms: N1_3  and  C2_5 
REMARK    2  A    between atoms: C2_5  and  C3_7 
ROOT
HETATM    1  C3  UNL     1      19.292  14.121  27.908  1.00  0.00     0.147 A 
HETATM    2  N2  UNL     1      19.972  13.908  26.796  1.00  0.00    -0.292 N 
ATOM      3  H2  UNL     1      20.681  14.592  26.534  1.00  0.00     0.187 HD
HETATM    4  N3  UNL     1      19.794  12.866  25.998  1.00  0.00    -0.283 N 
ATOM      5  H3  UNL     1      20.359  12.770  25.154  1.00  0.00     0.188 HD
HETATM    6  C4  UNL     1      18.868  11.929  26.299  1.00  0.00     0.145 A 
HETATM    7  N4  UNL     1      18.651  10.888  25.577  1.00  0.00    -0.382 N 
ATOM      8  H41 UNL     1      17.952  10.181  25.803  1.00  0.00     0.157 HD
ATOM      9  H42 UNL     1      19.202  10.765  24.728  1.00  0.00     0.157 HD
HETATM   10  C5  UNL     1      18.123  12.095  27.446  1.00  0.00     0.132 A 
HETATM   11  C6  UNL     1      18.321  13.188  28.266  1.00  0.00     0.101 A 
HETATM   12  N5  UNL     1      17.471  13.090  29.296  1.00  0.00    -0.334 N 
ATOM     13  H5  UNL     1      17.375  13.745  30.072  1.00  0.00     0.168 HD
HETATM   14  C7  UNL     1      16.754  11.941  29.104  1.00  0.00     0.172 A 
HETATM   15  C8  UNL     1      15.763  11.356  29.859  1.00  0.00     0.148 A 
HETATM   16  N6  UNL     1      15.335  11.902  30.940  1.00  0.00    -0.382 N 
ATOM     17  H61 UNL     1      14.601  11.469  31.499  1.00  0.00     0.157 HD
ATOM     18  H62 UNL     1      15.729  12.782  31.271  1.00  0.00     0.157 HD
HETATM   19  N7  UNL     1      15.239  10.188  29.420  1.00  0.00    -0.330 N 
HETATM   20  C9  UNL     1      14.179   9.561  30.225  1.00  0.00     0.158 C 
HETATM   21  C10 UNL     1      15.643   9.584  28.292  1.00  0.00     0.201 A 
HETATM   22  N8  UNL     1      16.612  10.181  27.576  1.00  0.00    -0.287 N 
ATOM     23  H8  UNL     1      16.938   9.745  26.714  1.00  0.00     0.188 HD
HETATM   24  N9  UNL     1      17.156  11.333  27.974  1.00  0.00    -0.229 N 
ENDROOT
BRANCH   1  25
HETATM   25  C2  UNL     1      19.512  15.259  28.816  1.00  0.00     0.295 C 
HETATM   26  N1  UNL     1      18.634  16.356  28.761  1.00  0.00    -0.230 N 
ATOM     27  H1  UNL     1      17.873  16.291  28.084  1.00  0.00     0.197 HD
HETATM   28  O2  UNL     1      20.475  15.254  29.626  1.00  0.00    -0.264 OA
BRANCH  26  29
HETATM   29  O1  UNL     1      18.681  17.473  29.492  1.00  0.00    -0.282 OA
HETATM   30  C1  UNL     1      18.283  18.574  28.790  1.00  0.00     0.237 C 
ENDBRANCH  26  29
ENDBRANCH   1  25
TORSDOF 2
ENDMDL
MODEL 2
REMARK VINA RESULT: -6.792045852      1.301      1.803
REMARK  2 active torsions:
REMARK  status: ('A' for Active; 'I' for Inactive)
REMARK    1  A    between atoms: O1_2  and  N1_3 
REMARK       I    between atoms: N1_3  and  C2_5 
REMARK    2  A    between atoms: C2_5  and  C3_7 
ROOT
HETATM    1  C3  UNL     1      19.772  13.866  27.964  1.00  0.00     0.147 A 
HETATM    2  N2  UNL     1      20.419  13.669  26.829  1.00  0.00    -0.292 N 
ATOM      3  H2  UNL     1      21.215  14.273  26.624  1.00  0.00     0.187 HD
HETATM    4  N3  UNL     1      20.103  12.740  25.940  1.00  0.00    -0.283 N 
ATOM      5  H3  UNL     1      20.651  12.649  25.084  1.00  0.00     0.188 HD
HETATM    6  C4  UNL     1      19.058  11.912  26.162  1.00  0.00     0.145 A 
HETATM    7  N4  UNL     1      18.704  10.982  25.349  1.00  0.00    -0.382 N 
ATOM      8  H41 UNL     1      17.915  10.357  25.516  1.00  0.00     0.157 HD
ATOM      9  H42 UNL     1      19.234  10.867  24.486  1.00  0.00     0.157 HD
HETATM   10  C5  UNL     1      18.341  12.068  27.328  1.00  0.00     0.132 A 
HETATM   11  C6  UNL     1      18.684  13.042  28.245  1.00  0.00     0.101 A 
HETATM   12  N5  UNL     1      17.827  12.963  29.270  1.00  0.00    -0.334 N 
ATOM     13  H5  UNL     1      17.820  13.549  30.105  1.00  0.00     0.168 HD
HETATM   14  C7  UNL     1      16.962  11.944  28.981  1.00  0.00     0.172 A 
HETATM   15  C8  UNL     1      15.900  11.430  29.689  1.00  0.00     0.148 A 
HETATM   16  N6  UNL     1      15.549  11.925  30.821  1.00  0.00    -0.382 N 
ATOM     17  H61 UNL     1      14.762  11.543  31.346  1.00  0.00     0.157 HD
ATOM     18  H62 UNL     1      16.058  12.709  31.228  1.00  0.00     0.157 HD
HETATM   19  N7  UNL     1      15.224  10.390  29.149  1.00  0.00    -0.330 N 
HETATM   20  C9  UNL     1      14.088   9.838  29.904  1.00  0.00     0.158 C 
HETATM   21  C10 UNL     1      15.543   9.845  27.965  1.00  0.00     0.201 A 
HETATM   22  N8  UNL     1      16.586  10.371  27.297  1.00  0.00    -0.287 N 
ATOM     23  H8  UNL     1      16.851   9.978  26.394  1.00  0.00     0.188 HD
HETATM   24  N9  UNL     1      17.279  11.397  27.794  1.00  0.00    -0.229 N 
ENDROOT
BRANCH   1  25
HETATM   25  C2  UNL     1      20.144  14.874  28.971  1.00  0.00     0.295 C 
HETATM   26  N1  UNL     1      21.403  14.787  29.591  1.00  0.00    -0.230 N 
ATOM     27  H1  UNL     1      22.001  14.017  29.292  1.00  0.00     0.197 HD
HETATM   28  O2  UNL     1      19.345  15.797  29.277  1.00  0.00    -0.264 OA
BRANCH  26  29
HETATM   29  O1  UNL     1      21.906  15.598  30.527  1.00  0.00    -0.282 OA
HETATM   30  C1  UNL     1      23.250  15.426  30.697  1.00  0.00     0.237 C 
ENDBRANCH  26  29
ENDBRANCH   1  25
TORSDOF 2
ENDMDL
MODEL 3
REMARK VINA RESULT: -6.707744652      3.376      5.858
REMARK  2 active torsions:
REMARK  status: ('A' for Active; 'I' for Inactive)
REMARK    1  A    between atoms: O1_2  and  N1_3 
REMARK       I    between atoms: N1_3  and  C2_5 
REMARK    2  A    between atoms: C2_5  and  C3_7 
ROOT
HETATM    1  C3  UNL     1      18.877  11.994  27.047  1.00  0.00     0.147 A 
HETATM    2  N2  UNL     1      18.989  12.529  25.843  1.00  0.00    -0.292 N 
ATOM      3  H2  UNL     1      18.395  12.159  25.102  1.00  0.00     0.187 HD
HETATM    4  N3  UNL     1      19.822  13.511  25.536  1.00  0.00    -0.283 N 
ATOM      5  H3  UNL     1      19.853  13.872  24.582  1.00  0.00     0.188 HD
HETATM    6  C4  UNL     1      20.632  14.038  26.481  1.00  0.00     0.145 A 
HETATM    7  N4  UNL     1      21.454  15.000  26.257  1.00  0.00    -0.382 N 
ATOM      8  H41 UNL     1      22.066  15.397  26.970  1.00  0.00     0.157 HD
ATOM      9  H42 UNL     1      21.505  15.381  25.312  1.00  0.00     0.157 HD
HETATM   10  C5  UNL     1      20.564  13.523  27.757  1.00  0.00     0.132 A 
HETATM   11  C6  UNL     1      19.690  12.497  28.061  1.00  0.00     0.101 A 
HETATM   12  N5  UNL     1      19.835  12.202  29.358  1.00  0.00    -0.334 N 
ATOM     13  H5  UNL     1      19.328  11.488  29.881  1.00  0.00     0.168 HD
HETATM   14  C7  UNL     1      20.797  13.043  29.846  1.00  0.00     0.172 A 
HETATM   15  C8  UNL     1      21.324  13.178  31.110  1.00  0.00     0.148 A 
HETATM   16  N6  UNL     1      20.945  12.423  32.077  1.00  0.00    -0.382 N 
ATOM     17  H61 UNL     1      21.335  12.523  33.014  1.00  0.00     0.157 HD
ATOM     18  H62 UNL     1      20.232  11.708  31.933  1.00  0.00     0.157 HD
HETATM   19  N7  UNL     1      22.270  14.126  31.303  1.00  0.00    -0.330 N 
HETATM   20  C9  UNL     1      22.836  14.272  32.653  1.00  0.00     0.158 C 
HETATM   21  C10 UNL     1      22.709  14.931  30.324  1.00  0.00     0.201 A 
HETATM   22  N8  UNL     1      22.175  14.774  29.100  1.00  0.00    -0.287 N 
ATOM     23  H8  UNL     1      22.490  15.371  28.335  1.00  0.00     0.188 HD
HETATM   24  N9  UNL     1      21.240  13.851  28.867  1.00  0.00    -0.229 N 
ENDROOT
BRANCH   1  25
HETATM   25  C2  UNL     1      17.926  10.927  27.399  1.00  0.00     0.295 C 
HETATM   26  N1  UNL     1      16.582  11.054  27.007  1.00  0.00    -0.230 N 
ATOM     27  H1  UNL     1      16.342  11.895  26.481  1.00  0.00     0.197 HD
HETATM   28  O2  UNL     1      18.309   9.918  28.046  1.00  0.00    -0.264 OA
BRANCH  26  29
HETATM   29  O1  UNL     1      15.582  10.200  27.243  1.00  0.00    -0.282 OA
HETATM   30  C1  UNL     1      14.357  10.753  27.007  1.00  0.00     0.237 C 
ENDBRANCH  26  29
ENDBRANCH   1  25
TORSDOF 2
ENDMDL
MODEL 4
REMARK VINA RESULT: -6.475305736      2.686      3.918
REMARK  2 active torsions:
REMARK  status: ('A' for Active; 'I' for Inactive)
REMARK    1  A    between atoms: O1_2  and  N1_3 
REMARK       I    between atoms: N1_3  and  C2_5 
REMARK    2  A    between atoms: C2_5  and  C3_7 
ROOT
HETATM    1  C3  UNL     1      17.911  11.709  27.535  1.00  0.00     0.147 A 
HETATM    2  N2  UNL     1      18.723  10.877  28.163  1.00  0.00    -0.292 N 
ATOM      3  H2  UNL     1      19.713  11.118  28.203  1.00  0.00     0.187 HD
HETATM    4  N3  UNL     1      18.337   9.752  28.745  1.00  0.00    -0.283 N 
ATOM      5  H3  UNL     1      19.025   9.159  29.212  1.00  0.00     0.188 HD
HETATM    6  C4  UNL     1      17.037   9.385  28.724  1.00  0.00     0.145 A 
HETATM    7  N4  UNL     1      16.592   8.314  29.277  1.00  0.00    -0.382 N 
ATOM      8  H41 UNL     1      15.610   8.036  29.261  1.00  0.00     0.157 HD
ATOM      9  H42 UNL     1      17.256   7.704  29.752  1.00  0.00     0.157 HD
HETATM   10  C5  UNL     1      16.139  10.209  28.082  1.00  0.00     0.132 A 
HETATM   11  C6  UNL     1      16.558  11.379  27.479  1.00  0.00     0.101 A 
HETATM   12  N5  UNL     1      15.485  11.973  26.941  1.00  0.00    -0.334 N 
ATOM     13  H5  UNL     1      15.470  12.854  26.429  1.00  0.00     0.168 HD
HETATM   14  C7  UNL     1      14.414  11.167  27.213  1.00  0.00     0.172 A 
HETATM   15  C8  UNL     1      13.079  11.303  26.906  1.00  0.00     0.148 A 
HETATM   16  N6  UNL     1      12.647  12.306  26.230  1.00  0.00    -0.382 N 
ATOM     17  H61 UNL     1      11.658  12.406  26.003  1.00  0.00     0.157 HD
ATOM     18  H62 UNL     1      13.285  13.035  25.913  1.00  0.00     0.157 HD
HETATM   19  N7  UNL     1      12.232  10.336  27.328  1.00  0.00    -0.330 N 
HETATM   20  C9  UNL     1      10.805  10.478  27.000  1.00  0.00     0.158 C 
HETATM   21  C10 UNL     1      12.635   9.263  28.025  1.00  0.00     0.201 A 
HETATM   22  N8  UNL     1      13.946   9.159  28.309  1.00  0.00    -0.287 N 
ATOM     23  H8  UNL     1      14.281   8.353  28.837  1.00  0.00     0.188 HD
HETATM   24  N9  UNL     1      14.815  10.090  27.912  1.00  0.00    -0.229 N 
ENDROOT
BRANCH   1  25
HETATM   25  C2  UNL     1      18.331  12.978  26.919  1.00  0.00     0.295 C 
HETATM   26  N1  UNL     1      19.650  13.105  26.449  1.00  0.00    -0.230 N 
ATOM     27  H1  UNL     1      20.248  12.286  26.558  1.00  0.00     0.197 HD
HETATM   28  O2  UNL     1      17.523  13.938  26.819  1.00  0.00    -0.264 OA
BRANCH  26  29
HETATM   29  O1  UNL     1      20.209  14.174  25.875  1.00  0.00    -0.282 OA
HETATM   30  C1  UNL     1      21.239  14.682  26.613  1.00  0.00     0.237 C 
ENDBRANCH  26  29
ENDBRANCH   1  25
TORSDOF 2
ENDMDL
MODEL 5
REMARK VINA RESULT: -6.410062963      2.198      2.590
REMARK  2 active torsions:
REMARK  status: ('A' for Active; 'I' for Inactive)
REMARK    1  A    between atoms: O1_2  and  N1_3 
REMARK       I    between atoms: N1_3  and  C2_5 
REMARK    2  A    between atoms: C2_5  and  C3_7 
ROOT
HETATM    1  C3  UNL     1      20.772  14.025  28.901  1.00  0.00     0.147 A 
HETATM    2  N2  UNL     1      21.324  14.387  27.757  1.00  0.00    -0.292 N 
ATOM      3  H2  UNL     1      22.216  14.881  27.794  1.00  0.00     0.187 HD
HETATM    4  N3  UNL     1      20.798  14.153  26.565  1.00  0.00    -0.283 N 
ATOM      5  H3  UNL     1      21.284  14.464  25.724  1.00  0.00     0.188 HD
HETATM    6  C4  UNL     1      19.618  13.502  26.457  1.00  0.00     0.145 A 
HETATM    7  N4  UNL     1      19.056  13.230  25.334  1.00  0.00    -0.382 N 
ATOM      8  H41 UNL     1      18.166  12.740  25.253  1.00  0.00     0.157 HD
ATOM      9  H42 UNL     1      19.521  13.529  24.477  1.00  0.00     0.157 HD
HETATM   10  C5  UNL     1      18.989  13.099  27.616  1.00  0.00     0.132 A 
HETATM   11  C6  UNL     1      19.552  13.353  28.851  1.00  0.00     0.101 A 
HETATM   12  N5  UNL     1      18.735  12.854  29.787  1.00  0.00    -0.334 N 
ATOM     13  H5  UNL     1      18.875  12.883  30.796  1.00  0.00     0.168 HD
HETATM   14  C7  UNL     1      17.675  12.299  29.125  1.00  0.00     0.172 A 
HETATM   15  C8  UNL     1      16.558  11.644  29.593  1.00  0.00     0.148 A 
HETATM   16  N6  UNL     1      16.354  11.486  30.851  1.00  0.00    -0.382 N 
ATOM     17  H61 UNL     1      15.527  11.001  31.198  1.00  0.00     0.157 HD
ATOM     18  H62 UNL     1      17.023  11.835  31.536  1.00  0.00     0.157 HD
HETATM   19  N7  UNL     1      15.670  11.180  28.684  1.00  0.00    -0.330 N 
HETATM   20  C9  UNL     1      14.475  10.480  29.182  1.00  0.00     0.158 C 
HETATM   21  C10 UNL     1      15.831  11.330  27.361  1.00  0.00     0.201 A 
HETATM   22  N8  UNL     1      16.932  11.975  26.935  1.00  0.00    -0.287 N 
ATOM     23  H8  UNL     1      17.080  12.105  25.934  1.00  0.00     0.188 HD
HETATM   24  N9  UNL     1      17.833  12.448  27.797  1.00  0.00    -0.229 N 
ENDROOT
BRANCH   1  25
HETATM   25  C2  UNL     1      21.373  14.253  30.226  1.00  0.00     0.295 C 
HETATM   26  N1  UNL     1      22.014  15.478  30.483  1.00  0.00    -0.230 N 
ATOM     27  H1  UNL     1      22.016  16.155  29.720  1.00  0.00     0.197 HD
HETATM   28  O2  UNL     1      21.318  13.363  31.114  1.00  0.00    -0.264 OA
BRANCH  26  29
HETATM   29  O1  UNL     1      22.619  15.857  31.612  1.00  0.00    -0.282 OA
HETATM   30  C1  UNL     1      23.864  15.313  31.743  1.00  0.00     0.237 C 
ENDBRANCH  26  29
ENDBRANCH   1  25
TORSDOF 2
ENDMDL
