MODEL 1
REMARK VINA RESULT: -5.512725041      0.000      0.000
REMARK  8 active torsions:
REMARK  status: ('A' for Active; 'I' for Inactive)
REMARK    1  A    between atoms: C2_4  and  N3_5 
REMARK    2  A    between atoms: N3_5  and  N4_6 
REMARK    3  A    between atoms: N3_5  and  O1_9 
REMARK    4  A    between atoms: C5_13  and  N5_14 
REMARK    5  A    between atoms: C6_19  and  C7_20 
REMARK    6  A    between atoms: C7_20  and  O3_22 
REMARK    7  A    between atoms: O3_22  and  N7_23 
REMARK    8  A    between atoms: N8_26  and  O4_27 
ROOT
HETATM    1  N1  UNL     1      16.836  14.453  26.760  1.00  0.00    -0.171 NA
HETATM    2  C1  UNL     1      16.836  13.366  27.175  1.00  0.00     0.192 C 
HETATM    3  N2  UNL     1      16.856  12.073  27.683  1.00  0.00    -0.211 N 
HETATM    4  C2  UNL     1      17.871  11.548  28.398  1.00  0.00     0.169 A 
HETATM    5  C3  UNL     1      17.539  10.242  28.734  1.00  0.00     0.073 A 
HETATM    6  C4  UNL     1      16.295  10.014  28.194  1.00  0.00     0.059 A 
HETATM    7  C5  UNL     1      15.445   8.926  28.184  1.00  0.00     0.115 A 
HETATM    8  N6  UNL     1      14.272   8.987  27.569  1.00  0.00    -0.321 N 
ATOM      9  H6  UNL     1      13.668   8.165  27.581  1.00  0.00     0.169 HD
HETATM   10  C6  UNL     1      13.848  10.095  26.927  1.00  0.00     0.214 A 
HETATM   11  N8  UNL     1      14.667  11.159  26.931  1.00  0.00    -0.183 N 
HETATM   12  C8  UNL     1      15.869  11.151  27.541  1.00  0.00     0.167 A 
ENDROOT
BRANCH   4  13
HETATM   13  N3  UNL     1      19.068  12.202  28.751  1.00  0.00    -0.152 N 
BRANCH  13  14
HETATM   14  N4  UNL     1      19.131  13.026  29.877  1.00  0.00    -0.317 N 
ATOM     15  H42 UNL     1      19.838  12.824  30.583  1.00  0.00     0.179 HD
ATOM     16  H41 UNL     1      18.486  13.809  29.990  1.00  0.00     0.179 HD
ENDBRANCH  13  14
BRANCH  13  17
HETATM   17  O1  UNL     1      20.098  12.062  28.070  1.00  0.00    -0.267 OA
ATOM     18  H1  UNL     1      20.099  12.255  27.140  1.00  0.00     0.247 HD
ENDBRANCH  13  17
ENDBRANCH   4  13
BRANCH  11  19
HETATM   19  O4  UNL     1      14.289  12.304  26.299  1.00  0.00    -0.279 OA
ATOM     20  H4  UNL     1      14.541  13.146  26.659  1.00  0.00     0.245 HD
ENDBRANCH  11  19
BRANCH   7  21
HETATM   21  N5  UNL     1      15.786   7.838  28.775  1.00  0.00    -0.385 N 
ATOM     22  H52 UNL     1      15.592   6.944  28.324  1.00  0.00     0.157 HD
ATOM     23  H51 UNL     1      16.246   7.875  29.684  1.00  0.00     0.157 HD
ENDBRANCH   7  21
BRANCH  10  24
HETATM   24  C7  UNL     1      12.545  10.110  26.264  1.00  0.00     0.351 C 
HETATM   25  O2  UNL     1      12.435   9.440  25.206  1.00  0.00    -0.254 OA
BRANCH  24  26
HETATM   26  O3  UNL     1      11.465  10.804  26.732  1.00  0.00    -0.200 OA
BRANCH  26  27
HETATM   27  N7  UNL     1      11.435  12.171  26.922  1.00  0.00    -0.302 N 
ATOM     28  H72 UNL     1      12.270  12.594  27.327  1.00  0.00     0.184 HD
ATOM     29  H71 UNL     1      10.645  12.770  26.686  1.00  0.00     0.184 HD
ENDBRANCH  26  27
ENDBRANCH  24  26
ENDBRANCH  10  24
TORSDOF 8
ENDMDL
MODEL 2
REMARK VINA RESULT: -5.493489702      3.482      5.826
REMARK  8 active torsions:
REMARK  status: ('A' for Active; 'I' for Inactive)
REMARK    1  A    between atoms: C2_4  and  N3_5 
REMARK    2  A    between atoms: N3_5  and  N4_6 
REMARK    3  A    between atoms: N3_5  and  O1_9 
REMARK    4  A    between atoms: C5_13  and  N5_14 
REMARK    5  A    between atoms: C6_19  and  C7_20 
REMARK    6  A    between atoms: C7_20  and  O3_22 
REMARK    7  A    between atoms: O3_22  and  N7_23 
REMARK    8  A    between atoms: N8_26  and  O4_27 
ROOT
HETATM    1  N1  UNL     1      18.811  11.167  32.599  1.00  0.00    -0.171 NA
HETATM    2  C1  UNL     1      19.414  11.774  31.811  1.00  0.00     0.192 C 
HETATM    3  N2  UNL     1      20.156  12.494  30.881  1.00  0.00    -0.211 N 
HETATM    4  C2  UNL     1      21.456  12.819  31.027  1.00  0.00     0.169 A 
HETATM    5  C3  UNL     1      21.856  13.534  29.905  1.00  0.00     0.073 A 
HETATM    6  C4  UNL     1      20.749  13.620  29.094  1.00  0.00     0.059 A 
HETATM    7  C5  UNL     1      20.512  14.197  27.862  1.00  0.00     0.115 A 
HETATM    8  N6  UNL     1      19.315  14.125  27.298  1.00  0.00    -0.321 N 
ATOM      9  H6  UNL     1      19.175  14.562  26.387  1.00  0.00     0.169 HD
HETATM   10  C6  UNL     1      18.276  13.496  27.883  1.00  0.00     0.214 A 
HETATM   11  N8  UNL     1      18.495  12.930  29.081  1.00  0.00    -0.183 N 
HETATM   12  C8  UNL     1      19.692  12.974  29.699  1.00  0.00     0.167 A 
ENDROOT
BRANCH   4  13
HETATM   13  N3  UNL     1      22.279  12.493  32.124  1.00  0.00    -0.152 N 
BRANCH  13  14
HETATM   14  N4  UNL     1      23.046  11.325  32.124  1.00  0.00    -0.317 N 
ATOM     15  H42 UNL     1      23.250  10.883  31.228  1.00  0.00     0.179 HD
ATOM     16  H41 UNL     1      23.392  10.926  32.997  1.00  0.00     0.179 HD
ENDBRANCH  13  14
BRANCH  13  17
HETATM   17  O1  UNL     1      22.344  13.237  33.117  1.00  0.00    -0.267 OA
ATOM     18  H1  UNL     1      22.813  12.969  33.898  1.00  0.00     0.247 HD
ENDBRANCH  13  17
ENDBRANCH   4  13
BRANCH  11  19
HETATM   19  O4  UNL     1      17.481  12.281  29.717  1.00  0.00    -0.279 OA
ATOM     20  H4  UNL     1      17.578  12.033  30.628  1.00  0.00     0.245 HD
ENDBRANCH  11  19
BRANCH   7  21
HETATM   21  N5  UNL     1      21.458  14.813  27.250  1.00  0.00    -0.385 N 
ATOM     22  H52 UNL     1      21.263  15.261  26.354  1.00  0.00     0.157 HD
ATOM     23  H51 UNL     1      22.391  14.852  27.659  1.00  0.00     0.157 HD
ENDBRANCH   7  21
BRANCH  10  24
HETATM   24  C7  UNL     1      16.975  13.445  27.218  1.00  0.00     0.351 C 
HETATM   25  O2  UNL     1      16.621  14.467  26.576  1.00  0.00    -0.254 OA
BRANCH  24  26
HETATM   26  O3  UNL     1      16.144  12.361  27.260  1.00  0.00    -0.200 OA
BRANCH  26  27
HETATM   27  N7  UNL     1      16.488  11.093  26.838  1.00  0.00    -0.302 N 
ATOM     28  H72 UNL     1      16.686  10.407  27.567  1.00  0.00     0.184 HD
ATOM     29  H71 UNL     1      16.556  10.807  25.862  1.00  0.00     0.184 HD
ENDBRANCH  26  27
ENDBRANCH  24  26
ENDBRANCH  10  24
TORSDOF 8
ENDMDL
MODEL 3
REMARK VINA RESULT: -5.434468017      3.789      7.912
REMARK  8 active torsions:
REMARK  status: ('A' for Active; 'I' for Inactive)
REMARK    1  A    between atoms: C2_4  and  N3_5 
REMARK    2  A    between atoms: N3_5  and  N4_6 
REMARK    3  A    between atoms: N3_5  and  O1_9 
REMARK    4  A    between atoms: C5_13  and  N5_14 
REMARK    5  A    between atoms: C6_19  and  C7_20 
REMARK    6  A    between atoms: C7_20  and  O3_22 
REMARK    7  A    between atoms: O3_22  and  N7_23 
REMARK    8  A    between atoms: N8_26  and  O4_27 
ROOT
HETATM    1  N1  UNL     1      18.468  10.761  31.203  1.00  0.00    -0.171 NA
HETATM    2  C1  UNL     1      18.778  11.280  30.209  1.00  0.00     0.192 C 
HETATM    3  N2  UNL     1      19.129  11.889  29.009  1.00  0.00    -0.211 N 
HETATM    4  C2  UNL     1      18.579  11.597  27.814  1.00  0.00     0.169 A 
HETATM    5  C3  UNL     1      19.176  12.400  26.851  1.00  0.00     0.073 A 
HETATM    6  C4  UNL     1      20.096  13.175  27.518  1.00  0.00     0.059 A 
HETATM    7  C5  UNL     1      20.988  14.151  27.119  1.00  0.00     0.115 A 
HETATM    8  N6  UNL     1      21.776  14.749  28.000  1.00  0.00    -0.321 N 
ATOM      9  H6  UNL     1      22.423  15.466  27.673  1.00  0.00     0.169 HD
HETATM   10  C6  UNL     1      21.756  14.445  29.314  1.00  0.00     0.214 A 
HETATM   11  N8  UNL     1      20.892  13.497  29.713  1.00  0.00    -0.183 N 
HETATM   12  C8  UNL     1      20.067  12.858  28.859  1.00  0.00     0.167 A 
ENDROOT
BRANCH   4  13
HETATM   13  N3  UNL     1      17.571  10.643  27.571  1.00  0.00    -0.152 N 
BRANCH  13  14
HETATM   14  N4  UNL     1      16.384  11.001  26.926  1.00  0.00    -0.317 N 
ATOM     15  H42 UNL     1      15.591  10.363  26.988  1.00  0.00     0.179 HD
ATOM     16  H41 UNL     1      16.314  11.877  26.408  1.00  0.00     0.179 HD
ENDBRANCH  13  14
BRANCH  13  17
HETATM   17  O1  UNL     1      17.712   9.459  27.922  1.00  0.00    -0.267 OA
ATOM     18  H1  UNL     1      17.118   8.784  27.616  1.00  0.00     0.247 HD
ENDBRANCH  13  17
ENDBRANCH   4  13
BRANCH  11  19
HETATM   19  O4  UNL     1      20.829  13.152  31.028  1.00  0.00    -0.279 OA
ATOM     20  H4  UNL     1      21.571  12.726  31.439  1.00  0.00     0.245 HD
ENDBRANCH  11  19
BRANCH   7  21
HETATM   21  N5  UNL     1      21.060  14.489  25.882  1.00  0.00    -0.385 N 
ATOM     22  H52 UNL     1      20.260  14.946  25.443  1.00  0.00     0.157 HD
ATOM     23  H51 UNL     1      21.909  14.299  25.350  1.00  0.00     0.157 HD
ENDBRANCH   7  21
BRANCH  10  24
HETATM   24  C7  UNL     1      22.647  15.136  30.245  1.00  0.00     0.351 C 
HETATM   25  O2  UNL     1      23.864  15.196  29.932  1.00  0.00    -0.254 OA
BRANCH  24  26
HETATM   26  O3  UNL     1      22.228  15.706  31.414  1.00  0.00    -0.200 OA
BRANCH  26  27
HETATM   27  N7  UNL     1      22.653  15.322  32.669  1.00  0.00    -0.302 N 
ATOM     28  H72 UNL     1      22.791  14.323  32.819  1.00  0.00     0.184 HD
ATOM     29  H71 UNL     1      22.833  15.964  33.440  1.00  0.00     0.184 HD
ENDBRANCH  26  27
ENDBRANCH  24  26
ENDBRANCH  10  24
TORSDOF 8
ENDMDL
MODEL 4
REMARK VINA RESULT: -5.408913303      2.008      5.659
REMARK  8 active torsions:
REMARK  status: ('A' for Active; 'I' for Inactive)
REMARK    1  A    between atoms: C2_4  and  N3_5 
REMARK    2  A    between atoms: N3_5  and  N4_6 
REMARK    3  A    between atoms: N3_5  and  O1_9 
REMARK    4  A    between atoms: C5_13  and  N5_14 
REMARK    5  A    between atoms: C6_19  and  C7_20 
REMARK    6  A    between atoms: C7_20  and  O3_22 
REMARK    7  A    between atoms: O3_22  and  N7_23 
REMARK    8  A    between atoms: N8_26  and  O4_27 
ROOT
HETATM    1  N1  UNL     1      13.399  12.318  26.310  1.00  0.00    -0.171 NA
HETATM    2  C1  UNL     1      14.269  11.726  26.807  1.00  0.00     0.192 C 
HETATM    3  N2  UNL     1      15.295  10.999  27.399  1.00  0.00    -0.211 N 
HETATM    4  C2  UNL     1      15.176   9.731  27.841  1.00  0.00     0.169 A 
HETATM    5  C3  UNL     1      16.399   9.336  28.368  1.00  0.00     0.073 A 
HETATM    6  C4  UNL     1      17.242  10.413  28.223  1.00  0.00     0.059 A 
HETATM    7  C5  UNL     1      18.565  10.639  28.548  1.00  0.00     0.115 A 
HETATM    8  N6  UNL     1      19.138  11.804  28.285  1.00  0.00    -0.321 N 
ATOM      9  H6  UNL     1      20.118  11.938  28.537  1.00  0.00     0.169 HD
HETATM   10  C6  UNL     1      18.476  12.821  27.697  1.00  0.00     0.214 A 
HETATM   11  N8  UNL     1      17.188  12.612  27.376  1.00  0.00    -0.183 N 
HETATM   12  C8  UNL     1      16.557  11.446  27.621  1.00  0.00     0.167 A 
ENDROOT
BRANCH   4  13
HETATM   13  N3  UNL     1      14.016   8.932  27.783  1.00  0.00    -0.152 N 
BRANCH  13  14
HETATM   14  N4  UNL     1      13.752   8.132  26.669  1.00  0.00    -0.317 N 
ATOM     15  H42 UNL     1      13.917   8.526  25.743  1.00  0.00     0.179 HD
ATOM     16  H41 UNL     1      13.402   7.180  26.779  1.00  0.00     0.179 HD
ENDBRANCH  13  14
BRANCH  13  17
HETATM   17  O1  UNL     1      13.201   8.920  28.721  1.00  0.00    -0.267 OA
ATOM     18  H1  UNL     1      13.435   8.555  29.566  1.00  0.00     0.247 HD
ENDBRANCH  13  17
ENDBRANCH   4  13
BRANCH  11  19
HETATM   19  O4  UNL     1      16.472  13.604  26.780  1.00  0.00    -0.279 OA
ATOM     20  H4  UNL     1      15.711  13.386  26.255  1.00  0.00     0.245 HD
ENDBRANCH  11  19
BRANCH   7  21
HETATM   21  N5  UNL     1      19.255   9.714  29.111  1.00  0.00    -0.385 N 
ATOM     22  H52 UNL     1      19.805   9.079  28.531  1.00  0.00     0.157 HD
ATOM     23  H51 UNL     1      19.248   9.619  30.126  1.00  0.00     0.157 HD
ENDBRANCH   7  21
BRANCH  10  24
HETATM   24  C7  UNL     1      19.155  14.088  27.429  1.00  0.00     0.351 C 
HETATM   25  O2  UNL     1      18.876  15.056  28.181  1.00  0.00    -0.254 OA
BRANCH  24  26
HETATM   26  O3  UNL     1      20.060  14.263  26.420  1.00  0.00    -0.200 OA
BRANCH  26  27
HETATM   27  N7  UNL     1      21.219  15.004  26.528  1.00  0.00    -0.302 N 
ATOM     28  H72 UNL     1      21.733  15.177  25.663  1.00  0.00     0.184 HD
ATOM     29  H71 UNL     1      21.587  15.380  27.401  1.00  0.00     0.184 HD
ENDBRANCH  26  27
ENDBRANCH  24  26
ENDBRANCH  10  24
TORSDOF 8
ENDMDL
MODEL 5
REMARK VINA RESULT: -5.388724058      2.947      7.038
REMARK  8 active torsions:
REMARK  status: ('A' for Active; 'I' for Inactive)
REMARK    1  A    between atoms: C2_4  and  N3_5 
REMARK    2  A    between atoms: N3_5  and  N4_6 
REMARK    3  A    between atoms: N3_5  and  O1_9 
REMARK    4  A    between atoms: C5_13  and  N5_14 
REMARK    5  A    between atoms: C6_19  and  C7_20 
REMARK    6  A    between atoms: C7_20  and  O3_22 
REMARK    7  A    between atoms: O3_22  and  N7_23 
REMARK    8  A    between atoms: N8_26  and  O4_27 
ROOT
HETATM    1  N1  UNL     1      16.997  14.556  26.601  1.00  0.00    -0.171 NA
HETATM    2  C1  UNL     1      17.420  13.779  27.355  1.00  0.00     0.192 C 
HETATM    3  N2  UNL     1      17.909  12.833  28.249  1.00  0.00    -0.211 N 
HETATM    4  C2  UNL     1      17.315  11.653  28.515  1.00  0.00     0.169 A 
HETATM    5  C3  UNL     1      18.086  10.976  29.451  1.00  0.00     0.073 A 
HETATM    6  C4  UNL     1      19.154  11.797  29.729  1.00  0.00     0.059 A 
HETATM    7  C5  UNL     1      20.249  11.687  30.564  1.00  0.00     0.115 A 
HETATM    8  N6  UNL     1      21.147  12.659  30.635  1.00  0.00    -0.321 N 
ATOM      9  H6  UNL     1      21.944  12.546  31.262  1.00  0.00     0.169 HD
HETATM   10  C6  UNL     1      21.048  13.791  29.909  1.00  0.00     0.214 A 
HETATM   11  N8  UNL     1      19.988  13.908  29.093  1.00  0.00    -0.183 N 
HETATM   12  C8  UNL     1      19.045  12.950  28.982  1.00  0.00     0.167 A 
ENDROOT
BRANCH   4  13
HETATM   13  N3  UNL     1      16.117  11.175  27.946  1.00  0.00    -0.152 N 
BRANCH  13  14
HETATM   14  N4  UNL     1      14.951  11.072  28.708  1.00  0.00    -0.317 N 
ATOM     15  H42 UNL     1      15.015  11.250  29.711  1.00  0.00     0.179 HD
ATOM     16  H41 UNL     1      14.061  10.826  28.274  1.00  0.00     0.179 HD
ENDBRANCH  13  14
BRANCH  13  17
HETATM   17  O1  UNL     1      16.068  10.835  26.751  1.00  0.00    -0.267 OA
ATOM     18  H1  UNL     1      16.855  10.799  26.221  1.00  0.00     0.247 HD
ENDBRANCH  13  17
ENDBRANCH   4  13
BRANCH  11  19
HETATM   19  O4  UNL     1      19.839  15.030  28.336  1.00  0.00    -0.279 OA
ATOM     20  H4  UNL     1      18.979  15.268  28.011  1.00  0.00     0.245 HD
ENDBRANCH  11  19
BRANCH   7  21
HETATM   21  N5  UNL     1      20.404  10.636  31.285  1.00  0.00    -0.385 N 
ATOM     22  H52 UNL     1      20.141  10.664  32.270  1.00  0.00     0.157 HD
ATOM     23  H51 UNL     1      20.786   9.786  30.871  1.00  0.00     0.157 HD
ENDBRANCH   7  21
BRANCH  10  24
HETATM   24  C7  UNL     1      22.068  14.833  30.024  1.00  0.00     0.351 C 
HETATM   25  O2  UNL     1      22.931  14.890  29.112  1.00  0.00    -0.254 OA
BRANCH  24  26
HETATM   26  O3  UNL     1      22.125  15.727  31.056  1.00  0.00    -0.200 OA
BRANCH  26  27
HETATM   27  N7  UNL     1      22.702  15.471  32.283  1.00  0.00    -0.302 N 
ATOM     28  H72 UNL     1      22.306  15.961  33.086  1.00  0.00     0.184 HD
ATOM     29  H71 UNL     1      23.484  14.835  32.433  1.00  0.00     0.184 HD
ENDBRANCH  26  27
ENDBRANCH  24  26
ENDBRANCH  10  24
TORSDOF 8
ENDMDL
