MODEL 1
REMARK VINA RESULT: -7.801046061      0.000      0.000
REMARK  10 active torsions:
REMARK  status: ('A' for Active; 'I' for Inactive)
REMARK    1  A    between atoms: C4_4  and  C5_5 
REMARK    2  A    between atoms: C5_5  and  O1_6 
REMARK    3  A    between atoms: C8_10  and  C9_11 
REMARK    4  A    between atoms: C9_11  and  C10_12 
REMARK    5  A    between atoms: C15_19  and  O4_20 
REMARK    6  A    between atoms: O4_20  and  C16_21 
REMARK    7  A    between atoms: C16_21  and  C17_22 
REMARK    8  A    between atoms: N1_24  and  C19_25 
REMARK    9  A    between atoms: C19_25  and  C20_26 
REMARK   10  A    between atoms: C20_26  and  C21_27 
ROOT
HETATM    1  C1  UNL     1     -13.350  25.065  80.832  1.00  0.00     0.018 C 
HETATM    2  C2  UNL     1     -12.396  23.899  81.040  1.00  0.00    -0.016 C 
HETATM    3  C3  UNL     1     -12.553  23.442  82.455  1.00  0.00     0.024 C 
HETATM    4  C4  UNL     1     -12.097  22.055  82.718  1.00  0.00    -0.014 C 
HETATM    5  C6  UNL     1     -13.319  21.127  82.715  1.00  0.00     0.013 C 
HETATM    6  C7  UNL     1     -13.619  20.984  81.241  1.00  0.00     0.011 C 
HETATM    7  C8  UNL     1     -12.390  21.459  80.492  1.00  0.00    -0.026 C 
HETATM    8  C11 UNL     1     -12.718  22.867  80.009  1.00  0.00     0.022 C 
HETATM    9  C12 UNL     1     -11.341  21.443  81.529  1.00  0.00     0.005 C 
HETATM   10  C13 UNL     1     -10.062  22.089  81.236  1.00  0.00     0.009 C 
HETATM   11  C14 UNL     1     -10.052  23.282  80.366  1.00  0.00     0.033 C 
HETATM   12  C15 UNL     1     -10.984  24.383  80.738  1.00  0.00     0.130 C 
ENDROOT
BRANCH  12  13
HETATM   13  O4  UNL     1     -10.498  25.228  81.709  1.00  0.00    -0.379 OA
BRANCH  13  14
HETATM   14  C16 UNL     1      -9.173  25.605  81.480  1.00  0.00     0.228 C 
BRANCH  14  15
HETATM   15  C17 UNL     1      -9.128  26.792  80.603  1.00  0.00     0.068 A 
HETATM   16  C18 UNL     1      -8.446  26.878  79.407  1.00  0.00     0.140 A 
HETATM   17  N1  UNL     1      -8.638  28.100  78.904  1.00  0.00    -0.287 N 
HETATM   18  N2  UNL     1      -9.412  28.780  79.739  1.00  0.00    -0.241 N 
HETATM   19  N3  UNL     1      -9.704  27.997  80.753  1.00  0.00    -0.287 N 
ATOM     20  H2  UNL     1      -9.726  29.742  79.615  1.00  0.00     0.208 HD
ATOM     21  H3  UNL     1     -10.288  28.267  81.544  1.00  0.00     0.188 HD
BRANCH  17  22
HETATM   22  C19 UNL     1      -8.089  28.579  77.656  1.00  0.00     0.160 C 
BRANCH  22  23
HETATM   23  C20 UNL     1      -7.316  27.468  76.993  1.00  0.00     0.135 C 
BRANCH  23  24
HETATM   24  C21 UNL     1      -7.283  27.608  75.522  1.00  0.00     0.174 C 
HETATM   25  O5  UNL     1      -8.303  27.478  74.833  1.00  0.00    -0.648 OA
HETATM   26  O6  UNL     1      -6.054  27.895  74.927  1.00  0.00    -0.648 OA
ENDBRANCH  23  24
ENDBRANCH  22  23
ENDBRANCH  17  22
ENDBRANCH  14  15
ENDBRANCH  13  14
ENDBRANCH  12  13
BRANCH   4  27
HETATM   27  C5  UNL     1     -11.320  21.915  83.997  1.00  0.00     0.173 C 
BRANCH  27  28
HETATM   28  O1  UNL     1     -11.764  20.833  84.735  1.00  0.00    -0.400 OA
ATOM     29  H1  UNL     1     -11.332  20.794  85.580  1.00  0.00     0.209 HD
ENDBRANCH  27  28
ENDBRANCH   4  27
BRANCH   7  30
HETATM   30  C9  UNL     1     -12.175  20.534  79.330  1.00  0.00     0.123 C 
BRANCH  30  31
HETATM   31  C10 UNL     1     -11.874  21.174  78.057  1.00  0.00     0.173 C 
HETATM   32  O2  UNL     1     -10.682  21.376  77.722  1.00  0.00    -0.648 OA
HETATM   33  O3  UNL     1     -12.857  21.583  77.171  1.00  0.00    -0.648 OA
ENDBRANCH  30  31
ENDBRANCH   7  30
TORSDOF 10
ENDMDL
MODEL 2
REMARK VINA RESULT: -7.718635021      2.396      3.325
REMARK  10 active torsions:
REMARK  status: ('A' for Active; 'I' for Inactive)
REMARK    1  A    between atoms: C4_4  and  C5_5 
REMARK    2  A    between atoms: C5_5  and  O1_6 
REMARK    3  A    between atoms: C8_10  and  C9_11 
REMARK    4  A    between atoms: C9_11  and  C10_12 
REMARK    5  A    between atoms: C15_19  and  O4_20 
REMARK    6  A    between atoms: O4_20  and  C16_21 
REMARK    7  A    between atoms: C16_21  and  C17_22 
REMARK    8  A    between atoms: N1_24  and  C19_25 
REMARK    9  A    between atoms: C19_25  and  C20_26 
REMARK   10  A    between atoms: C20_26  and  C21_27 
ROOT
HETATM    1  C1  UNL     1     -10.886  26.405  82.282  1.00  0.00     0.018 C 
HETATM    2  C2  UNL     1     -10.153  25.274  81.577  1.00  0.00    -0.016 C 
HETATM    3  C3  UNL     1      -9.199  24.678  82.561  1.00  0.00     0.024 C 
HETATM    4  C4  UNL     1      -8.756  23.298  82.246  1.00  0.00    -0.014 C 
HETATM    5  C6  UNL     1      -9.590  22.312  83.077  1.00  0.00     0.013 C 
HETATM    6  C7  UNL     1     -10.908  22.295  82.339  1.00  0.00     0.011 C 
HETATM    7  C8  UNL     1     -10.659  22.901  80.973  1.00  0.00    -0.026 C 
HETATM    8  C11 UNL     1     -11.184  24.330  81.052  1.00  0.00     0.022 C 
HETATM    9  C12 UNL     1      -9.190  22.841  80.845  1.00  0.00     0.005 C 
HETATM   10  C13 UNL     1      -8.555  23.577  79.752  1.00  0.00     0.009 C 
HETATM   11  C14 UNL     1      -9.162  24.846  79.304  1.00  0.00     0.033 C 
HETATM   12  C15 UNL     1      -9.444  25.857  80.361  1.00  0.00     0.130 C 
ENDROOT
BRANCH  12  13
HETATM   13  O4  UNL     1      -8.359  26.631  80.704  1.00  0.00    -0.379 OA
BRANCH  13  14
HETATM   14  C16 UNL     1      -8.534  27.977  80.379  1.00  0.00     0.228 C 
BRANCH  14  15
HETATM   15  C17 UNL     1      -8.156  28.212  78.971  1.00  0.00     0.068 A 
HETATM   16  C18 UNL     1      -6.884  28.501  78.521  1.00  0.00     0.140 A 
HETATM   17  N1  UNL     1      -6.934  28.647  77.194  1.00  0.00    -0.287 N 
HETATM   18  N2  UNL     1      -8.186  28.462  76.799  1.00  0.00    -0.241 N 
HETATM   19  N3  UNL     1      -8.914  28.203  77.861  1.00  0.00    -0.287 N 
ATOM     20  H2  UNL     1      -8.525  28.513  75.839  1.00  0.00     0.208 HD
ATOM     21  H3  UNL     1      -9.918  28.018  77.846  1.00  0.00     0.188 HD
BRANCH  17  22
HETATM   22  C19 UNL     1      -5.802  28.952  76.350  1.00  0.00     0.160 C 
BRANCH  22  23
HETATM   23  C20 UNL     1      -4.797  29.756  77.136  1.00  0.00     0.135 C 
BRANCH  23  24
HETATM   24  C21 UNL     1      -4.483  31.047  76.490  1.00  0.00     0.174 C 
HETATM   25  O5  UNL     1      -5.125  31.460  75.515  1.00  0.00    -0.648 OA
HETATM   26  O6  UNL     1      -3.430  31.795  77.017  1.00  0.00    -0.648 OA
ENDBRANCH  23  24
ENDBRANCH  22  23
ENDBRANCH  17  22
ENDBRANCH  14  15
ENDBRANCH  13  14
ENDBRANCH  12  13
BRANCH   4  27
HETATM   27  C5  UNL     1      -7.286  23.078  82.468  1.00  0.00     0.173 C 
BRANCH  27  28
HETATM   28  O1  UNL     1      -6.606  24.280  82.537  1.00  0.00    -0.400 OA
ATOM     29  H1  UNL     1      -6.944  24.825  83.238  1.00  0.00     0.209 HD
ENDBRANCH  27  28
ENDBRANCH   4  27
BRANCH   7  30
HETATM   30  C9  UNL     1     -11.435  22.103  79.967  1.00  0.00     0.123 C 
BRANCH  30  31
HETATM   31  C10 UNL     1     -12.393  22.851  79.166  1.00  0.00     0.173 C 
HETATM   32  O2  UNL     1     -12.050  23.320  78.053  1.00  0.00    -0.648 OA
HETATM   33  O3  UNL     1     -13.697  23.082  79.574  1.00  0.00    -0.648 OA
ENDBRANCH  30  31
ENDBRANCH   7  30
TORSDOF 10
ENDMDL
MODEL 3
REMARK VINA RESULT: -7.700970723      1.209      1.330
REMARK  10 active torsions:
REMARK  status: ('A' for Active; 'I' for Inactive)
REMARK    1  A    between atoms: C4_4  and  C5_5 
REMARK    2  A    between atoms: C5_5  and  O1_6 
REMARK    3  A    between atoms: C8_10  and  C9_11 
REMARK    4  A    between atoms: C9_11  and  C10_12 
REMARK    5  A    between atoms: C15_19  and  O4_20 
REMARK    6  A    between atoms: O4_20  and  C16_21 
REMARK    7  A    between atoms: C16_21  and  C17_22 
REMARK    8  A    between atoms: N1_24  and  C19_25 
REMARK    9  A    between atoms: C19_25  and  C20_26 
REMARK   10  A    between atoms: C20_26  and  C21_27 
ROOT
HETATM    1  C1  UNL     1     -13.258  24.991  80.539  1.00  0.00     0.018 C 
HETATM    2  C2  UNL     1     -12.274  23.845  80.709  1.00  0.00    -0.016 C 
HETATM    3  C3  UNL     1     -12.340  23.408  82.136  1.00  0.00     0.024 C 
HETATM    4  C4  UNL     1     -11.845  22.033  82.393  1.00  0.00    -0.014 C 
HETATM    5  C6  UNL     1     -13.048  21.084  82.475  1.00  0.00     0.013 C 
HETATM    6  C7  UNL     1     -13.430  20.913  81.023  1.00  0.00     0.011 C 
HETATM    7  C8  UNL     1     -12.255  21.397  80.197  1.00  0.00    -0.026 C 
HETATM    8  C11 UNL     1     -12.636  22.791  79.713  1.00  0.00     0.022 C 
HETATM    9  C12 UNL     1     -11.148  21.415  81.172  1.00  0.00     0.005 C 
HETATM   10  C13 UNL     1      -9.900  22.078  80.795  1.00  0.00     0.009 C 
HETATM   11  C14 UNL     1      -9.962  23.258  79.909  1.00  0.00     0.033 C 
HETATM   12  C15 UNL     1     -10.891  24.348  80.318  1.00  0.00     0.130 C 
ENDROOT
BRANCH  12  13
HETATM   13  O4  UNL     1     -10.364  25.217  81.247  1.00  0.00    -0.379 OA
BRANCH  13  14
HETATM   14  C16 UNL     1      -9.021  25.512  81.007  1.00  0.00     0.228 C 
BRANCH  14  15
HETATM   15  C17 UNL     1      -8.869  26.941  80.665  1.00  0.00     0.068 A 
HETATM   16  C18 UNL     1      -7.678  27.569  80.365  1.00  0.00     0.140 A 
HETATM   17  N1  UNL     1      -7.937  28.854  80.110  1.00  0.00    -0.287 N 
HETATM   18  N2  UNL     1      -9.242  29.052  80.240  1.00  0.00    -0.241 N 
HETATM   19  N3  UNL     1      -9.796  27.909  80.571  1.00  0.00    -0.287 N 
ATOM     20  H2  UNL     1      -9.729  29.938  80.107  1.00  0.00     0.208 HD
ATOM     21  H3  UNL     1     -10.794  27.774  80.734  1.00  0.00     0.188 HD
BRANCH  17  22
HETATM   22  C19 UNL     1      -6.948  29.845  79.752  1.00  0.00     0.160 C 
BRANCH  22  23
HETATM   23  C20 UNL     1      -5.780  29.164  79.085  1.00  0.00     0.135 C 
BRANCH  23  24
HETATM   24  C21 UNL     1      -5.843  29.256  77.612  1.00  0.00     0.174 C 
HETATM   25  O5  UNL     1      -6.672  28.612  76.955  1.00  0.00    -0.648 OA
HETATM   26  O6  UNL     1      -4.930  30.099  76.977  1.00  0.00    -0.648 OA
ENDBRANCH  23  24
ENDBRANCH  22  23
ENDBRANCH  17  22
ENDBRANCH  14  15
ENDBRANCH  13  14
ENDBRANCH  12  13
BRANCH   4  27
HETATM   27  C5  UNL     1     -10.993  21.927  83.627  1.00  0.00     0.173 C 
BRANCH  27  28
HETATM   28  O1  UNL     1     -11.558  21.067  84.552  1.00  0.00    -0.400 OA
ATOM     29  H1  UNL     1     -12.506  21.073  84.491  1.00  0.00     0.209 HD
ENDBRANCH  27  28
ENDBRANCH   4  27
BRANCH   7  30
HETATM   30  C9  UNL     1     -12.091  20.458  79.039  1.00  0.00     0.123 C 
BRANCH  30  31
HETATM   31  C10 UNL     1     -11.939  21.082  77.732  1.00  0.00     0.173 C 
HETATM   32  O2  UNL     1     -10.801  21.191  77.216  1.00  0.00    -0.648 OA
HETATM   33  O3  UNL     1     -13.011  21.576  77.006  1.00  0.00    -0.648 OA
ENDBRANCH  30  31
ENDBRANCH   7  30
TORSDOF 10
ENDMDL
MODEL 4
REMARK VINA RESULT: -7.538220812      2.447      4.490
REMARK  10 active torsions:
REMARK  status: ('A' for Active; 'I' for Inactive)
REMARK    1  A    between atoms: C4_4  and  C5_5 
REMARK    2  A    between atoms: C5_5  and  O1_6 
REMARK    3  A    between atoms: C8_10  and  C9_11 
REMARK    4  A    between atoms: C9_11  and  C10_12 
REMARK    5  A    between atoms: C15_19  and  O4_20 
REMARK    6  A    between atoms: O4_20  and  C16_21 
REMARK    7  A    between atoms: C16_21  and  C17_22 
REMARK    8  A    between atoms: N1_24  and  C19_25 
REMARK    9  A    between atoms: C19_25  and  C20_26 
REMARK   10  A    between atoms: C20_26  and  C21_27 
ROOT
HETATM    1  C1  UNL     1      -7.128  23.787  82.672  1.00  0.00     0.018 C 
HETATM    2  C2  UNL     1      -8.544  24.263  82.387  1.00  0.00    -0.016 C 
HETATM    3  C3  UNL     1      -9.017  23.550  81.162  1.00  0.00     0.024 C 
HETATM    4  C4  UNL     1     -10.490  23.497  80.999  1.00  0.00    -0.014 C 
HETATM    5  C6  UNL     1     -10.990  22.131  81.489  1.00  0.00     0.013 C 
HETATM    6  C7  UNL     1     -10.940  22.282  82.991  1.00  0.00     0.011 C 
HETATM    7  C8  UNL     1     -10.825  23.765  83.282  1.00  0.00    -0.026 C 
HETATM    8  C11 UNL     1      -9.357  24.009  83.615  1.00  0.00     0.022 C 
HETATM    9  C12 UNL     1     -11.232  24.387  82.008  1.00  0.00     0.005 C 
HETATM   10  C13 UNL     1     -10.999  25.820  81.827  1.00  0.00     0.009 C 
HETATM   11  C14 UNL     1      -9.816  26.433  82.463  1.00  0.00     0.033 C 
HETATM   12  C15 UNL     1      -8.505  25.775  82.202  1.00  0.00     0.130 C 
ENDROOT
BRANCH  12  13
HETATM   13  O4  UNL     1      -7.915  26.146  81.015  1.00  0.00    -0.379 OA
BRANCH  13  14
HETATM   14  C16 UNL     1      -8.134  27.488  80.703  1.00  0.00     0.228 C 
BRANCH  14  15
HETATM   15  C17 UNL     1      -7.895  27.720  79.264  1.00  0.00     0.068 A 
HETATM   16  C18 UNL     1      -6.858  28.458  78.734  1.00  0.00     0.140 A 
HETATM   17  N1  UNL     1      -6.971  28.442  77.403  1.00  0.00    -0.287 N 
HETATM   18  N2  UNL     1      -8.039  27.723  77.082  1.00  0.00    -0.241 N 
HETATM   19  N3  UNL     1      -8.589  27.293  78.195  1.00  0.00    -0.287 N 
ATOM     20  H2  UNL     1      -8.374  27.538  76.137  1.00  0.00     0.208 HD
ATOM     21  H3  UNL     1      -9.428  26.714  78.241  1.00  0.00     0.188 HD
BRANCH  17  22
HETATM   22  C19 UNL     1      -6.070  29.100  76.485  1.00  0.00     0.160 C 
BRANCH  22  23
HETATM   23  C20 UNL     1      -5.028  29.857  77.267  1.00  0.00     0.135 C 
BRANCH  23  24
HETATM   24  C21 UNL     1      -4.547  31.055  76.549  1.00  0.00     0.174 C 
HETATM   25  O5  UNL     1      -5.068  31.431  75.490  1.00  0.00    -0.648 OA
HETATM   26  O6  UNL     1      -3.478  31.758  77.104  1.00  0.00    -0.648 OA
ENDBRANCH  23  24
ENDBRANCH  22  23
ENDBRANCH  17  22
ENDBRANCH  14  15
ENDBRANCH  13  14
ENDBRANCH  12  13
BRANCH   4  27
HETATM   27  C5  UNL     1     -10.945  23.762  79.591  1.00  0.00     0.173 C 
BRANCH  27  28
HETATM   28  O1  UNL     1     -10.020  24.527  78.904  1.00  0.00    -0.400 OA
ATOM     29  H1  UNL     1     -10.302  24.686  78.011  1.00  0.00     0.209 HD
ENDBRANCH  27  28
ENDBRANCH   4  27
BRANCH   7  30
HETATM   30  C9  UNL     1     -11.696  24.070  84.465  1.00  0.00     0.123 C 
BRANCH  30  31
HETATM   31  C10 UNL     1     -13.120  24.200  84.188  1.00  0.00     0.173 C 
HETATM   32  O2  UNL     1     -13.656  25.335  84.176  1.00  0.00    -0.648 OA
HETATM   33  O3  UNL     1     -13.939  23.112  83.931  1.00  0.00    -0.648 OA
ENDBRANCH  30  31
ENDBRANCH   7  30
TORSDOF 10
ENDMDL
MODEL 5
REMARK VINA RESULT: -7.516923855      1.880      4.012
REMARK  10 active torsions:
REMARK  status: ('A' for Active; 'I' for Inactive)
REMARK    1  A    between atoms: C4_4  and  C5_5 
REMARK    2  A    between atoms: C5_5  and  O1_6 
REMARK    3  A    between atoms: C8_10  and  C9_11 
REMARK    4  A    between atoms: C9_11  and  C10_12 
REMARK    5  A    between atoms: C15_19  and  O4_20 
REMARK    6  A    between atoms: O4_20  and  C16_21 
REMARK    7  A    between atoms: C16_21  and  C17_22 
REMARK    8  A    between atoms: N1_24  and  C19_25 
REMARK    9  A    between atoms: C19_25  and  C20_26 
REMARK   10  A    between atoms: C20_26  and  C21_27 
ROOT
HETATM    1  C1  UNL     1      -8.591  22.380  80.749  1.00  0.00     0.018 C 
HETATM    2  C2  UNL     1     -10.046  22.821  80.712  1.00  0.00    -0.016 C 
HETATM    3  C3  UNL     1     -10.544  22.602  79.321  1.00  0.00     0.024 C 
HETATM    4  C4  UNL     1     -12.019  22.504  79.192  1.00  0.00    -0.014 C 
HETATM    5  C6  UNL     1     -12.410  21.021  79.127  1.00  0.00     0.013 C 
HETATM    6  C7  UNL     1     -12.285  20.585  80.567  1.00  0.00     0.011 C 
HETATM    7  C8  UNL     1     -12.241  21.845  81.408  1.00  0.00    -0.026 C 
HETATM    8  C11 UNL     1     -10.774  22.052  81.767  1.00  0.00     0.022 C 
HETATM    9  C12 UNL     1     -12.754  22.877  80.488  1.00  0.00     0.005 C 
HETATM   10  C13 UNL     1     -12.616  24.283  80.871  1.00  0.00     0.009 C 
HETATM   11  C14 UNL     1     -11.437  24.690  81.662  1.00  0.00     0.033 C 
HETATM   12  C15 UNL     1     -10.106  24.285  81.128  1.00  0.00     0.130 C 
ENDROOT
BRANCH  12  13
HETATM   13  O4  UNL     1      -9.607  25.128  80.162  1.00  0.00    -0.379 OA
BRANCH  13  14
HETATM   14  C16 UNL     1      -9.084  26.307  80.695  1.00  0.00     0.228 C 
BRANCH  14  15
HETATM   15  C17 UNL     1      -8.356  27.057  79.652  1.00  0.00     0.068 A 
HETATM   16  C18 UNL     1      -7.398  28.022  79.882  1.00  0.00     0.140 A 
HETATM   17  N1  UNL     1      -6.967  28.473  78.701  1.00  0.00    -0.287 N 
HETATM   18  N2  UNL     1      -7.620  27.828  77.743  1.00  0.00    -0.241 N 
HETATM   19  N3  UNL     1      -8.448  26.983  78.313  1.00  0.00    -0.287 N 
ATOM     20  H2  UNL     1      -7.499  27.964  76.740  1.00  0.00     0.208 HD
ATOM     21  H3  UNL     1      -9.075  26.356  77.809  1.00  0.00     0.188 HD
BRANCH  17  22
HETATM   22  C19 UNL     1      -5.958  29.490  78.518  1.00  0.00     0.160 C 
BRANCH  22  23
HETATM   23  C20 UNL     1      -5.546  29.529  77.069  1.00  0.00     0.135 C 
BRANCH  23  24
HETATM   24  C21 UNL     1      -4.753  30.732  76.743  1.00  0.00     0.174 C 
HETATM   25  O5  UNL     1      -4.896  31.336  75.671  1.00  0.00    -0.648 OA
HETATM   26  O6  UNL     1      -3.826  31.173  77.689  1.00  0.00    -0.648 OA
ENDBRANCH  23  24
ENDBRANCH  22  23
ENDBRANCH  17  22
ENDBRANCH  14  15
ENDBRANCH  13  14
ENDBRANCH  12  13
BRANCH   4  27
HETATM   27  C5  UNL     1     -12.566  23.256  78.011  1.00  0.00     0.173 C 
BRANCH  27  28
HETATM   28  O1  UNL     1     -12.460  22.509  76.851  1.00  0.00    -0.400 OA
ATOM     29  H1  UNL     1     -13.307  22.396  76.438  1.00  0.00     0.209 HD
ENDBRANCH  27  28
ENDBRANCH   4  27
BRANCH   7  30
HETATM   30  C9  UNL     1     -13.062  21.603  82.641  1.00  0.00     0.123 C 
BRANCH  30  31
HETATM   31  C10 UNL     1     -12.452  22.010  83.899  1.00  0.00     0.173 C 
HETATM   32  O2  UNL     1     -12.671  23.155  84.362  1.00  0.00    -0.648 OA
HETATM   33  O3  UNL     1     -11.620  21.181  84.635  1.00  0.00    -0.648 OA
ENDBRANCH  30  31
ENDBRANCH   7  30
TORSDOF 10
ENDMDL
