MODEL 1
REMARK VINA RESULT: -6.228552610      0.000      0.000
REMARK  10 active torsions:
REMARK  status: ('A' for Active; 'I' for Inactive)
REMARK    1  A    between atoms: C2_2  and  C3_3 
REMARK    2  A    between atoms: C3_3  and  C4_4 
REMARK    3  A    between atoms: C4_4  and  C5_5 
REMARK    4  A    between atoms: C5_5  and  C6_6 
REMARK    5  A    between atoms: C5_5  and  C10_11 
REMARK    6  A    between atoms: C6_6  and  N1_7 
REMARK    7  A    between atoms: C10_11  and  C11_12 
REMARK    8  A    between atoms: C14_16  and  C15_17 
REMARK    9  A    between atoms: C15_17  and  C16_18 
REMARK   10  A    between atoms: C16_18  and  O2_20 
ROOT
HETATM    1  C10 UNL     1       1.010  38.913   2.036  1.00  0.00     0.169 C 
HETATM    2  O1  UNL     1       0.061  38.391   2.915  1.00  0.00    -0.352 OA
HETATM    3  C13 UNL     1       0.616  37.134   3.276  1.00  0.00     0.203 C 
HETATM    4  C14 UNL     1       1.378  36.704   2.086  1.00  0.00     0.151 C 
HETATM    5  O3  UNL     1       1.436  37.835   1.269  1.00  0.00    -0.347 OA
ENDROOT
BRANCH   1   6
HETATM    6  C5  UNL     1       0.465  40.023   1.227  1.00  0.00     0.076 C 
BRANCH   6   7
HETATM    7  C4  UNL     1       1.404  41.256   1.292  1.00  0.00     0.012 C 
BRANCH   7   8
HETATM    8  C3  UNL     1       0.682  42.462   0.820  1.00  0.00     0.000 C 
BRANCH   8   9
HETATM    9  C2  UNL     1       1.340  43.286  -0.227  1.00  0.00    -0.005 C 
HETATM   10  C1  UNL     1       0.581  43.485  -1.487  1.00  0.00     0.005 C 
ENDBRANCH   8   9
ENDBRANCH   7   8
ENDBRANCH   6   7
BRANCH   6  11
HETATM   11  C6  UNL     1      -0.896  40.521   1.507  1.00  0.00     0.282 C 
BRANCH  11  12
HETATM   12  N1  UNL     1      -1.993  40.070   0.713  1.00  0.00     0.089 N 
HETATM   13  C7  UNL     1      -1.609  39.917  -0.718  1.00  0.00     0.274 A 
HETATM   14  C8  UNL     1      -2.337  41.135  -1.135  1.00  0.00     0.060 A 
HETATM   15  C9  UNL     1      -2.768  41.238   0.278  1.00  0.00     0.274 A 
ENDBRANCH  11  12
ENDBRANCH   6  11
ENDBRANCH   1   6
BRANCH   1  16
HETATM   16  C11 UNL     1       2.238  39.350   2.828  1.00  0.00     0.064 C 
HETATM   17  C12 UNL     1       3.497  39.339   2.023  1.00  0.00     0.010 C 
ENDBRANCH   1  16
BRANCH   4  18
HETATM   18  C15 UNL     1       2.671  36.026   2.265  1.00  0.00     0.065 C 
BRANCH  18  19
HETATM   19  C16 UNL     1       2.515  34.545   2.530  1.00  0.00     0.116 C 
HETATM   20  C17 UNL     1       3.675  34.033   3.354  1.00  0.00     0.039 C 
BRANCH  19  21
HETATM   21  O2  UNL     1       2.488  33.882   1.322  1.00  0.00    -0.396 OA
ATOM     22  H2  UNL     1       3.063  33.128   1.376  1.00  0.00     0.210 HD
ENDBRANCH  19  21
ENDBRANCH  18  19
ENDBRANCH   4  18
TORSDOF 10
ENDMDL
MODEL 2
REMARK VINA RESULT: -6.197692759      1.178      1.919
REMARK  10 active torsions:
REMARK  status: ('A' for Active; 'I' for Inactive)
REMARK    1  A    between atoms: C2_2  and  C3_3 
REMARK    2  A    between atoms: C3_3  and  C4_4 
REMARK    3  A    between atoms: C4_4  and  C5_5 
REMARK    4  A    between atoms: C5_5  and  C6_6 
REMARK    5  A    between atoms: C5_5  and  C10_11 
REMARK    6  A    between atoms: C6_6  and  N1_7 
REMARK    7  A    between atoms: C10_11  and  C11_12 
REMARK    8  A    between atoms: C14_16  and  C15_17 
REMARK    9  A    between atoms: C15_17  and  C16_18 
REMARK   10  A    between atoms: C16_18  and  O2_20 
ROOT
HETATM    1  C10 UNL     1       1.034  38.854   2.060  1.00  0.00     0.169 C 
HETATM    2  O1  UNL     1       0.103  38.342   2.965  1.00  0.00    -0.352 OA
HETATM    3  C13 UNL     1       0.666  37.089   3.328  1.00  0.00     0.203 C 
HETATM    4  C14 UNL     1       1.403  36.645   2.128  1.00  0.00     0.151 C 
HETATM    5  O3  UNL     1       1.443  37.766   1.297  1.00  0.00    -0.347 OA
ENDROOT
BRANCH   1   6
HETATM    6  C5  UNL     1       0.472  39.953   1.250  1.00  0.00     0.076 C 
BRANCH   6   7
HETATM    7  C4  UNL     1       0.989  41.324   1.759  1.00  0.00     0.012 C 
BRANCH   7   8
HETATM    8  C3  UNL     1      -0.075  42.007   2.533  1.00  0.00     0.000 C 
BRANCH   8   9
HETATM    9  C2  UNL     1       0.079  42.059   4.009  1.00  0.00    -0.005 C 
HETATM   10  C1  UNL     1      -0.813  41.172   4.800  1.00  0.00     0.005 C 
ENDBRANCH   8   9
ENDBRANCH   7   8
ENDBRANCH   6   7
BRANCH   6  11
HETATM   11  C6  UNL     1      -0.993  40.083   1.124  1.00  0.00     0.282 C 
BRANCH  11  12
HETATM   12  N1  UNL     1      -1.612  39.924  -0.153  1.00  0.00     0.089 N 
HETATM   13  C7  UNL     1      -1.652  41.207  -0.907  1.00  0.00     0.274 A 
HETATM   14  C8  UNL     1      -3.102  41.397  -0.683  1.00  0.00     0.060 A 
HETATM   15  C9  UNL     1      -3.062  40.086   0.005  1.00  0.00     0.274 A 
ENDBRANCH  11  12
ENDBRANCH   6  11
ENDBRANCH   1   6
BRANCH   1  16
HETATM   16  C11 UNL     1       2.278  39.299   2.820  1.00  0.00     0.064 C 
HETATM   17  C12 UNL     1       3.488  39.429   1.952  1.00  0.00     0.010 C 
ENDBRANCH   1  16
BRANCH   4  18
HETATM   18  C15 UNL     1       2.698  35.969   2.287  1.00  0.00     0.065 C 
BRANCH  18  19
HETATM   19  C16 UNL     1       2.550  34.481   2.520  1.00  0.00     0.116 C 
HETATM   20  C17 UNL     1       3.715  33.956   3.328  1.00  0.00     0.039 C 
BRANCH  19  21
HETATM   21  O2  UNL     1       2.520  33.845   1.298  1.00  0.00    -0.396 OA
ATOM     22  H2  UNL     1       1.614  33.696   1.055  1.00  0.00     0.210 HD
ENDBRANCH  19  21
ENDBRANCH  18  19
ENDBRANCH   4  18
TORSDOF 10
ENDMDL
MODEL 3
REMARK VINA RESULT: -5.822613009      2.566      3.482
REMARK  10 active torsions:
REMARK  status: ('A' for Active; 'I' for Inactive)
REMARK    1  A    between atoms: C2_2  and  C3_3 
REMARK    2  A    between atoms: C3_3  and  C4_4 
REMARK    3  A    between atoms: C4_4  and  C5_5 
REMARK    4  A    between atoms: C5_5  and  C6_6 
REMARK    5  A    between atoms: C5_5  and  C10_11 
REMARK    6  A    between atoms: C6_6  and  N1_7 
REMARK    7  A    between atoms: C10_11  and  C11_12 
REMARK    8  A    between atoms: C14_16  and  C15_17 
REMARK    9  A    between atoms: C15_17  and  C16_18 
REMARK   10  A    between atoms: C16_18  and  O2_20 
ROOT
HETATM    1  C10 UNL     1       0.801  39.578   2.443  1.00  0.00     0.169 C 
HETATM    2  O1  UNL     1       2.087  40.084   2.635  1.00  0.00    -0.352 OA
HETATM    3  C13 UNL     1       2.919  39.003   2.240  1.00  0.00     0.203 C 
HETATM    4  C14 UNL     1       2.145  37.790   2.575  1.00  0.00     0.151 C 
HETATM    5  O3  UNL     1       0.859  38.254   2.862  1.00  0.00    -0.347 OA
ENDROOT
BRANCH   1   6
HETATM    6  C5  UNL     1      -0.219  40.370   3.159  1.00  0.00     0.076 C 
BRANCH   6   7
HETATM    7  C4  UNL     1       0.318  41.790   3.477  1.00  0.00     0.012 C 
BRANCH   7   8
HETATM    8  C3  UNL     1      -0.284  42.775   2.547  1.00  0.00     0.000 C 
BRANCH   8   9
HETATM    9  C2  UNL     1       0.643  43.616   1.746  1.00  0.00    -0.005 C 
HETATM   10  C1  UNL     1       1.245  42.979   0.547  1.00  0.00     0.005 C 
ENDBRANCH   8   9
ENDBRANCH   7   8
ENDBRANCH   6   7
BRANCH   6  11
HETATM   11  C6  UNL     1      -0.785  39.849   4.419  1.00  0.00     0.282 C 
BRANCH  11  12
HETATM   12  N1  UNL     1      -1.228  40.759   5.427  1.00  0.00     0.089 N 
HETATM   13  C7  UNL     1      -1.397  40.081   6.742  1.00  0.00     0.274 A 
HETATM   14  C8  UNL     1      -2.874  40.094   6.659  1.00  0.00     0.060 A 
HETATM   15  C9  UNL     1      -2.693  40.828   5.385  1.00  0.00     0.274 A 
ENDBRANCH  11  12
ENDBRANCH   6  11
ENDBRANCH   1   6
BRANCH   1  16
HETATM   16  C11 UNL     1       0.508  39.512   0.948  1.00  0.00     0.064 C 
HETATM   17  C12 UNL     1      -0.935  39.716   0.617  1.00  0.00     0.010 C 
ENDBRANCH   1  16
BRANCH   4  18
HETATM   18  C15 UNL     1       2.177  36.639   1.662  1.00  0.00     0.065 C 
BRANCH  18  19
HETATM   19  C16 UNL     1       2.181  35.317   2.398  1.00  0.00     0.116 C 
HETATM   20  C17 UNL     1       3.373  35.234   3.324  1.00  0.00     0.039 C 
BRANCH  19  21
HETATM   21  O2  UNL     1       2.252  34.298   1.472  1.00  0.00    -0.396 OA
ATOM     22  H2  UNL     1       1.849  33.522   1.843  1.00  0.00     0.210 HD
ENDBRANCH  19  21
ENDBRANCH  18  19
ENDBRANCH   4  18
TORSDOF 10
ENDMDL
MODEL 4
REMARK VINA RESULT: -5.652090539      2.955      6.290
REMARK  10 active torsions:
REMARK  status: ('A' for Active; 'I' for Inactive)
REMARK    1  A    between atoms: C2_2  and  C3_3 
REMARK    2  A    between atoms: C3_3  and  C4_4 
REMARK    3  A    between atoms: C4_4  and  C5_5 
REMARK    4  A    between atoms: C5_5  and  C6_6 
REMARK    5  A    between atoms: C5_5  and  C10_11 
REMARK    6  A    between atoms: C6_6  and  N1_7 
REMARK    7  A    between atoms: C10_11  and  C11_12 
REMARK    8  A    between atoms: C14_16  and  C15_17 
REMARK    9  A    between atoms: C15_17  and  C16_18 
REMARK   10  A    between atoms: C16_18  and  O2_20 
ROOT
HETATM    1  C10 UNL     1      -0.813  40.599   1.349  1.00  0.00     0.169 C 
HETATM    2  O1  UNL     1      -0.605  39.514   0.497  1.00  0.00    -0.352 OA
HETATM    3  C13 UNL     1      -1.633  39.668  -0.472  1.00  0.00     0.203 C 
HETATM    4  C14 UNL     1      -2.748  40.303   0.259  1.00  0.00     0.151 C 
HETATM    5  O3  UNL     1      -2.193  40.711   1.473  1.00  0.00    -0.347 OA
ENDROOT
BRANCH   1   6
HETATM    6  C5  UNL     1      -0.126  40.424   2.645  1.00  0.00     0.076 C 
BRANCH   6   7
HETATM    7  C4  UNL     1       0.609  39.059   2.692  1.00  0.00     0.012 C 
BRANCH   7   8
HETATM    8  C3  UNL     1       2.073  39.272   2.588  1.00  0.00     0.000 C 
BRANCH   8   9
HETATM    9  C2  UNL     1       2.916  38.088   2.284  1.00  0.00    -0.005 C 
HETATM   10  C1  UNL     1       2.235  36.939   1.633  1.00  0.00     0.005 C 
ENDBRANCH   8   9
ENDBRANCH   7   8
ENDBRANCH   6   7
BRANCH   6  11
HETATM   11  C6  UNL     1      -0.905  40.519   3.895  1.00  0.00     0.282 C 
BRANCH  11  12
HETATM   12  N1  UNL     1      -1.214  41.801   4.442  1.00  0.00     0.089 N 
HETATM   13  C7  UNL     1      -0.081  42.755   4.282  1.00  0.00     0.274 A 
HETATM   14  C8  UNL     1       0.293  42.688   5.711  1.00  0.00     0.060 A 
HETATM   15  C9  UNL     1      -0.878  41.796   5.870  1.00  0.00     0.274 A 
ENDBRANCH  11  12
ENDBRANCH   6  11
ENDBRANCH   1   6
BRANCH   1  16
HETATM   16  C11 UNL     1      -0.369  41.878   0.649  1.00  0.00     0.064 C 
HETATM   17  C12 UNL     1       1.094  42.152   0.786  1.00  0.00     0.010 C 
ENDBRANCH   1  16
BRANCH   4  18
HETATM   18  C15 UNL     1      -3.552  41.336  -0.411  1.00  0.00     0.065 C 
BRANCH  18  19
HETATM   19  C16 UNL     1      -5.032  41.187  -0.133  1.00  0.00     0.116 C 
HETATM   20  C17 UNL     1      -5.339  39.784   0.341  1.00  0.00     0.039 C 
BRANCH  19  21
HETATM   21  O2  UNL     1      -5.726  41.436  -1.297  1.00  0.00    -0.396 OA
ATOM     22  H2  UNL     1      -6.569  41.813  -1.073  1.00  0.00     0.210 HD
ENDBRANCH  19  21
ENDBRANCH  18  19
ENDBRANCH   4  18
TORSDOF 10
ENDMDL
MODEL 5
REMARK VINA RESULT: -5.588754969      1.237      2.453
REMARK  10 active torsions:
REMARK  status: ('A' for Active; 'I' for Inactive)
REMARK    1  A    between atoms: C2_2  and  C3_3 
REMARK    2  A    between atoms: C3_3  and  C4_4 
REMARK    3  A    between atoms: C4_4  and  C5_5 
REMARK    4  A    between atoms: C5_5  and  C6_6 
REMARK    5  A    between atoms: C5_5  and  C10_11 
REMARK    6  A    between atoms: C6_6  and  N1_7 
REMARK    7  A    between atoms: C10_11  and  C11_12 
REMARK    8  A    between atoms: C14_16  and  C15_17 
REMARK    9  A    between atoms: C15_17  and  C16_18 
REMARK   10  A    between atoms: C16_18  and  O2_20 
ROOT
HETATM    1  C10 UNL     1       0.810  39.147   2.192  1.00  0.00     0.169 C 
HETATM    2  O1  UNL     1      -0.018  38.568   3.154  1.00  0.00    -0.352 OA
HETATM    3  C13 UNL     1       0.590  37.304   3.382  1.00  0.00     0.203 C 
HETATM    4  C14 UNL     1       1.203  36.943   2.087  1.00  0.00     0.151 C 
HETATM    5  O3  UNL     1       1.148  38.113   1.327  1.00  0.00    -0.347 OA
ENDROOT
BRANCH   1   6
HETATM    6  C5  UNL     1       0.158  40.284   1.512  1.00  0.00     0.076 C 
BRANCH   6   7
HETATM    7  C4  UNL     1      -0.691  39.788   0.313  1.00  0.00     0.012 C 
BRANCH   7   8
HETATM    8  C3  UNL     1      -2.124  40.083   0.555  1.00  0.00     0.000 C 
BRANCH   8   9
HETATM    9  C2  UNL     1      -2.788  41.042  -0.364  1.00  0.00    -0.005 C 
HETATM   10  C1  UNL     1      -1.987  41.513  -1.523  1.00  0.00     0.005 C 
ENDBRANCH   8   9
ENDBRANCH   7   8
ENDBRANCH   6   7
BRANCH   6  11
HETATM   11  C6  UNL     1       0.988  41.393   1.002  1.00  0.00     0.282 C 
BRANCH  11  12
HETATM   12  N1  UNL     1       0.920  42.675   1.627  1.00  0.00     0.089 N 
HETATM   13  C7  UNL     1      -0.344  42.845   2.396  1.00  0.00     0.274 A 
HETATM   14  C8  UNL     1      -0.936  43.756   1.392  1.00  0.00     0.060 A 
HETATM   15  C9  UNL     1       0.352  43.633   0.672  1.00  0.00     0.274 A 
ENDBRANCH  11  12
ENDBRANCH   6  11
ENDBRANCH   1   6
BRANCH   1  16
HETATM   16  C11 UNL     1       2.122  39.564   2.847  1.00  0.00     0.064 C 
HETATM   17  C12 UNL     1       3.287  39.534   1.912  1.00  0.00     0.010 C 
ENDBRANCH   1  16
BRANCH   4  18
HETATM   18  C15 UNL     1       2.515  36.279   2.072  1.00  0.00     0.065 C 
BRANCH  18  19
HETATM   19  C16 UNL     1       2.427  34.819   2.458  1.00  0.00     0.116 C 
HETATM   20  C17 UNL     1       3.598  34.435   3.335  1.00  0.00     0.039 C 
BRANCH  19  21
HETATM   21  O2  UNL     1       2.451  34.057   1.310  1.00  0.00    -0.396 OA
ATOM     22  H2  UNL     1       2.824  33.208   1.516  1.00  0.00     0.210 HD
ENDBRANCH  19  21
ENDBRANCH  18  19
ENDBRANCH   4  18
TORSDOF 10
ENDMDL
