MODEL 1
REMARK VINA RESULT: -7.073783705      0.000      0.000
REMARK  5 active torsions:
REMARK  status: ('A' for Active; 'I' for Inactive)
REMARK    1  A    between atoms: C2_2  and  C3_3 
REMARK    2  A    between atoms: C5_6  and  C6_7 
REMARK    3  A    between atoms: C8_12  and  N2_13 
REMARK    4  A    between atoms: C8_12  and  C12_20 
REMARK       I    between atoms: N2_13  and  C9_15 
REMARK    5  A    between atoms: C9_15  and  C10_17 
ROOT
HETATM    1  C6  UNL     1      -4.078   1.286  12.873  1.00  0.00     0.155 C 
HETATM    2  N1  UNL     1      -5.182   1.338  11.926  1.00  0.00    -0.347 N 
ATOM      3  H1  UNL     1      -6.159   1.045  11.931  1.00  0.00     0.163 HD
HETATM    4  C7  UNL     1      -4.318   1.972  10.991  1.00  0.00     0.258 C 
HETATM    5  O1  UNL     1      -4.585   2.764  10.028  1.00  0.00    -0.270 OA
HETATM    6  C8  UNL     1      -3.178   1.340  11.618  1.00  0.00     0.236 C 
ENDROOT
BRANCH   6   7
HETATM    7  N2  UNL     1      -2.007   2.126  11.832  1.00  0.00    -0.333 N 
HETATM    8  C9  UNL     1      -1.210   2.599  10.771  1.00  0.00     0.233 C 
HETATM    9  O2  UNL     1      -1.412   2.413   9.550  1.00  0.00    -0.272 OA
ATOM     10  H2  UNL     1      -1.738   2.355  12.789  1.00  0.00     0.164 HD
BRANCH   8  11
HETATM   11  C10 UNL     1       0.030   3.419  11.082  1.00  0.00     0.146 C 
HETATM   12  C11 UNL     1       0.704   3.888   9.818  1.00  0.00     0.032 C 
HETATM   13 BR1  UNL     1      -0.581   5.007  12.037  1.00  0.00    -0.082 Br
ENDBRANCH   8  11
ENDBRANCH   6   7
BRANCH   6  14
HETATM   14  C12 UNL     1      -2.915  -0.126  11.256  1.00  0.00     0.424 C 
HETATM   15  F1  UNL     1      -3.114  -0.226   9.880  1.00  0.00    -0.168 F 
HETATM   16  F2  UNL     1      -3.549  -1.044  11.993  1.00  0.00    -0.168 F 
HETATM   17  F3  UNL     1      -1.544  -0.360  11.418  1.00  0.00    -0.168 F 
ENDBRANCH   6  14
BRANCH   1  18
HETATM   18  C5  UNL     1      -4.084   2.516  13.671  1.00  0.00     0.008 C 
HETATM   19  C2  UNL     1      -4.274   2.409  14.994  1.00  0.00    -0.063 C 
HETATM   20  C1  UNL     1      -4.272   3.675  15.766  1.00  0.00     0.048 C 
BRANCH  19  21
HETATM   21  C3  UNL     1      -4.469   1.111  15.589  1.00  0.00     0.018 C 
HETATM   22  C4  UNL     1      -5.464   0.698  16.313  1.00  0.00     0.085 C 
HETATM   23 CL1  UNL     1      -6.812   1.719  16.703  1.00  0.00    -0.097 Cl
ENDBRANCH  19  21
ENDBRANCH   1  18
TORSDOF 5
ENDMDL
MODEL 2
REMARK VINA RESULT: -6.917399709      1.224      1.242
REMARK  5 active torsions:
REMARK  status: ('A' for Active; 'I' for Inactive)
REMARK    1  A    between atoms: C2_2  and  C3_3 
REMARK    2  A    between atoms: C5_6  and  C6_7 
REMARK    3  A    between atoms: C8_12  and  N2_13 
REMARK    4  A    between atoms: C8_12  and  C12_20 
REMARK       I    between atoms: N2_13  and  C9_15 
REMARK    5  A    between atoms: C9_15  and  C10_17 
ROOT
HETATM    1  C6  UNL     1      -4.677   1.665  12.562  1.00  0.00     0.155 C 
HETATM    2  N1  UNL     1      -5.349   1.676  11.271  1.00  0.00    -0.347 N 
ATOM      3  H1  UNL     1      -6.200   1.261  10.891  1.00  0.00     0.163 HD
HETATM    4  C7  UNL     1      -4.315   2.511  10.767  1.00  0.00     0.258 C 
HETATM    5  O1  UNL     1      -4.332   3.362   9.817  1.00  0.00    -0.270 OA
HETATM    6  C8  UNL     1      -3.399   1.968  11.746  1.00  0.00     0.236 C 
ENDROOT
BRANCH   6   7
HETATM    7  N2  UNL     1      -2.530   2.870  12.427  1.00  0.00    -0.333 N 
HETATM    8  C9  UNL     1      -1.520   3.593  11.763  1.00  0.00     0.233 C 
HETATM    9  O2  UNL     1      -1.262   3.555  10.538  1.00  0.00    -0.272 OA
ATOM     10  H2  UNL     1      -2.644   2.997  13.433  1.00  0.00     0.164 HD
BRANCH   8  11
HETATM   11  C10 UNL     1      -0.626   4.525  12.562  1.00  0.00     0.146 C 
HETATM   12  C11 UNL     1      -0.147   5.679  11.717  1.00  0.00     0.032 C 
HETATM   13 BR1  UNL     1      -1.732   5.269  13.987  1.00  0.00    -0.082 Br
ENDBRANCH   8  11
ENDBRANCH   6   7
BRANCH   6  14
HETATM   14  C12 UNL     1      -2.793   0.595  11.436  1.00  0.00     0.424 C 
HETATM   15  F1  UNL     1      -2.853   0.449  10.050  1.00  0.00    -0.168 F 
HETATM   16  F2  UNL     1      -3.266  -0.438  12.140  1.00  0.00    -0.168 F 
HETATM   17  F3  UNL     1      -1.420   0.670  11.708  1.00  0.00    -0.168 F 
ENDBRANCH   6  14
BRANCH   1  18
HETATM   18  C5  UNL     1      -5.170   2.791  13.360  1.00  0.00     0.008 C 
HETATM   19  C2  UNL     1      -5.152   2.673  14.695  1.00  0.00    -0.063 C 
HETATM   20  C1  UNL     1      -5.659   3.834  15.467  1.00  0.00     0.048 C 
BRANCH  19  21
HETATM   21  C3  UNL     1      -4.660   1.463  15.304  1.00  0.00     0.018 C 
HETATM   22  C4  UNL     1      -5.245   0.708  16.181  1.00  0.00     0.085 C 
HETATM   23 CL1  UNL     1      -6.826   1.064  16.804  1.00  0.00    -0.097 Cl
ENDBRANCH  19  21
ENDBRANCH   1  18
TORSDOF 5
ENDMDL
MODEL 3
REMARK VINA RESULT: -6.549542102      3.829      5.264
REMARK  5 active torsions:
REMARK  status: ('A' for Active; 'I' for Inactive)
REMARK    1  A    between atoms: C2_2  and  C3_3 
REMARK    2  A    between atoms: C5_6  and  C6_7 
REMARK    3  A    between atoms: C8_12  and  N2_13 
REMARK    4  A    between atoms: C8_12  and  C12_20 
REMARK       I    between atoms: N2_13  and  C9_15 
REMARK    5  A    between atoms: C9_15  and  C10_17 
ROOT
HETATM    1  C6  UNL     1      -4.446   2.398  13.543  1.00  0.00     0.155 C 
HETATM    2  N1  UNL     1      -4.346   1.262  14.447  1.00  0.00    -0.347 N 
ATOM      3  H1  UNL     1      -4.619   0.279  14.412  1.00  0.00     0.163 HD
HETATM    4  C7  UNL     1      -3.707   2.104  15.397  1.00  0.00     0.258 C 
HETATM    5  O1  UNL     1      -2.885   1.819  16.329  1.00  0.00    -0.270 OA
HETATM    6  C8  UNL     1      -4.379   3.252  14.830  1.00  0.00     0.236 C 
ENDROOT
BRANCH   6   7
HETATM    7  N2  UNL     1      -3.623   4.447  14.641  1.00  0.00    -0.333 N 
HETATM    8  C9  UNL     1      -4.005   5.445  13.722  1.00  0.00     0.233 C 
HETATM    9  O2  UNL     1      -5.017   5.429  12.986  1.00  0.00    -0.272 OA
ATOM     10  H2  UNL     1      -2.775   4.584  15.191  1.00  0.00     0.164 HD
BRANCH   8  11
HETATM   11  C10 UNL     1      -3.139   6.683  13.569  1.00  0.00     0.146 C 
HETATM   12  C11 UNL     1      -2.997   7.414  14.880  1.00  0.00     0.032 C 
HETATM   13 BR1  UNL     1      -1.363   6.057  13.058  1.00  0.00    -0.082 Br
ENDBRANCH   8  11
ENDBRANCH   6   7
BRANCH   6  14
HETATM   14  C12 UNL     1      -5.840   3.469  15.239  1.00  0.00     0.424 C 
HETATM   15  F1  UNL     1      -6.047   2.677  16.367  1.00  0.00    -0.168 F 
HETATM   16  F2  UNL     1      -6.754   3.337  14.272  1.00  0.00    -0.168 F 
HETATM   17  F3  UNL     1      -5.953   4.780  15.720  1.00  0.00    -0.168 F 
ENDBRANCH   6  14
BRANCH   1  18
HETATM   18  C5  UNL     1      -3.238   2.449  12.715  1.00  0.00     0.008 C 
HETATM   19  C2  UNL     1      -3.281   1.884  11.500  1.00  0.00    -0.063 C 
HETATM   20  C1  UNL     1      -2.040   1.958  10.693  1.00  0.00     0.048 C 
BRANCH  19  21
HETATM   21  C3  UNL     1      -4.492   1.247  11.047  1.00  0.00     0.018 C 
HETATM   22  C4  UNL     1      -4.777  -0.018  11.027  1.00  0.00     0.085 C 
HETATM   23 CL1  UNL     1      -3.664  -1.228  11.583  1.00  0.00    -0.097 Cl
ENDBRANCH  19  21
ENDBRANCH   1  18
TORSDOF 5
ENDMDL
MODEL 4
REMARK VINA RESULT: -6.538142119      1.118      1.218
REMARK  5 active torsions:
REMARK  status: ('A' for Active; 'I' for Inactive)
REMARK    1  A    between atoms: C2_2  and  C3_3 
REMARK    2  A    between atoms: C5_6  and  C6_7 
REMARK    3  A    between atoms: C8_12  and  N2_13 
REMARK    4  A    between atoms: C8_12  and  C12_20 
REMARK       I    between atoms: N2_13  and  C9_15 
REMARK    5  A    between atoms: C9_15  and  C10_17 
ROOT
HETATM    1  C6  UNL     1      -4.155   2.338  12.896  1.00  0.00     0.155 C 
HETATM    2  N1  UNL     1      -5.200   2.376  11.884  1.00  0.00    -0.347 N 
ATOM      3  H1  UNL     1      -6.208   2.223  11.873  1.00  0.00     0.163 HD
HETATM    4  C7  UNL     1      -4.216   2.717  10.915  1.00  0.00     0.258 C 
HETATM    5  O1  UNL     1      -4.326   3.361   9.820  1.00  0.00    -0.270 OA
HETATM    6  C8  UNL     1      -3.206   2.054  11.710  1.00  0.00     0.236 C 
ENDROOT
BRANCH   6   7
HETATM    7  N2  UNL     1      -1.943   2.699  11.868  1.00  0.00    -0.333 N 
HETATM    8  C9  UNL     1      -1.065   2.915  10.788  1.00  0.00     0.233 C 
HETATM    9  O2  UNL     1      -1.263   2.595   9.594  1.00  0.00    -0.272 OA
ATOM     10  H2  UNL     1      -1.667   3.017  12.797  1.00  0.00     0.164 HD
BRANCH   8  11
HETATM   11  C10 UNL     1       0.268   3.598  11.041  1.00  0.00     0.146 C 
HETATM   12  C11 UNL     1       0.986   3.885   9.746  1.00  0.00     0.032 C 
HETATM   13 BR1  UNL     1      -0.137   5.315  11.874  1.00  0.00    -0.082 Br
ENDBRANCH   8  11
ENDBRANCH   6   7
BRANCH   6  14
HETATM   14  C12 UNL     1      -3.143   0.526  11.611  1.00  0.00     0.424 C 
HETATM   15  F1  UNL     1      -3.507   0.208  10.303  1.00  0.00    -0.168 F 
HETATM   16  F2  UNL     1      -3.782  -0.160  12.565  1.00  0.00    -0.168 F 
HETATM   17  F3  UNL     1      -1.794   0.154  11.686  1.00  0.00    -0.168 F 
ENDBRANCH   6  14
BRANCH   1  18
HETATM   18  C5  UNL     1      -4.016   3.675  13.479  1.00  0.00     0.008 C 
HETATM   19  C2  UNL     1      -4.859   4.027  14.461  1.00  0.00    -0.063 C 
HETATM   20  C1  UNL     1      -4.685   5.387  15.025  1.00  0.00     0.048 C 
BRANCH  19  21
HETATM   21  C3  UNL     1      -5.867   3.099  14.909  1.00  0.00     0.018 C 
HETATM   22  C4  UNL     1      -5.745   2.127  15.760  1.00  0.00     0.085 C 
HETATM   23 CL1  UNL     1      -4.240   1.768  16.547  1.00  0.00    -0.097 Cl
ENDBRANCH  19  21
ENDBRANCH   1  18
TORSDOF 5
ENDMDL
MODEL 5
REMARK VINA RESULT: -6.455293958      1.606      1.766
REMARK  5 active torsions:
REMARK  status: ('A' for Active; 'I' for Inactive)
REMARK    1  A    between atoms: C2_2  and  C3_3 
REMARK    2  A    between atoms: C5_6  and  C6_7 
REMARK    3  A    between atoms: C8_12  and  N2_13 
REMARK    4  A    between atoms: C8_12  and  C12_20 
REMARK       I    between atoms: N2_13  and  C9_15 
REMARK    5  A    between atoms: C9_15  and  C10_17 
ROOT
HETATM    1  C6  UNL     1      -3.364   2.654  12.702  1.00  0.00     0.155 C 
HETATM    2  N1  UNL     1      -4.573   2.471  11.914  1.00  0.00    -0.347 N 
ATOM      3  H1  UNL     1      -5.522   2.146  12.102  1.00  0.00     0.163 HD
HETATM    4  C7  UNL     1      -3.870   2.939  10.770  1.00  0.00     0.258 C 
HETATM    5  O1  UNL     1      -4.300   3.512   9.715  1.00  0.00    -0.270 OA
HETATM    6  C8  UNL     1      -2.624   2.492  11.354  1.00  0.00     0.236 C 
ENDROOT
BRANCH   6   7
HETATM    7  N2  UNL     1      -1.490   3.352  11.258  1.00  0.00    -0.333 N 
HETATM    8  C9  UNL     1      -0.828   3.596  10.039  1.00  0.00     0.233 C 
HETATM    9  O2  UNL     1      -1.133   3.125   8.920  1.00  0.00    -0.272 OA
ATOM     10  H2  UNL     1      -1.146   3.807  12.104  1.00  0.00     0.164 HD
BRANCH   8  11
HETATM   11  C10 UNL     1       0.382   4.515  10.022  1.00  0.00     0.146 C 
HETATM   12  C11 UNL     1       1.384   4.113  11.074  1.00  0.00     0.032 C 
HETATM   13 BR1  UNL     1       1.235   4.276   8.285  1.00  0.00    -0.082 Br
ENDBRANCH   8  11
ENDBRANCH   6   7
BRANCH   6  14
HETATM   14  C12 UNL     1      -2.312   0.995  11.251  1.00  0.00     0.424 C 
HETATM   15  F1  UNL     1      -2.593   0.631   9.935  1.00  0.00    -0.168 F 
HETATM   16  F2  UNL     1      -2.851   0.209  12.189  1.00  0.00    -0.168 F 
HETATM   17  F3  UNL     1      -0.923   0.847  11.355  1.00  0.00    -0.168 F 
ENDBRANCH   6  14
BRANCH   1  18
HETATM   18  C5  UNL     1      -3.354   4.017  13.241  1.00  0.00     0.008 C 
HETATM   19  C2  UNL     1      -3.557   4.177  14.556  1.00  0.00    -0.063 C 
HETATM   20  C1  UNL     1      -3.539   5.570  15.062  1.00  0.00     0.048 C 
BRANCH  19  21
HETATM   21  C3  UNL     1      -3.780   3.026  15.394  1.00  0.00     0.018 C 
HETATM   22  C4  UNL     1      -4.893   2.615  15.919  1.00  0.00     0.085 C 
HETATM   23 CL1  UNL     1      -6.395   3.450  15.676  1.00  0.00    -0.097 Cl
ENDBRANCH  19  21
ENDBRANCH   1  18
TORSDOF 5
ENDMDL
