MODEL 1
REMARK VINA RESULT: -5.525282263      0.000      0.000
REMARK  3 active torsions:
REMARK  status: ('A' for Active; 'I' for Inactive)
REMARK    1  A    between atoms: N1_1  and  C1_4 
REMARK    2  A    between atoms: C2_7  and  C3_8 
REMARK    3  A    between atoms: C3_8  and  N3_9 
ROOT
HETATM    1  C3  UNL     1     -41.288 -30.248  -3.733  1.00  0.00     0.217 C 
ENDROOT
BRANCH   1   2
HETATM    2  C2  UNL     1     -41.556 -29.842  -2.340  1.00  0.00     0.131 A 
HETATM    3  N2  UNL     1     -40.970 -30.281  -1.224  1.00  0.00    -0.177 N 
HETATM    4  C1  UNL     1     -41.519 -29.643  -0.149  1.00  0.00     0.691 A 
ATOM      5  H2  UNL     1     -40.230 -30.982  -1.182  1.00  0.00     0.185 HD
HETATM    6  N7  UNL     1     -42.441 -28.818  -0.644  1.00  0.00    -0.131 N 
HETATM    7  N6  UNL     1     -42.470 -28.932  -1.969  1.00  0.00    -0.273 N 
ATOM      8  H7  UNL     1     -43.032 -28.196  -0.093  1.00  0.00     0.205 HD
ATOM      9  H6  UNL     1     -43.085 -28.415  -2.598  1.00  0.00     0.189 HD
BRANCH   4  10
HETATM   10  N1  UNL     1     -41.156 -29.860   1.067  1.00  0.00    -0.233 N 
ATOM     11  H12 UNL     1     -40.261 -29.703   1.529  1.00  0.00     0.174 HD
ATOM     12  H11 UNL     1     -41.775 -30.248   1.778  1.00  0.00     0.174 HD
ENDBRANCH   4  10
ENDBRANCH   1   2
BRANCH   1  13
HETATM   13  N3  UNL     1     -39.929 -29.964  -4.153  1.00  0.00    -0.244 N 
HETATM   14  C4  UNL     1     -38.995 -30.917  -4.326  1.00  0.00     0.334 A 
HETATM   15  O1  UNL     1     -39.355 -32.102  -4.104  1.00  0.00    -0.246 OA
HETATM   16  N4  UNL     1     -37.735 -30.651  -4.717  1.00  0.00    -0.260 N 
HETATM   17  C5  UNL     1     -37.378 -29.386  -4.946  1.00  0.00     0.332 A 
ATOM     18  H4  UNL     1     -37.061 -31.407  -4.836  1.00  0.00     0.175 HD
HETATM   19  O2  UNL     1     -36.194 -29.143  -5.312  1.00  0.00    -0.246 OA
HETATM   20  N5  UNL     1     -38.295 -28.402  -4.781  1.00  0.00    -0.260 N 
HETATM   21  C6  UNL     1     -39.559 -28.693  -4.387  1.00  0.00     0.334 A 
ATOM     22  H5  UNL     1     -38.031 -27.433  -4.955  1.00  0.00     0.175 HD
HETATM   23  O3  UNL     1     -40.337 -27.711  -4.261  1.00  0.00    -0.246 OA
ENDBRANCH   1  13
TORSDOF 3
ENDMDL
MODEL 2
REMARK VINA RESULT: -5.519280410      0.054      1.966
REMARK  3 active torsions:
REMARK  status: ('A' for Active; 'I' for Inactive)
REMARK    1  A    between atoms: N1_1  and  C1_4 
REMARK    2  A    between atoms: C2_7  and  C3_8 
REMARK    3  A    between atoms: C3_8  and  N3_9 
ROOT
HETATM    1  C3  UNL     1     -41.319 -30.179  -3.728  1.00  0.00     0.217 C 
ENDROOT
BRANCH   1   2
HETATM    2  C2  UNL     1     -41.576 -29.801  -2.326  1.00  0.00     0.131 A 
HETATM    3  N2  UNL     1     -40.979 -30.260  -1.223  1.00  0.00    -0.177 N 
HETATM    4  C1  UNL     1     -41.519 -29.642  -0.131  1.00  0.00     0.691 A 
ATOM      5  H2  UNL     1     -40.237 -30.959  -1.201  1.00  0.00     0.185 HD
HETATM    6  N7  UNL     1     -42.447 -28.810  -0.603  1.00  0.00    -0.131 N 
HETATM    7  N6  UNL     1     -42.488 -28.900  -1.929  1.00  0.00    -0.273 N 
ATOM      8  H7  UNL     1     -43.034 -28.200  -0.035  1.00  0.00     0.205 HD
ATOM      9  H6  UNL     1     -43.109 -28.371  -2.542  1.00  0.00     0.189 HD
BRANCH   4  10
HETATM   10  N1  UNL     1     -41.144 -29.881   1.077  1.00  0.00    -0.233 N 
ATOM     11  H12 UNL     1     -40.661 -29.288   1.751  1.00  0.00     0.174 HD
ATOM     12  H11 UNL     1     -41.300 -30.772   1.548  1.00  0.00     0.174 HD
ENDBRANCH   4  10
ENDBRANCH   1   2
BRANCH   1  13
HETATM   13  N3  UNL     1     -39.962 -29.894  -4.152  1.00  0.00    -0.244 N 
HETATM   14  C4  UNL     1     -39.515 -28.654  -4.417  1.00  0.00     0.334 A 
HETATM   15  O1  UNL     1     -40.345 -27.717  -4.278  1.00  0.00    -0.246 OA
HETATM   16  N4  UNL     1     -38.255 -28.393  -4.810  1.00  0.00    -0.260 N 
HETATM   17  C5  UNL     1     -37.395 -29.403  -4.951  1.00  0.00     0.332 A 
ATOM     18  H4  UNL     1     -37.961 -27.434  -4.999  1.00  0.00     0.175 HD
HETATM   19  O2  UNL     1     -36.214 -29.151  -5.321  1.00  0.00    -0.246 OA
HETATM   20  N5  UNL     1     -37.813 -30.665  -4.692  1.00  0.00    -0.260 N 
HETATM   21  C6  UNL     1     -39.087 -30.906  -4.297  1.00  0.00     0.334 A 
ATOM     22  H5  UNL     1     -37.161 -31.443  -4.796  1.00  0.00     0.175 HD
HETATM   23  O3  UNL     1     -39.379 -32.111  -4.081  1.00  0.00    -0.246 OA
ENDBRANCH   1  13
TORSDOF 3
ENDMDL
MODEL 3
REMARK VINA RESULT: -5.474099380      0.856      1.268
REMARK  3 active torsions:
REMARK  status: ('A' for Active; 'I' for Inactive)
REMARK    1  A    between atoms: N1_1  and  C1_4 
REMARK    2  A    between atoms: C2_7  and  C3_8 
REMARK    3  A    between atoms: C3_8  and  N3_9 
ROOT
HETATM    1  C3  UNL     1     -41.220 -30.255  -4.480  1.00  0.00     0.217 C 
ENDROOT
BRANCH   1   2
HETATM    2  C2  UNL     1     -41.448 -30.291  -3.023  1.00  0.00     0.131 A 
HETATM    3  N2  UNL     1     -41.867 -29.304  -2.228  1.00  0.00    -0.177 N 
HETATM    4  C1  UNL     1     -41.942 -29.764  -0.944  1.00  0.00     0.691 A 
ATOM      5  H2  UNL     1     -42.094 -28.357  -2.531  1.00  0.00     0.185 HD
HETATM    6  N7  UNL     1     -41.560 -31.040  -0.990  1.00  0.00    -0.131 N 
HETATM    7  N6  UNL     1     -41.260 -31.367  -2.244  1.00  0.00    -0.273 N 
ATOM      8  H7  UNL     1     -41.507 -31.668  -0.188  1.00  0.00     0.205 HD
ATOM      9  H6  UNL     1     -40.940 -32.283  -2.560  1.00  0.00     0.189 HD
BRANCH   4  10
HETATM   10  N1  UNL     1     -42.317 -29.037   0.050  1.00  0.00    -0.233 N 
ATOM     11  H12 UNL     1     -43.247 -28.733   0.335  1.00  0.00     0.174 HD
ATOM     12  H11 UNL     1     -41.670 -28.644   0.733  1.00  0.00     0.174 HD
ENDBRANCH   4  10
ENDBRANCH   1   2
BRANCH   1  13
HETATM   13  N3  UNL     1     -39.851 -29.933  -4.832  1.00  0.00    -0.244 N 
HETATM   14  C4  UNL     1     -38.962 -30.847  -5.261  1.00  0.00     0.334 A 
HETATM   15  O1  UNL     1     -39.377 -32.032  -5.351  1.00  0.00    -0.246 OA
HETATM   16  N4  UNL     1     -37.692 -30.545  -5.587  1.00  0.00    -0.260 N 
HETATM   17  C5  UNL     1     -37.278 -29.281  -5.483  1.00  0.00     0.332 A 
ATOM     18  H4  UNL     1     -37.055 -31.273  -5.909  1.00  0.00     0.175 HD
HETATM   19  O2  UNL     1     -36.084 -29.004  -5.790  1.00  0.00    -0.246 OA
HETATM   20  N5  UNL     1     -38.147 -28.335  -5.053  1.00  0.00    -0.260 N 
HETATM   21  C6  UNL     1     -39.422 -28.662  -4.730  1.00  0.00     0.334 A 
ATOM     22  H5  UNL     1     -37.838 -27.367  -4.972  1.00  0.00     0.175 HD
HETATM   23  O3  UNL     1     -40.153 -27.713  -4.341  1.00  0.00    -0.246 OA
ENDBRANCH   1  13
TORSDOF 3
ENDMDL
MODEL 4
REMARK VINA RESULT: -5.469069537      0.851      2.292
REMARK  3 active torsions:
REMARK  status: ('A' for Active; 'I' for Inactive)
REMARK    1  A    between atoms: N1_1  and  C1_4 
REMARK    2  A    between atoms: C2_7  and  C3_8 
REMARK    3  A    between atoms: C3_8  and  N3_9 
ROOT
HETATM    1  C3  UNL     1     -41.233 -30.237  -4.394  1.00  0.00     0.217 C 
ENDROOT
BRANCH   1   2
HETATM    2  C2  UNL     1     -41.422 -30.355  -2.936  1.00  0.00     0.131 A 
HETATM    3  N2  UNL     1     -41.691 -29.386  -2.057  1.00  0.00    -0.177 N 
HETATM    4  C1  UNL     1     -41.788 -29.930  -0.807  1.00  0.00     0.691 A 
ATOM      5  H2  UNL     1     -41.806 -28.399  -2.282  1.00  0.00     0.185 HD
HETATM    6  N7  UNL     1     -41.571 -31.236  -0.959  1.00  0.00    -0.131 N 
HETATM    7  N6  UNL     1     -41.350 -31.501  -2.243  1.00  0.00    -0.273 N 
ATOM      8  H7  UNL     1     -41.575 -31.925  -0.207  1.00  0.00     0.205 HD
ATOM      9  H6  UNL     1     -41.156 -32.423  -2.635  1.00  0.00     0.189 HD
BRANCH   4  10
HETATM   10  N1  UNL     1     -42.040 -29.240   0.249  1.00  0.00    -0.233 N 
ATOM     11  H12 UNL     1     -41.887 -28.251   0.448  1.00  0.00     0.174 HD
ATOM     12  H11 UNL     1     -42.461 -29.634   1.091  1.00  0.00     0.174 HD
ENDBRANCH   4  10
ENDBRANCH   1   2
BRANCH   1  13
HETATM   13  N3  UNL     1     -39.872 -29.899  -4.763  1.00  0.00    -0.244 N 
HETATM   14  C4  UNL     1     -39.381 -28.647  -4.715  1.00  0.00     0.334 A 
HETATM   15  O1  UNL     1     -40.173 -27.750  -4.324  1.00  0.00    -0.246 OA
HETATM   16  N4  UNL     1     -38.118 -28.337  -5.058  1.00  0.00    -0.260 N 
HETATM   17  C5  UNL     1     -37.299 -29.307  -5.469  1.00  0.00     0.332 A 
ATOM     18  H4  UNL     1     -37.791 -27.372  -5.004  1.00  0.00     0.175 HD
HETATM   19  O2  UNL     1     -36.114 -29.008  -5.789  1.00  0.00    -0.246 OA
HETATM   20  N5  UNL     1     -37.761 -30.579  -5.528  1.00  0.00    -0.260 N 
HETATM   21  C6  UNL     1     -39.037 -30.869  -5.178  1.00  0.00     0.334 A 
ATOM     22  H5  UNL     1     -37.141 -31.326  -5.840  1.00  0.00     0.175 HD
HETATM   23  O3  UNL     1     -39.372 -32.079  -5.268  1.00  0.00    -0.246 OA
ENDBRANCH   1  13
TORSDOF 3
ENDMDL
MODEL 5
REMARK VINA RESULT: -5.401592504      1.982      5.385
REMARK  3 active torsions:
REMARK  status: ('A' for Active; 'I' for Inactive)
REMARK    1  A    between atoms: N1_1  and  C1_4 
REMARK    2  A    between atoms: C2_7  and  C3_8 
REMARK    3  A    between atoms: C3_8  and  N3_9 
ROOT
HETATM    1  C3  UNL     1     -40.755 -30.086  -5.076  1.00  0.00     0.217 C 
ENDROOT
BRANCH   1   2
HETATM    2  C2  UNL     1     -39.396 -29.517  -5.153  1.00  0.00     0.131 A 
HETATM    3  N2  UNL     1     -38.291 -30.083  -5.642  1.00  0.00    -0.177 N 
HETATM    4  C1  UNL     1     -37.248 -29.209  -5.519  1.00  0.00     0.691 A 
ATOM      5  H2  UNL     1     -38.234 -31.018  -6.044  1.00  0.00     0.185 HD
HETATM    6  N7  UNL     1     -37.753 -28.116  -4.948  1.00  0.00    -0.131 N 
HETATM    7  N6  UNL     1     -39.051 -28.294  -4.723  1.00  0.00    -0.273 N 
ATOM      8  H7  UNL     1     -37.225 -27.274  -4.719  1.00  0.00     0.205 HD
ATOM      9  H6  UNL     1     -39.680 -27.614  -4.295  1.00  0.00     0.189 HD
BRANCH   4  10
HETATM   10  N1  UNL     1     -36.049 -29.475  -5.905  1.00  0.00    -0.233 N 
ATOM     11  H12 UNL     1     -35.184 -28.948  -5.792  1.00  0.00     0.174 HD
ATOM     12  H11 UNL     1     -35.798 -30.322  -6.415  1.00  0.00     0.174 HD
ENDBRANCH   4  10
ENDBRANCH   1   2
BRANCH   1  13
HETATM   13  N3  UNL     1     -41.220 -30.261  -3.714  1.00  0.00    -0.244 N 
HETATM   14  C4  UNL     1     -41.908 -29.321  -3.040  1.00  0.00     0.334 A 
HETATM   15  O1  UNL     1     -42.141 -28.248  -3.657  1.00  0.00    -0.246 OA
HETATM   16  N4  UNL     1     -42.338 -29.486  -1.776  1.00  0.00    -0.260 N 
HETATM   17  C5  UNL     1     -42.077 -30.633  -1.145  1.00  0.00     0.332 A 
ATOM     18  H4  UNL     1     -42.857 -28.744  -1.306  1.00  0.00     0.175 HD
HETATM   19  O2  UNL     1     -42.484 -30.781   0.041  1.00  0.00    -0.246 OA
HETATM   20  N5  UNL     1     -41.387 -31.600  -1.795  1.00  0.00    -0.260 N 
HETATM   21  C6  UNL     1     -40.963 -31.412  -3.068  1.00  0.00     0.334 A 
ATOM     22  H5  UNL     1     -41.184 -32.480  -1.320  1.00  0.00     0.175 HD
HETATM   23  O3  UNL     1     -40.329 -32.370  -3.585  1.00  0.00    -0.246 OA
ENDBRANCH   1  13
TORSDOF 3
ENDMDL
