MODEL 1
REMARK VINA RESULT: -5.438662665      0.000      0.000
REMARK  4 active torsions:
REMARK  status: ('A' for Active; 'I' for Inactive)
REMARK    1  A    between atoms: N1_1  and  N2_4 
REMARK    2  A    between atoms: N2_4  and  C1_6 
REMARK    3  A    between atoms: C2_11  and  C3_12 
REMARK    4  A    between atoms: C3_12  and  N5_13 
ROOT
HETATM    1  C1  UNL     1     -37.447 -29.265  -4.811  1.00  0.00     0.712 A 
HETATM    2  N3  UNL     1     -38.069 -28.112  -5.059  1.00  0.00    -0.129 N 
ATOM      3  H3  UNL     1     -37.732 -27.360  -5.659  1.00  0.00     0.205 HD
HETATM    4  N4  UNL     1     -39.204 -28.124  -4.381  1.00  0.00    -0.273 N 
ATOM      5  H4  UNL     1     -39.891 -27.369  -4.378  1.00  0.00     0.189 HD
HETATM    6  C2  UNL     1     -39.322 -29.277  -3.697  1.00  0.00     0.132 A 
HETATM    7  N8  UNL     1     -38.221 -29.997  -3.964  1.00  0.00    -0.175 N 
ATOM      8  H8  UNL     1     -38.004 -30.925  -3.597  1.00  0.00     0.185 HD
ENDROOT
BRANCH   6   9
HETATM    9  C3  UNL     1     -40.444 -29.686  -2.819  1.00  0.00     0.228 C 
BRANCH   9  10
HETATM   10  N5  UNL     1     -41.680 -29.428  -3.479  1.00  0.00    -0.239 N 
HETATM   11  N6  UNL     1     -41.829 -29.701  -4.839  1.00  0.00    -0.133 NA
HETATM   12  C4  UNL     1     -42.927 -30.586  -5.038  1.00  0.00     0.155 C 
HETATM   13  C5  UNL     1     -44.185 -30.208  -4.345  1.00  0.00     0.142 C 
HETATM   14  N7  UNL     1     -44.059 -29.066  -3.463  1.00  0.00    -0.341 N 
HETATM   15  C6  UNL     1     -42.812 -28.888  -2.810  1.00  0.00     0.334 C 
ATOM     16  H7  UNL     1     -44.834 -28.419  -3.317  1.00  0.00     0.164 HD
HETATM   17  O1  UNL     1     -42.685 -28.295  -1.710  1.00  0.00    -0.246 OA
ENDBRANCH   9  10
ENDBRANCH   6   9
BRANCH   1  18
HETATM   18  N2  UNL     1     -36.304 -29.694  -5.258  1.00  0.00    -0.137 N 
ATOM     19  H2  UNL     1     -35.426 -29.456  -4.796  1.00  0.00     0.205 HD
BRANCH  18  20
HETATM   20  N1  UNL     1     -36.334 -30.497  -6.403  1.00  0.00    -0.331 N 
ATOM     21  H12 UNL     1     -36.259 -30.082  -7.331  1.00  0.00     0.177 HD
ATOM     22  H11 UNL     1     -36.433 -31.502  -6.259  1.00  0.00     0.177 HD
ENDBRANCH  18  20
ENDBRANCH   1  18
TORSDOF 4
ENDMDL
MODEL 2
REMARK VINA RESULT: -5.300798435      2.542      5.497
REMARK  4 active torsions:
REMARK  status: ('A' for Active; 'I' for Inactive)
REMARK    1  A    between atoms: N1_1  and  N2_4 
REMARK    2  A    between atoms: N2_4  and  C1_6 
REMARK    3  A    between atoms: C2_11  and  C3_12 
REMARK    4  A    between atoms: C3_12  and  N5_13 
ROOT
HETATM    1  C1  UNL     1     -41.712 -29.544  -0.176  1.00  0.00     0.712 A 
HETATM    2  N3  UNL     1     -42.574 -28.810  -0.881  1.00  0.00    -0.129 N 
ATOM      3  H3  UNL     1     -43.273 -28.170  -0.503  1.00  0.00     0.205 HD
HETATM    4  N4  UNL     1     -42.356 -29.067  -2.159  1.00  0.00    -0.273 N 
ATOM      5  H4  UNL     1     -42.870 -28.648  -2.936  1.00  0.00     0.189 HD
HETATM    6  C2  UNL     1     -41.358 -29.961  -2.287  1.00  0.00     0.132 A 
HETATM    7  N8  UNL     1     -40.950 -30.264  -1.044  1.00  0.00    -0.175 N 
ATOM      8  H8  UNL     1     -40.205 -30.915  -0.796  1.00  0.00     0.185 HD
ENDROOT
BRANCH   6   9
HETATM    9  C3  UNL     1     -40.805 -30.511  -3.548  1.00  0.00     0.228 C 
BRANCH   9  10
HETATM   10  N5  UNL     1     -39.563 -29.877  -3.837  1.00  0.00    -0.239 N 
HETATM   11  N6  UNL     1     -38.357 -30.547  -3.624  1.00  0.00    -0.133 NA
HETATM   12  C4  UNL     1     -37.605 -30.583  -4.833  1.00  0.00     0.155 C 
HETATM   13  C5  UNL     1     -37.471 -29.286  -5.541  1.00  0.00     0.142 C 
HETATM   14  N7  UNL     1     -38.243 -28.207  -4.960  1.00  0.00    -0.341 N 
HETATM   15  C6  UNL     1     -39.475 -28.552  -4.345  1.00  0.00     0.334 C 
ATOM     16  H7  UNL     1     -37.916 -27.241  -4.992  1.00  0.00     0.164 HD
HETATM   17  O1  UNL     1     -40.443 -27.759  -4.242  1.00  0.00    -0.246 OA
ENDBRANCH   9  10
ENDBRANCH   6   9
BRANCH   1  18
HETATM   18  N2  UNL     1     -41.558 -29.618   1.113  1.00  0.00    -0.137 N 
ATOM     19  H2  UNL     1     -40.688 -29.951   1.529  1.00  0.00     0.205 HD
BRANCH  18  20
HETATM   20  N1  UNL     1     -42.640 -29.218   1.904  1.00  0.00    -0.331 N 
ATOM     21  H12 UNL     1     -43.392 -29.871   2.124  1.00  0.00     0.177 HD
ATOM     22  H11 UNL     1     -42.634 -28.255   2.242  1.00  0.00     0.177 HD
ENDBRANCH  18  20
ENDBRANCH   1  18
TORSDOF 4
ENDMDL
MODEL 3
REMARK VINA RESULT: -5.181114960      1.780      2.065
REMARK  4 active torsions:
REMARK  status: ('A' for Active; 'I' for Inactive)
REMARK    1  A    between atoms: N1_1  and  N2_4 
REMARK    2  A    between atoms: N2_4  and  C1_6 
REMARK    3  A    between atoms: C2_11  and  C3_12 
REMARK    4  A    between atoms: C3_12  and  N5_13 
ROOT
HETATM    1  C1  UNL     1     -37.179 -29.232  -5.564  1.00  0.00     0.712 A 
HETATM    2  N3  UNL     1     -37.629 -28.110  -5.001  1.00  0.00    -0.129 N 
ATOM      3  H3  UNL     1     -37.073 -27.290  -4.759  1.00  0.00     0.205 HD
HETATM    4  N4  UNL     1     -38.929 -28.258  -4.813  1.00  0.00    -0.273 N 
ATOM      5  H4  UNL     1     -39.544 -27.557  -4.396  1.00  0.00     0.189 HD
HETATM    6  C2  UNL     1     -39.325 -29.468  -5.251  1.00  0.00     0.132 A 
HETATM    7  N8  UNL     1     -38.229 -30.083  -5.724  1.00  0.00    -0.175 N 
ATOM      8  H8  UNL     1     -38.191 -31.019  -6.129  1.00  0.00     0.185 HD
ENDROOT
BRANCH   6   9
HETATM    9  C3  UNL     1     -40.699 -30.024  -5.226  1.00  0.00     0.228 C 
BRANCH   9  10
HETATM   10  N5  UNL     1     -41.254 -29.856  -3.925  1.00  0.00    -0.239 N 
HETATM   11  N6  UNL     1     -41.720 -28.608  -3.507  1.00  0.00    -0.133 NA
HETATM   12  C4  UNL     1     -43.084 -28.711  -3.106  1.00  0.00     0.155 C 
HETATM   13  C5  UNL     1     -43.393 -29.826  -2.176  1.00  0.00     0.142 C 
HETATM   14  N7  UNL     1     -42.281 -30.721  -1.927  1.00  0.00    -0.341 N 
HETATM   15  C6  UNL     1     -41.362 -30.921  -2.991  1.00  0.00     0.334 C 
ATOM     16  H7  UNL     1     -42.164 -31.187  -1.027  1.00  0.00     0.164 HD
HETATM   17  O1  UNL     1     -40.675 -31.964  -3.124  1.00  0.00    -0.246 OA
ENDBRANCH   9  10
ENDBRANCH   6   9
BRANCH   1  18
HETATM   18  N2  UNL     1     -35.970 -29.540  -5.929  1.00  0.00    -0.137 N 
ATOM     19  H2  UNL     1     -35.166 -28.982  -5.639  1.00  0.00     0.205 HD
BRANCH  18  20
HETATM   20  N1  UNL     1     -35.822 -30.671  -6.738  1.00  0.00    -0.331 N 
ATOM     21  H12 UNL     1     -34.901 -31.078  -6.898  1.00  0.00     0.177 HD
ATOM     22  H11 UNL     1     -36.671 -31.058  -7.151  1.00  0.00     0.177 HD
ENDBRANCH  18  20
ENDBRANCH   1  18
TORSDOF 4
ENDMDL
MODEL 4
REMARK VINA RESULT: -5.130342461      3.095      5.247
REMARK  4 active torsions:
REMARK  status: ('A' for Active; 'I' for Inactive)
REMARK    1  A    between atoms: N1_1  and  N2_4 
REMARK    2  A    between atoms: N2_4  and  C1_6 
REMARK    3  A    between atoms: C2_11  and  C3_12 
REMARK    4  A    between atoms: C3_12  and  N5_13 
ROOT
HETATM    1  C1  UNL     1     -41.861 -30.406  -8.727  1.00  0.00     0.712 A 
HETATM    2  N3  UNL     1     -40.751 -31.140  -8.800  1.00  0.00    -0.129 N 
ATOM      3  H3  UNL     1     -40.325 -31.509  -9.650  1.00  0.00     0.205 HD
HETATM    4  N4  UNL     1     -40.303 -31.300  -7.566  1.00  0.00    -0.273 N 
ATOM      5  H4  UNL     1     -39.464 -31.823  -7.311  1.00  0.00     0.189 HD
HETATM    6  C2  UNL     1     -41.116 -30.674  -6.695  1.00  0.00     0.132 A 
HETATM    7  N8  UNL     1     -42.096 -30.110  -7.419  1.00  0.00    -0.175 N 
ATOM      8  H8  UNL     1     -42.875 -29.561  -7.055  1.00  0.00     0.185 HD
ENDROOT
BRANCH   6   9
HETATM    9  C3  UNL     1     -40.969 -30.609  -5.221  1.00  0.00     0.228 C 
BRANCH   9  10
HETATM   10  N5  UNL     1     -39.675 -30.110  -4.896  1.00  0.00    -0.239 N 
HETATM   11  N6  UNL     1     -38.577 -30.970  -4.837  1.00  0.00    -0.133 NA
HETATM   12  C4  UNL     1     -37.557 -30.512  -5.722  1.00  0.00     0.155 C 
HETATM   13  C5  UNL     1     -37.217 -29.072  -5.614  1.00  0.00     0.142 C 
HETATM   14  N7  UNL     1     -38.073 -28.323  -4.717  1.00  0.00    -0.341 N 
HETATM   15  C6  UNL     1     -39.426 -28.739  -4.617  1.00  0.00     0.334 C 
ATOM     16  H7  UNL     1     -37.719 -27.530  -4.181  1.00  0.00     0.164 HD
HETATM   17  O1  UNL     1     -40.366 -27.967  -4.304  1.00  0.00    -0.246 OA
ENDBRANCH   9  10
ENDBRANCH   6   9
BRANCH   1  18
HETATM   18  N2  UNL     1     -42.640 -29.997  -9.685  1.00  0.00    -0.137 N 
ATOM     19  H2  UNL     1     -43.648 -30.154  -9.656  1.00  0.00     0.205 HD
BRANCH  18  20
HETATM   20  N1  UNL     1     -42.033 -29.334 -10.756  1.00  0.00    -0.331 N 
ATOM     21  H12 UNL     1     -42.229 -29.612 -11.717  1.00  0.00     0.177 HD
ATOM     22  H11 UNL     1     -41.395 -28.573 -10.525  1.00  0.00     0.177 HD
ENDBRANCH  18  20
ENDBRANCH   1  18
TORSDOF 4
ENDMDL
MODEL 5
REMARK VINA RESULT: -4.956755995      1.506      2.073
REMARK  4 active torsions:
REMARK  status: ('A' for Active; 'I' for Inactive)
REMARK    1  A    between atoms: N1_1  and  N2_4 
REMARK    2  A    between atoms: N2_4  and  C1_6 
REMARK    3  A    between atoms: C2_11  and  C3_12 
REMARK    4  A    between atoms: C3_12  and  N5_13 
ROOT
HETATM    1  C1  UNL     1     -37.472 -29.153  -5.481  1.00  0.00     0.712 A 
HETATM    2  N3  UNL     1     -38.044 -28.114  -4.873  1.00  0.00    -0.129 N 
ATOM      3  H3  UNL     1     -37.572 -27.273  -4.542  1.00  0.00     0.205 HD
HETATM    4  N4  UNL     1     -39.336 -28.376  -4.778  1.00  0.00    -0.273 N 
ATOM      5  H4  UNL     1     -40.029 -27.757  -4.355  1.00  0.00     0.189 HD
HETATM    6  C2  UNL     1     -39.605 -29.577  -5.322  1.00  0.00     0.132 A 
HETATM    7  N8  UNL     1     -38.437 -30.070  -5.766  1.00  0.00    -0.175 N 
ATOM      8  H8  UNL     1     -38.299 -30.967  -6.230  1.00  0.00     0.185 HD
ENDROOT
BRANCH   6   9
HETATM    9  C3  UNL     1     -40.928 -30.239  -5.422  1.00  0.00     0.228 C 
BRANCH   9  10
HETATM   10  N5  UNL     1     -41.543 -30.263  -4.138  1.00  0.00    -0.239 N 
HETATM   11  N6  UNL     1     -40.901 -30.864  -3.054  1.00  0.00    -0.133 NA
HETATM   12  C4  UNL     1     -40.766 -29.926  -1.990  1.00  0.00     0.155 C 
HETATM   13  C5  UNL     1     -41.999 -29.180  -1.637  1.00  0.00     0.142 C 
HETATM   14  N7  UNL     1     -43.119 -29.425  -2.523  1.00  0.00    -0.341 N 
HETATM   15  C6  UNL     1     -42.820 -29.692  -3.885  1.00  0.00     0.334 C 
ATOM     16  H7  UNL     1     -44.081 -29.407  -2.183  1.00  0.00     0.164 HD
HETATM   17  O1  UNL     1     -43.613 -29.450  -4.828  1.00  0.00    -0.246 OA
ENDBRANCH   9  10
ENDBRANCH   6   9
BRANCH   1  18
HETATM   18  N2  UNL     1     -36.222 -29.339  -5.789  1.00  0.00    -0.137 N 
ATOM     19  H2  UNL     1     -35.505 -28.655  -5.545  1.00  0.00     0.205 HD
BRANCH  18  20
HETATM   20  N1  UNL     1     -35.907 -30.519  -6.470  1.00  0.00    -0.331 N 
ATOM     21  H12 UNL     1     -36.523 -30.879  -7.199  1.00  0.00     0.177 HD
ATOM     22  H11 UNL     1     -35.042 -30.989  -6.203  1.00  0.00     0.177 HD
ENDBRANCH  18  20
ENDBRANCH   1  18
TORSDOF 4
ENDMDL
