MODEL 1
REMARK VINA RESULT: -6.096727477      0.000      0.000
REMARK  8 active torsions:
REMARK  status: ('A' for Active; 'I' for Inactive)
REMARK    1  A    between atoms: C2_2  and  C3_3 
REMARK    2  A    between atoms: C3_3  and  C5_5 
REMARK    3  A    between atoms: C5_5  and  N1_6 
REMARK    4  A    between atoms: C5_5  and  C8_12 
REMARK       I    between atoms: N1_6  and  C6_8 
REMARK    5  A    between atoms: C6_8  and  C7_10 
REMARK    6  A    between atoms: C8_12  and  O2_13 
REMARK    7  A    between atoms: C8_12  and  N2_15 
REMARK    8  A    between atoms: C12_21  and  C14_23 
REMARK       I    between atoms: C14_23  and  N3_25 
ROOT
HETATM    1  C8  UNL     1      14.032  -9.731  19.259  1.00  0.00     0.167 C 
ENDROOT
BRANCH   1   2
HETATM    2  C5  UNL     1      14.373 -10.248  17.960  1.00  0.00     0.088 C 
BRANCH   2   3
HETATM    3  C3  UNL     1      13.888  -9.780  16.680  1.00  0.00    -0.053 C 
HETATM    4  C4  UNL     1      13.268 -10.819  15.819  1.00  0.00     0.046 C 
BRANCH   3   5
HETATM    5  C2  UNL     1      13.245  -8.464  16.510  1.00  0.00     0.031 C 
HETATM    6  C1  UNL     1      11.797  -8.726  16.065  1.00  0.00     0.010 C 
ENDBRANCH   3   5
ENDBRANCH   2   3
BRANCH   2   7
HETATM    7  N1  UNL     1      15.860 -10.402  17.939  1.00  0.00    -0.323 N 
HETATM    8  C6  UNL     1      16.542 -11.567  17.635  1.00  0.00     0.232 C 
HETATM    9  O1  UNL     1      15.917 -12.620  17.345  1.00  0.00    -0.272 OA
ATOM     10  H1  UNL     1      16.419  -9.580  18.170  1.00  0.00     0.169 HD
BRANCH   8  11
HETATM   11  C7  UNL     1      18.025 -11.578  17.648  1.00  0.00     0.188 C 
HETATM   12 BR1  UNL     1      18.721 -12.567  19.153  1.00  0.00    -0.087 Br
ENDBRANCH   8  11
ENDBRANCH   2   7
ENDBRANCH   1   2
BRANCH   1  13
HETATM   13  O2  UNL     1      14.432 -10.547  20.266  1.00  0.00    -0.344 OA
ATOM     14  H2  UNL     1      14.564 -10.081  21.083  1.00  0.00     0.219 HD
ENDBRANCH   1  13
BRANCH   1  15
HETATM   15  N2  UNL     1      13.393  -8.609  19.789  1.00  0.00    -0.336 N 
HETATM   16  C9  UNL     1      11.993  -8.270  19.719  1.00  0.00     0.205 C 
HETATM   17  C10 UNL     1      11.813  -6.839  20.187  1.00  0.00     0.262 C 
HETATM   18  F1  UNL     1      11.045  -6.764  21.317  1.00  0.00    -0.204 F 
HETATM   19  F2  UNL     1      11.130  -6.173  19.152  1.00  0.00    -0.204 F 
HETATM   20  C11 UNL     1      13.195  -6.311  20.331  1.00  0.00     0.121 C 
HETATM   21  C12 UNL     1      14.052  -7.547  20.583  1.00  0.00     0.117 C 
HETATM   22  C13 UNL     1      15.421  -7.190  20.147  1.00  0.00     0.049 C 
BRANCH  21  23
HETATM   23  C14 UNL     1      13.939  -7.836  22.022  1.00  0.00     0.245 C 
HETATM   24  O3  UNL     1      14.153  -8.980  22.456  1.00  0.00    -0.271 OA
HETATM   25  N3  UNL     1      13.583  -6.811  22.947  1.00  0.00    -0.363 N 
HETATM   26  C15 UNL     1      13.460  -7.069  24.369  1.00  0.00     0.149 C 
ATOM     27  H3  UNL     1      13.409  -5.868  22.598  1.00  0.00     0.162 HD
ENDBRANCH  21  23
ENDBRANCH   1  15
TORSDOF 8
ENDMDL
MODEL 2
REMARK VINA RESULT: -6.061969633      4.670      6.763
REMARK  8 active torsions:
REMARK  status: ('A' for Active; 'I' for Inactive)
REMARK    1  A    between atoms: C2_2  and  C3_3 
REMARK    2  A    between atoms: C3_3  and  C5_5 
REMARK    3  A    between atoms: C5_5  and  N1_6 
REMARK    4  A    between atoms: C5_5  and  C8_12 
REMARK       I    between atoms: N1_6  and  C6_8 
REMARK    5  A    between atoms: C6_8  and  C7_10 
REMARK    6  A    between atoms: C8_12  and  O2_13 
REMARK    7  A    between atoms: C8_12  and  N2_15 
REMARK    8  A    between atoms: C12_21  and  C14_23 
REMARK       I    between atoms: C14_23  and  N3_25 
ROOT
HETATM    1  C8  UNL     1      13.649  -4.496  22.177  1.00  0.00     0.167 C 
ENDROOT
BRANCH   1   2
HETATM    2  C5  UNL     1      13.232  -5.789  21.699  1.00  0.00     0.088 C 
BRANCH   2   3
HETATM    3  C3  UNL     1      13.096  -6.208  20.322  1.00  0.00    -0.053 C 
HETATM    4  C4  UNL     1      14.092  -7.208  19.861  1.00  0.00     0.046 C 
BRANCH   3   5
HETATM    5  C2  UNL     1      11.783  -6.397  19.678  1.00  0.00     0.031 C 
HETATM    6  C1  UNL     1      11.967  -7.464  18.587  1.00  0.00     0.010 C 
ENDBRANCH   3   5
ENDBRANCH   2   3
BRANCH   2   7
HETATM    7  N1  UNL     1      13.997  -6.802  22.489  1.00  0.00    -0.323 N 
HETATM    8  C6  UNL     1      13.494  -7.547  23.541  1.00  0.00     0.232 C 
HETATM    9  O1  UNL     1      12.300  -7.405  23.915  1.00  0.00    -0.272 OA
ATOM     10  H1  UNL     1      14.972  -6.956  22.232  1.00  0.00     0.169 HD
BRANCH   8  11
HETATM   11  C7  UNL     1      14.365  -8.524  24.237  1.00  0.00     0.188 C 
HETATM   12 BR1  UNL     1      13.344  -9.945  25.051  1.00  0.00    -0.087 Br
ENDBRANCH   8  11
ENDBRANCH   2   7
ENDBRANCH   1   2
BRANCH   1  13
HETATM   13  O2  UNL     1      14.863  -4.130  21.696  1.00  0.00    -0.344 OA
ATOM     14  H2  UNL     1      15.025  -3.198  21.787  1.00  0.00     0.219 HD
ENDBRANCH   1  13
BRANCH   1  15
HETATM   15  N2  UNL     1      13.152  -3.495  23.011  1.00  0.00    -0.336 N 
HETATM   16  C9  UNL     1      13.744  -2.968  24.216  1.00  0.00     0.205 C 
HETATM   17  C10 UNL     1      12.721  -2.102  24.925  1.00  0.00     0.262 C 
HETATM   18  F1  UNL     1      13.124  -0.797  25.004  1.00  0.00    -0.204 F 
HETATM   19  F2  UNL     1      12.623  -2.607  26.235  1.00  0.00    -0.204 F 
HETATM   20  C11 UNL     1      11.454  -2.325  24.180  1.00  0.00     0.121 C 
HETATM   21  C12 UNL     1      11.902  -2.734  22.781  1.00  0.00     0.117 C 
HETATM   22  C13 UNL     1      10.783  -3.517  22.208  1.00  0.00     0.049 C 
BRANCH  21  23
HETATM   23  C14 UNL     1      12.187  -1.483  22.059  1.00  0.00     0.245 C 
HETATM   24  O3  UNL     1      13.280  -1.313  21.493  1.00  0.00    -0.271 OA
HETATM   25  N3  UNL     1      11.217  -0.440  21.995  1.00  0.00    -0.363 N 
HETATM   26  C15 UNL     1      11.473   0.805  21.295  1.00  0.00     0.149 C 
ATOM     27  H3  UNL     1      10.316  -0.574  22.455  1.00  0.00     0.162 HD
ENDBRANCH  21  23
ENDBRANCH   1  15
TORSDOF 8
ENDMDL
MODEL 3
REMARK VINA RESULT: -5.943639324      2.746      5.707
REMARK  8 active torsions:
REMARK  status: ('A' for Active; 'I' for Inactive)
REMARK    1  A    between atoms: C2_2  and  C3_3 
REMARK    2  A    between atoms: C3_3  and  C5_5 
REMARK    3  A    between atoms: C5_5  and  N1_6 
REMARK    4  A    between atoms: C5_5  and  C8_12 
REMARK       I    between atoms: N1_6  and  C6_8 
REMARK    5  A    between atoms: C6_8  and  C7_10 
REMARK    6  A    between atoms: C8_12  and  O2_13 
REMARK    7  A    between atoms: C8_12  and  N2_15 
REMARK    8  A    between atoms: C12_21  and  C14_23 
REMARK       I    between atoms: C14_23  and  N3_25 
ROOT
HETATM    1  C8  UNL     1      13.986  -7.917  19.321  1.00  0.00     0.167 C 
ENDROOT
BRANCH   1   2
HETATM    2  C5  UNL     1      13.502  -7.041  20.357  1.00  0.00     0.088 C 
BRANCH   2   3
HETATM    3  C3  UNL     1      12.588  -5.931  20.203  1.00  0.00    -0.053 C 
HETATM    4  C4  UNL     1      11.328  -6.242  19.481  1.00  0.00     0.046 C 
BRANCH   3   5
HETATM    5  C2  UNL     1      12.386  -4.920  21.258  1.00  0.00     0.031 C 
HETATM    6  C1  UNL     1      13.779  -4.511  21.761  1.00  0.00     0.010 C 
ENDBRANCH   3   5
ENDBRANCH   2   3
BRANCH   2   7
HETATM    7  N1  UNL     1      13.089  -7.916  21.496  1.00  0.00    -0.323 N 
HETATM    8  C6  UNL     1      13.916  -8.346  22.519  1.00  0.00     0.232 C 
HETATM    9  O1  UNL     1      15.128  -8.009  22.549  1.00  0.00    -0.272 OA
ATOM     10  H1  UNL     1      12.117  -8.223  21.522  1.00  0.00     0.169 HD
BRANCH   8  11
HETATM   11  C7  UNL     1      13.372  -9.211  23.593  1.00  0.00     0.188 C 
HETATM   12 BR1  UNL     1      11.469  -9.472  23.409  1.00  0.00    -0.087 Br
ENDBRANCH   8  11
ENDBRANCH   2   7
ENDBRANCH   1   2
BRANCH   1  13
HETATM   13  O2  UNL     1      15.336  -8.038  19.331  1.00  0.00    -0.344 OA
ATOM     14  H2  UNL     1      15.663  -8.540  18.593  1.00  0.00     0.219 HD
ENDBRANCH   1  13
BRANCH   1  15
HETATM   15  N2  UNL     1      13.451  -8.690  18.290  1.00  0.00    -0.336 N 
HETATM   16  C9  UNL     1      13.208  -8.299  16.923  1.00  0.00     0.205 C 
HETATM   17  C10 UNL     1      12.368  -9.369  16.251  1.00  0.00     0.262 C 
HETATM   18  F1  UNL     1      13.034  -9.964  15.215  1.00  0.00    -0.204 F 
HETATM   19  F2  UNL     1      11.244  -8.708  15.723  1.00  0.00    -0.204 F 
HETATM   20  C11 UNL     1      11.971 -10.285  17.352  1.00  0.00     0.121 C 
HETATM   21  C12 UNL     1      13.062 -10.114  18.404  1.00  0.00     0.117 C 
HETATM   22  C13 UNL     1      12.447 -10.499  19.695  1.00  0.00     0.049 C 
BRANCH  21  23
HETATM   23  C14 UNL     1      14.173 -10.986  17.987  1.00  0.00     0.245 C 
HETATM   24  O3  UNL     1      13.954 -12.134  17.569  1.00  0.00    -0.271 OA
HETATM   25  N3  UNL     1      15.522 -10.530  18.055  1.00  0.00    -0.363 N 
HETATM   26  C15 UNL     1      16.637 -11.369  17.656  1.00  0.00     0.149 C 
ATOM     27  H3  UNL     1      15.710  -9.587  18.395  1.00  0.00     0.162 HD
ENDBRANCH  21  23
ENDBRANCH   1  15
TORSDOF 8
ENDMDL
MODEL 4
REMARK VINA RESULT: -5.887365422      3.528      5.885
REMARK  8 active torsions:
REMARK  status: ('A' for Active; 'I' for Inactive)
REMARK    1  A    between atoms: C2_2  and  C3_3 
REMARK    2  A    between atoms: C3_3  and  C5_5 
REMARK    3  A    between atoms: C5_5  and  N1_6 
REMARK    4  A    between atoms: C5_5  and  C8_12 
REMARK       I    between atoms: N1_6  and  C6_8 
REMARK    5  A    between atoms: C6_8  and  C7_10 
REMARK    6  A    between atoms: C8_12  and  O2_13 
REMARK    7  A    between atoms: C8_12  and  N2_15 
REMARK    8  A    between atoms: C12_21  and  C14_23 
REMARK       I    between atoms: C14_23  and  N3_25 
ROOT
HETATM    1  C8  UNL     1      14.223 -10.451  16.906  1.00  0.00     0.167 C 
ENDROOT
BRANCH   1   2
HETATM    2  C5  UNL     1      14.557 -10.557  18.303  1.00  0.00     0.088 C 
BRANCH   2   3
HETATM    3  C3  UNL     1      15.460 -11.507  18.914  1.00  0.00    -0.053 C 
HETATM    4  C4  UNL     1      15.000 -12.080  20.204  1.00  0.00     0.046 C 
BRANCH   3   5
HETATM    5  C2  UNL     1      16.242 -12.477  18.126  1.00  0.00     0.031 C 
HETATM    6  C1  UNL     1      17.701 -11.994  18.139  1.00  0.00     0.010 C 
ENDBRANCH   3   5
ENDBRANCH   2   3
BRANCH   2   7
HETATM    7  N1  UNL     1      14.844  -9.169  18.778  1.00  0.00    -0.323 N 
HETATM    8  C6  UNL     1      14.072  -8.452  19.675  1.00  0.00     0.232 C 
HETATM    9  O1  UNL     1      13.026  -8.952  20.165  1.00  0.00    -0.272 OA
ATOM     10  H1  UNL     1      15.679  -8.712  18.411  1.00  0.00     0.169 HD
BRANCH   8  11
HETATM   11  C7  UNL     1      14.477  -7.080  20.065  1.00  0.00     0.188 C 
HETATM   12 BR1  UNL     1      12.953  -5.975  20.492  1.00  0.00    -0.087 Br
ENDBRANCH   8  11
ENDBRANCH   2   7
ENDBRANCH   1   2
BRANCH   1  13
HETATM   13  O2  UNL     1      15.318 -10.324  16.117  1.00  0.00    -0.344 OA
ATOM     14  H2  UNL     1      15.447 -11.073  15.547  1.00  0.00     0.219 HD
ENDBRANCH   1  13
BRANCH   1  15
HETATM   15  N2  UNL     1      13.071 -10.440  16.118  1.00  0.00    -0.336 N 
HETATM   16  C9  UNL     1      12.658 -11.412  15.136  1.00  0.00     0.205 C 
HETATM   17  C10 UNL     1      11.496 -10.843  14.345  1.00  0.00     0.262 C 
HETATM   18  F1  UNL     1      10.356 -11.580  14.514  1.00  0.00    -0.204 F 
HETATM   19  F2  UNL     1      11.870 -10.924  12.991  1.00  0.00    -0.204 F 
HETATM   20  C11 UNL     1      11.399  -9.426  14.781  1.00  0.00     0.121 C 
HETATM   21  C12 UNL     1      12.006  -9.414  16.180  1.00  0.00     0.117 C 
HETATM   22  C13 UNL     1      12.475  -8.028  16.408  1.00  0.00     0.049 C 
BRANCH  21  23
HETATM   23  C14 UNL     1      10.933  -9.840  17.095  1.00  0.00     0.245 C 
HETATM   24  O3  UNL     1      11.165 -10.649  18.008  1.00  0.00    -0.271 OA
HETATM   25  N3  UNL     1       9.608  -9.335  16.951  1.00  0.00    -0.363 N 
HETATM   26  C15 UNL     1       8.531  -9.741  17.834  1.00  0.00     0.149 C 
ATOM     27  H3  UNL     1       9.411  -8.668  16.205  1.00  0.00     0.162 HD
ENDBRANCH  21  23
ENDBRANCH   1  15
TORSDOF 8
ENDMDL
MODEL 5
REMARK VINA RESULT: -5.864534639      3.310      5.842
REMARK  8 active torsions:
REMARK  status: ('A' for Active; 'I' for Inactive)
REMARK    1  A    between atoms: C2_2  and  C3_3 
REMARK    2  A    between atoms: C3_3  and  C5_5 
REMARK    3  A    between atoms: C5_5  and  N1_6 
REMARK    4  A    between atoms: C5_5  and  C8_12 
REMARK       I    between atoms: N1_6  and  C6_8 
REMARK    5  A    between atoms: C6_8  and  C7_10 
REMARK    6  A    between atoms: C8_12  and  O2_13 
REMARK    7  A    between atoms: C8_12  and  N2_15 
REMARK    8  A    between atoms: C12_21  and  C14_23 
REMARK       I    between atoms: C14_23  and  N3_25 
ROOT
HETATM    1  C8  UNL     1      14.120  -8.278  19.416  1.00  0.00     0.167 C 
ENDROOT
BRANCH   1   2
HETATM    2  C5  UNL     1      13.186  -7.739  20.371  1.00  0.00     0.088 C 
BRANCH   2   3
HETATM    3  C3  UNL     1      12.001  -6.960  20.088  1.00  0.00    -0.053 C 
HETATM    4  C4  UNL     1      10.712  -7.660  20.319  1.00  0.00     0.046 C 
BRANCH   3   5
HETATM    5  C2  UNL     1      11.910  -5.519  20.387  1.00  0.00     0.031 C 
HETATM    6  C1  UNL     1      13.166  -5.147  21.192  1.00  0.00     0.010 C 
ENDBRANCH   3   5
ENDBRANCH   2   3
BRANCH   2   7
HETATM    7  N1  UNL     1      12.881  -8.839  21.336  1.00  0.00    -0.323 N 
HETATM    8  C6  UNL     1      13.625  -9.149  22.461  1.00  0.00     0.232 C 
HETATM    9  O1  UNL     1      14.657  -8.490  22.750  1.00  0.00    -0.272 OA
ATOM     10  H1  UNL     1      12.056  -9.409  21.149  1.00  0.00     0.169 HD
BRANCH   8  11
HETATM   11  C7  UNL     1      13.204 -10.269  23.338  1.00  0.00     0.188 C 
HETATM   12 BR1  UNL     1      11.604 -11.129  22.685  1.00  0.00    -0.087 Br
ENDBRANCH   8  11
ENDBRANCH   2   7
ENDBRANCH   1   2
BRANCH   1  13
HETATM   13  O2  UNL     1      15.304  -7.616  19.415  1.00  0.00    -0.344 OA
ATOM     14  H2  UNL     1      15.201  -6.683  19.269  1.00  0.00     0.219 HD
ENDBRANCH   1  13
BRANCH   1  15
HETATM   15  N2  UNL     1      14.154  -9.305  18.472  1.00  0.00    -0.336 N 
HETATM   16  C9  UNL     1      15.064 -10.422  18.409  1.00  0.00     0.205 C 
HETATM   17  C10 UNL     1      14.897 -11.112  17.069  1.00  0.00     0.262 C 
HETATM   18  F1  UNL     1      14.450 -12.398  17.209  1.00  0.00    -0.204 F 
HETATM   19  F2  UNL     1      16.179 -11.158  16.491  1.00  0.00    -0.204 F 
HETATM   20  C11 UNL     1      14.000 -10.217  16.291  1.00  0.00     0.121 C 
HETATM   21  C12 UNL     1      13.202  -9.463  17.349  1.00  0.00     0.117 C 
HETATM   22  C13 UNL     1      12.766  -8.201  16.708  1.00  0.00     0.049 C 
BRANCH  21  23
HETATM   23  C14 UNL     1      12.093 -10.351  17.736  1.00  0.00     0.245 C 
HETATM   24  O3  UNL     1      11.878 -10.611  18.931  1.00  0.00    -0.271 OA
HETATM   25  N3  UNL     1      11.245 -10.931  16.748  1.00  0.00    -0.363 N 
HETATM   26  C15 UNL     1      10.148 -11.814  17.100  1.00  0.00     0.149 C 
ATOM     27  H3  UNL     1      11.414 -10.720  15.764  1.00  0.00     0.162 HD
ENDBRANCH  21  23
ENDBRANCH   1  15
TORSDOF 8
ENDMDL
