MODEL 1
REMARK VINA RESULT: -6.199014057      0.000      0.000
REMARK  5 active torsions:
REMARK  status: ('A' for Active; 'I' for Inactive)
REMARK    1  A    between atoms: C5_7  and  C6_9 
REMARK    2  A    between atoms: C6_9  and  N1_10 
REMARK       I    between atoms: N1_10  and  C7_12 
REMARK    3  A    between atoms: C7_12  and  C8_14 
REMARK    4  A    between atoms: C8_14  and  N2_15 
REMARK    5  A    between atoms: N2_15  and  S1_17 
ROOT
HETATM    1  N1  UNL     1      12.270  -4.761  21.291  1.00  0.00    -0.356 N 
ATOM      2  H1  UNL     1      11.253  -4.804  21.369  1.00  0.00     0.162 HD
HETATM    3  C7  UNL     1      13.031  -3.715  21.938  1.00  0.00     0.236 C 
HETATM    4  O1  UNL     1      14.265  -3.703  21.818  1.00  0.00    -0.272 OA
ENDROOT
BRANCH   1   5
HETATM    5  C6  UNL     1      12.993  -5.722  20.549  1.00  0.00     0.169 C 
BRANCH   5   6
HETATM    6  C5  UNL     1      12.301  -6.757  19.780  1.00  0.00     0.156 A 
HETATM    7  C2  UNL     1      13.194  -7.743  19.033  1.00  0.00     0.023 A 
HETATM    8  C1  UNL     1      12.935  -7.844  17.547  1.00  0.00     0.021 C 
HETATM    9  C3  UNL     1      14.590  -8.008  19.499  1.00  0.00     0.021 C 
HETATM   10  C4  UNL     1      12.115  -8.174  20.011  1.00  0.00     0.124 A 
HETATM   11 BR1  UNL     1      10.624  -9.058  19.069  1.00  0.00    -0.068 Br
HETATM   12 BR2  UNL     1      12.630  -9.144  21.564  1.00  0.00    -0.068 Br
HETATM   13  F1  UNL     1      11.257  -6.202  18.963  1.00  0.00    -0.238 F 
ENDBRANCH   5   6
ENDBRANCH   1   5
BRANCH   3  14
HETATM   14  C8  UNL     1      12.382  -2.658  22.739  1.00  0.00     0.234 C 
BRANCH  14  15
HETATM   15  N2  UNL     1      11.679  -1.733  21.899  1.00  0.00    -0.311 N 
ATOM     16  H2  UNL     1      10.764  -1.934  21.494  1.00  0.00     0.172 HD
BRANCH  15  17
HETATM   17  S1  UNL     1      12.504  -0.274  21.640  1.00  0.00     0.223 S 
HETATM   18  C9  UNL     1      12.652   0.711  23.109  1.00  0.00     0.185 C 
HETATM   19  O2  UNL     1      13.854  -0.439  21.053  1.00  0.00    -0.206 OA
HETATM   20  O3  UNL     1      11.689   0.548  20.654  1.00  0.00    -0.206 OA
ENDBRANCH  15  17
ENDBRANCH  14  15
ENDBRANCH   3  14
TORSDOF 5
ENDMDL
MODEL 2
REMARK VINA RESULT: -5.830830198      6.774      8.933
REMARK  5 active torsions:
REMARK  status: ('A' for Active; 'I' for Inactive)
REMARK    1  A    between atoms: C5_7  and  C6_9 
REMARK    2  A    between atoms: C6_9  and  N1_10 
REMARK       I    between atoms: N1_10  and  C7_12 
REMARK    3  A    between atoms: C7_12  and  C8_14 
REMARK    4  A    between atoms: C8_14  and  N2_15 
REMARK    5  A    between atoms: N2_15  and  S1_17 
ROOT
HETATM    1  N1  UNL     1      13.616  -9.304  16.517  1.00  0.00    -0.356 N 
ATOM      2  H1  UNL     1      14.473  -9.858  16.543  1.00  0.00     0.162 HD
HETATM    3  C7  UNL     1      12.470  -9.725  15.740  1.00  0.00     0.236 C 
HETATM    4  O1  UNL     1      11.449  -9.022  15.739  1.00  0.00    -0.272 OA
ENDROOT
BRANCH   1   5
HETATM    5  C6  UNL     1      13.498  -8.096  17.239  1.00  0.00     0.169 C 
BRANCH   5   6
HETATM    6  C5  UNL     1      13.621  -8.073  18.697  1.00  0.00     0.156 A 
HETATM    7  C2  UNL     1      12.575  -7.250  19.442  1.00  0.00     0.023 A 
HETATM    8  C1  UNL     1      13.131  -6.183  20.358  1.00  0.00     0.021 C 
HETATM    9  C3  UNL     1      11.236  -6.990  18.831  1.00  0.00     0.021 C 
HETATM   10  C4  UNL     1      12.852  -8.713  19.743  1.00  0.00     0.124 A 
HETATM   11 BR1  UNL     1      13.715  -8.917  21.506  1.00  0.00    -0.068 Br
HETATM   12 BR2  UNL     1      11.447  -9.972  19.506  1.00  0.00    -0.068 Br
HETATM   13  F1  UNL     1      14.968  -7.792  19.111  1.00  0.00    -0.238 F 
ENDBRANCH   5   6
ENDBRANCH   1   5
BRANCH   3  14
HETATM   14  C8  UNL     1      12.479 -10.970  14.948  1.00  0.00     0.234 C 
BRANCH  14  15
HETATM   15  N2  UNL     1      11.143 -11.427  14.689  1.00  0.00    -0.311 N 
ATOM     16  H2  UNL     1      10.521 -11.769  15.422  1.00  0.00     0.172 HD
BRANCH  15  17
HETATM   17  S1  UNL     1      10.693 -11.346  13.056  1.00  0.00     0.223 S 
HETATM   18  C9  UNL     1       8.952 -11.085  12.828  1.00  0.00     0.185 C 
HETATM   19  O2  UNL     1      11.423 -10.320  12.277  1.00  0.00    -0.206 OA
HETATM   20  O3  UNL     1      11.010 -12.693  12.424  1.00  0.00    -0.206 OA
ENDBRANCH  15  17
ENDBRANCH  14  15
ENDBRANCH   3  14
TORSDOF 5
ENDMDL
MODEL 3
REMARK VINA RESULT: -5.736819810      6.709      8.722
REMARK  5 active torsions:
REMARK  status: ('A' for Active; 'I' for Inactive)
REMARK    1  A    between atoms: C5_7  and  C6_9 
REMARK    2  A    between atoms: C6_9  and  N1_10 
REMARK       I    between atoms: N1_10  and  C7_12 
REMARK    3  A    between atoms: C7_12  and  C8_14 
REMARK    4  A    between atoms: C8_14  and  N2_15 
REMARK    5  A    between atoms: N2_15  and  S1_17 
ROOT
HETATM    1  N1  UNL     1      12.866  -8.198  16.649  1.00  0.00    -0.356 N 
ATOM      2  H1  UNL     1      12.979  -7.421  15.997  1.00  0.00     0.162 HD
HETATM    3  C7  UNL     1      12.151  -9.398  16.275  1.00  0.00     0.236 C 
HETATM    4  O1  UNL     1      12.040 -10.317  17.099  1.00  0.00    -0.272 OA
ENDROOT
BRANCH   1   5
HETATM    5  C6  UNL     1      13.402  -8.146  17.955  1.00  0.00     0.169 C 
BRANCH   5   6
HETATM    6  C5  UNL     1      12.767  -7.342  19.000  1.00  0.00     0.156 A 
HETATM    7  C2  UNL     1      12.606  -8.018  20.358  1.00  0.00     0.023 A 
HETATM    8  C1  UNL     1      11.192  -8.055  20.892  1.00  0.00     0.021 C 
HETATM    9  C3  UNL     1      13.515  -9.133  20.764  1.00  0.00     0.021 C 
HETATM   10  C4  UNL     1      13.300  -6.681  20.172  1.00  0.00     0.124 A 
HETATM   11 BR1  UNL     1      12.230  -5.218  20.953  1.00  0.00    -0.068 Br
HETATM   12 BR2  UNL     1      15.134  -6.534  20.651  1.00  0.00    -0.068 Br
HETATM   13  F1  UNL     1      11.561  -6.717  18.528  1.00  0.00    -0.238 F 
ENDBRANCH   5   6
ENDBRANCH   1   5
BRANCH   3  14
HETATM   14  C8  UNL     1      11.549  -9.564  14.937  1.00  0.00     0.234 C 
BRANCH  14  15
HETATM   15  N2  UNL     1      11.697 -10.911  14.468  1.00  0.00    -0.311 N 
ATOM     16  H2  UNL     1      12.199 -11.630  14.990  1.00  0.00     0.172 HD
BRANCH  15  17
HETATM   17  S1  UNL     1      10.963 -11.202  12.966  1.00  0.00     0.223 S 
HETATM   18  C9  UNL     1       9.191 -11.135  13.036  1.00  0.00     0.185 C 
HETATM   19  O2  UNL     1      11.420 -10.300  11.885  1.00  0.00    -0.206 OA
HETATM   20  O3  UNL     1      11.322 -12.618  12.545  1.00  0.00    -0.206 OA
ENDBRANCH  15  17
ENDBRANCH  14  15
ENDBRANCH   3  14
TORSDOF 5
ENDMDL
MODEL 4
REMARK VINA RESULT: -5.733605891      6.352      8.469
REMARK  5 active torsions:
REMARK  status: ('A' for Active; 'I' for Inactive)
REMARK    1  A    between atoms: C5_7  and  C6_9 
REMARK    2  A    between atoms: C6_9  and  N1_10 
REMARK       I    between atoms: N1_10  and  C7_12 
REMARK    3  A    between atoms: C7_12  and  C8_14 
REMARK    4  A    between atoms: C8_14  and  N2_15 
REMARK    5  A    between atoms: N2_15  and  S1_17 
ROOT
HETATM    1  N1  UNL     1      12.983  -8.533  17.380  1.00  0.00    -0.356 N 
ATOM      2  H1  UNL     1      13.741  -9.213  17.448  1.00  0.00     0.162 HD
HETATM    3  C7  UNL     1      11.949  -8.655  16.376  1.00  0.00     0.236 C 
HETATM    4  O1  UNL     1      11.047  -7.806  16.331  1.00  0.00    -0.272 OA
ENDROOT
BRANCH   1   5
HETATM    5  C6  UNL     1      12.901  -7.432  18.261  1.00  0.00     0.169 C 
BRANCH   5   6
HETATM    6  C5  UNL     1      13.504  -7.486  19.593  1.00  0.00     0.156 A 
HETATM    7  C2  UNL     1      13.156  -6.335  20.531  1.00  0.00     0.023 A 
HETATM    8  C1  UNL     1      14.343  -5.587  21.096  1.00  0.00     0.021 C 
HETATM    9  C3  UNL     1      11.890  -5.561  20.348  1.00  0.00     0.021 C 
HETATM   10  C4  UNL     1      12.951  -7.794  20.895  1.00  0.00     0.124 A 
HETATM   11 BR1  UNL     1      14.211  -8.352  22.307  1.00  0.00    -0.068 Br
HETATM   12 BR2  UNL     1      11.185  -8.401  21.258  1.00  0.00    -0.068 Br
HETATM   13  F1  UNL     1      14.913  -7.761  19.527  1.00  0.00    -0.238 F 
ENDBRANCH   5   6
ENDBRANCH   1   5
BRANCH   3  14
HETATM   14  C8  UNL     1      11.933  -9.765  15.402  1.00  0.00     0.234 C 
BRANCH  14  15
HETATM   15  N2  UNL     1      11.191  -9.409  14.227  1.00  0.00    -0.311 N 
ATOM     16  H2  UNL     1      10.923  -8.449  14.008  1.00  0.00     0.172 HD
BRANCH  15  17
HETATM   17  S1  UNL     1      10.801 -10.727  13.233  1.00  0.00     0.223 S 
HETATM   18  C9  UNL     1      11.425 -12.270  13.851  1.00  0.00     0.185 C 
HETATM   19  O2  UNL     1       9.351 -10.882  12.975  1.00  0.00    -0.206 OA
HETATM   20  O3  UNL     1      11.471 -10.503  11.887  1.00  0.00    -0.206 OA
ENDBRANCH  15  17
ENDBRANCH  14  15
ENDBRANCH   3  14
TORSDOF 5
ENDMDL
MODEL 5
REMARK VINA RESULT: -5.692777890      1.590      1.778
REMARK  5 active torsions:
REMARK  status: ('A' for Active; 'I' for Inactive)
REMARK    1  A    between atoms: C5_7  and  C6_9 
REMARK    2  A    between atoms: C6_9  and  N1_10 
REMARK       I    between atoms: N1_10  and  C7_12 
REMARK    3  A    between atoms: C7_12  and  C8_14 
REMARK    4  A    between atoms: C8_14  and  N2_15 
REMARK    5  A    between atoms: N2_15  and  S1_17 
ROOT
HETATM    1  N1  UNL     1      12.083  -4.709  21.133  1.00  0.00    -0.356 N 
ATOM      2  H1  UNL     1      11.064  -4.753  21.116  1.00  0.00     0.162 HD
HETATM    3  C7  UNL     1      12.780  -3.603  21.752  1.00  0.00     0.236 C 
HETATM    4  O1  UNL     1      14.020  -3.592  21.751  1.00  0.00    -0.272 OA
ENDROOT
BRANCH   1   5
HETATM    5  C6  UNL     1      12.874  -5.727  20.554  1.00  0.00     0.169 C 
BRANCH   5   6
HETATM    6  C5  UNL     1      12.263  -6.806  19.776  1.00  0.00     0.156 A 
HETATM    7  C2  UNL     1      13.229  -7.736  19.049  1.00  0.00     0.023 A 
HETATM    8  C1  UNL     1      13.004  -7.857  17.559  1.00  0.00     0.021 C 
HETATM    9  C3  UNL     1      14.629  -7.912  19.542  1.00  0.00     0.021 C 
HETATM   10  C4  UNL     1      12.161  -8.230  20.009  1.00  0.00     0.124 A 
HETATM   11 BR1  UNL     1      10.745  -9.208  19.044  1.00  0.00    -0.068 Br
HETATM   12 BR2  UNL     1      12.707  -9.162  21.574  1.00  0.00    -0.068 Br
HETATM   13  F1  UNL     1      11.201  -6.319  18.937  1.00  0.00    -0.238 F 
ENDBRANCH   5   6
ENDBRANCH   1   5
BRANCH   3  14
HETATM   14  C8  UNL     1      12.058  -2.484  22.389  1.00  0.00     0.234 C 
BRANCH  14  15
HETATM   15  N2  UNL     1      12.142  -2.563  23.819  1.00  0.00    -0.311 N 
ATOM     16  H2  UNL     1      11.531  -3.158  24.379  1.00  0.00     0.172 HD
BRANCH  15  17
HETATM   17  S1  UNL     1      13.345  -1.576  24.494  1.00  0.00     0.223 S 
HETATM   18  C9  UNL     1      12.840  -0.803  26.009  1.00  0.00     0.185 C 
HETATM   19  O2  UNL     1      14.632  -2.270  24.733  1.00  0.00    -0.206 OA
HETATM   20  O3  UNL     1      13.623  -0.451  23.510  1.00  0.00    -0.206 OA
ENDBRANCH  15  17
ENDBRANCH  14  15
ENDBRANCH   3  14
TORSDOF 5
ENDMDL
