MODEL 1
REMARK VINA RESULT: -8.131403958      0.000      0.000
REMARK  7 active torsions:
REMARK  status: ('A' for Active; 'I' for Inactive)
REMARK    1  A    between atoms: C2_2  and  N1_4 
REMARK    2  A    between atoms: N1_4  and  C4_6 
REMARK    3  A    between atoms: C4_6  and  C5_7 
REMARK    4  A    between atoms: C5_7  and  C8_10 
REMARK    5  A    between atoms: C8_10  and  N2_11 
REMARK    6  A    between atoms: N2_11  and  C9_13 
REMARK    7  A    between atoms: C10_16  and  N4_17 
ROOT
HETATM    1  C9  UNL     1     -38.770 -60.676 -44.572  1.00  0.00     0.136 A 
HETATM    2  N3  UNL     1     -39.693 -60.775 -43.604  1.00  0.00    -0.176 N 
ATOM      3  H3  UNL     1     -40.635 -60.439 -43.805  1.00  0.00     0.186 HD
HETATM    4  C10 UNL     1     -39.453 -61.292 -42.374  1.00  0.00     0.679 A 
HETATM    5  N5  UNL     1     -38.225 -61.731 -42.107  1.00  0.00    -0.176 N 
ATOM      6  H5  UNL     1     -38.030 -62.123 -41.186  1.00  0.00     0.186 HD
HETATM    7  C11 UNL     1     -37.240 -61.674 -43.011  1.00  0.00     0.141 A 
HETATM    8  N6  UNL     1     -35.997 -62.125 -42.714  1.00  0.00    -0.337 N 
ATOM      9  H6  UNL     1     -35.797 -62.518 -41.794  1.00  0.00     0.168 HD
HETATM   10  C12 UNL     1     -35.031 -62.051 -43.642  1.00  0.00     0.184 A 
HETATM   11  N7  UNL     1     -35.254 -61.540 -44.866  1.00  0.00    -0.319 N 
ATOM     12  H7  UNL     1     -34.496 -61.499 -45.547  1.00  0.00     0.169 HD
HETATM   13  C13 UNL     1     -36.495 -61.076 -45.199  1.00  0.00     0.264 A 
HETATM   14  O1  UNL     1     -36.659 -60.606 -46.346  1.00  0.00    -0.267 OA
HETATM   15  C14 UNL     1     -37.495 -61.141 -44.271  1.00  0.00     0.121 A 
ENDROOT
BRANCH   1  16
HETATM   16  N2  UNL     1     -39.019 -60.177 -45.756  1.00  0.00    -0.374 N 
ATOM     17  H2  UNL     1     -38.299 -59.570 -46.147  1.00  0.00     0.161 HD
BRANCH  16  18
HETATM   18  C8  UNL     1     -40.153 -60.379 -46.546  1.00  0.00     0.135 C 
BRANCH  18  19
HETATM   19  C5  UNL     1     -40.257 -59.379 -47.764  1.00  0.00     0.000 C 
HETATM   20  C6  UNL     1     -38.836 -58.876 -47.873  1.00  0.00     0.022 C 
HETATM   21  C7  UNL     1     -41.167 -58.275 -47.374  1.00  0.00     0.022 C 
BRANCH  19  22
HETATM   22  C4  UNL     1     -40.643 -60.215 -48.935  1.00  0.00     0.066 C 
BRANCH  22  23
HETATM   23  N1  UNL     1     -39.716 -60.741 -49.765  1.00  0.00    -0.398 N 
ATOM     24  H1  UNL     1     -38.845 -60.955 -49.279  1.00  0.00     0.159 HD
BRANCH  23  25
HETATM   25  C2  UNL     1     -39.653 -61.057 -51.087  1.00  0.00     0.072 C 
HETATM   26  C1  UNL     1     -38.353 -61.025 -51.802  1.00  0.00     0.031 C 
HETATM   27  C3  UNL     1     -40.634 -60.275 -51.979  1.00  0.00     0.031 C 
ENDBRANCH  23  25
ENDBRANCH  22  23
ENDBRANCH  19  22
ENDBRANCH  18  19
ENDBRANCH  16  18
ENDBRANCH   1  16
BRANCH   4  28
HETATM   28  N4  UNL     1     -40.415 -61.347 -41.488  1.00  0.00    -0.234 N 
ATOM     29  H42 UNL     1     -40.313 -60.945 -40.557  1.00  0.00     0.174 HD
ATOM     30  H41 UNL     1     -41.298 -61.801 -41.723  1.00  0.00     0.174 HD
ENDBRANCH   4  28
TORSDOF 7
ENDMDL
MODEL 2
REMARK VINA RESULT: -7.627529259      1.422      3.138
REMARK  7 active torsions:
REMARK  status: ('A' for Active; 'I' for Inactive)
REMARK    1  A    between atoms: C2_2  and  N1_4 
REMARK    2  A    between atoms: N1_4  and  C4_6 
REMARK    3  A    between atoms: C4_6  and  C5_7 
REMARK    4  A    between atoms: C5_7  and  C8_10 
REMARK    5  A    between atoms: C8_10  and  N2_11 
REMARK    6  A    between atoms: N2_11  and  C9_13 
REMARK    7  A    between atoms: C10_16  and  N4_17 
ROOT
HETATM    1  C9  UNL     1     -37.525 -60.747 -45.091  1.00  0.00     0.136 A 
HETATM    2  N3  UNL     1     -36.266 -61.187 -44.959  1.00  0.00    -0.176 N 
ATOM      3  H3  UNL     1     -35.621 -61.031 -45.734  1.00  0.00     0.186 HD
HETATM    4  C10 UNL     1     -35.795 -61.826 -43.860  1.00  0.00     0.679 A 
HETATM    5  N5  UNL     1     -36.632 -62.030 -42.846  1.00  0.00    -0.176 N 
ATOM      6  H5  UNL     1     -36.292 -62.509 -42.013  1.00  0.00     0.186 HD
HETATM    7  C11 UNL     1     -37.907 -61.626 -42.888  1.00  0.00     0.141 A 
HETATM    8  N6  UNL     1     -38.742 -61.849 -41.844  1.00  0.00    -0.337 N 
ATOM      9  H6  UNL     1     -38.406 -62.328 -41.008  1.00  0.00     0.168 HD
HETATM   10  C12 UNL     1     -40.015 -61.433 -41.919  1.00  0.00     0.184 A 
HETATM   11  N7  UNL     1     -40.497 -60.799 -43.003  1.00  0.00    -0.319 N 
ATOM     12  H7  UNL     1     -41.471 -60.497 -43.026  1.00  0.00     0.169 HD
HETATM   13  C13 UNL     1     -39.683 -60.559 -44.073  1.00  0.00     0.264 A 
HETATM   14  O1  UNL     1     -40.172 -59.969 -45.062  1.00  0.00    -0.267 OA
HETATM   15  C14 UNL     1     -38.383 -60.971 -44.020  1.00  0.00     0.121 A 
ENDROOT
BRANCH   1  16
HETATM   16  N2  UNL     1     -37.965 -60.129 -46.158  1.00  0.00    -0.374 N 
ATOM     17  H2  UNL     1     -38.492 -59.272 -45.996  1.00  0.00     0.161 HD
BRANCH  16  18
HETATM   18  C8  UNL     1     -37.795 -60.505 -47.493  1.00  0.00     0.135 C 
BRANCH  18  19
HETATM   19  C5  UNL     1     -38.711 -59.699 -48.496  1.00  0.00     0.000 C 
HETATM   20  C6  UNL     1     -38.786 -58.347 -47.825  1.00  0.00     0.022 C 
HETATM   21  C7  UNL     1     -40.046 -60.341 -48.514  1.00  0.00     0.022 C 
BRANCH  19  22
HETATM   22  C4  UNL     1     -37.949 -59.645 -49.775  1.00  0.00     0.066 C 
BRANCH  22  23
HETATM   23  N1  UNL     1     -38.567 -59.753 -50.972  1.00  0.00    -0.398 N 
ATOM     24  H1  UNL     1     -39.039 -58.888 -51.237  1.00  0.00     0.159 HD
BRANCH  23  25
HETATM   25  C2  UNL     1     -38.719 -60.726 -51.911  1.00  0.00     0.072 C 
HETATM   26  C1  UNL     1     -40.016 -61.432 -52.053  1.00  0.00     0.031 C 
HETATM   27  C3  UNL     1     -37.649 -61.833 -51.863  1.00  0.00     0.031 C 
ENDBRANCH  23  25
ENDBRANCH  22  23
ENDBRANCH  19  22
ENDBRANCH  18  19
ENDBRANCH  16  18
ENDBRANCH   1  16
BRANCH   4  28
HETATM   28  N4  UNL     1     -34.548 -62.223 -43.818  1.00  0.00    -0.234 N 
ATOM     29  H42 UNL     1     -34.254 -63.014 -43.247  1.00  0.00     0.174 HD
ATOM     30  H41 UNL     1     -33.840 -61.736 -44.368  1.00  0.00     0.174 HD
ENDBRANCH   4  28
TORSDOF 7
ENDMDL
MODEL 3
REMARK VINA RESULT: -7.260459864      1.464      3.024
REMARK  7 active torsions:
REMARK  status: ('A' for Active; 'I' for Inactive)
REMARK    1  A    between atoms: C2_2  and  N1_4 
REMARK    2  A    between atoms: N1_4  and  C4_6 
REMARK    3  A    between atoms: C4_6  and  C5_7 
REMARK    4  A    between atoms: C5_7  and  C8_10 
REMARK    5  A    between atoms: C8_10  and  N2_11 
REMARK    6  A    between atoms: N2_11  and  C9_13 
REMARK    7  A    between atoms: C10_16  and  N4_17 
ROOT
HETATM    1  C9  UNL     1     -37.521 -60.719 -45.145  1.00  0.00     0.136 A 
HETATM    2  N3  UNL     1     -36.259 -61.153 -45.012  1.00  0.00    -0.176 N 
ATOM      3  H3  UNL     1     -35.612 -60.985 -45.783  1.00  0.00     0.186 HD
HETATM    4  C10 UNL     1     -35.789 -61.801 -43.919  1.00  0.00     0.679 A 
HETATM    5  N5  UNL     1     -36.629 -62.023 -42.911  1.00  0.00    -0.176 N 
ATOM      6  H5  UNL     1     -36.290 -62.509 -42.082  1.00  0.00     0.186 HD
HETATM    7  C11 UNL     1     -37.906 -61.626 -42.954  1.00  0.00     0.141 A 
HETATM    8  N6  UNL     1     -38.745 -61.865 -41.916  1.00  0.00    -0.337 N 
ATOM      9  H6  UNL     1     -38.410 -62.352 -41.084  1.00  0.00     0.168 HD
HETATM   10  C12 UNL     1     -40.020 -61.457 -41.992  1.00  0.00     0.184 A 
HETATM   11  N7  UNL     1     -40.501 -60.813 -43.071  1.00  0.00    -0.319 N 
ATOM     12  H7  UNL     1     -41.477 -60.517 -43.095  1.00  0.00     0.169 HD
HETATM   13  C13 UNL     1     -39.684 -60.556 -44.135  1.00  0.00     0.264 A 
HETATM   14  O1  UNL     1     -40.172 -59.957 -45.119  1.00  0.00    -0.267 OA
HETATM   15  C14 UNL     1     -38.382 -60.961 -44.081  1.00  0.00     0.121 A 
ENDROOT
BRANCH   1  16
HETATM   16  N2  UNL     1     -37.959 -60.092 -46.207  1.00  0.00    -0.374 N 
ATOM     17  H2  UNL     1     -38.432 -59.204 -46.041  1.00  0.00     0.161 HD
BRANCH  16  18
HETATM   18  C8  UNL     1     -37.854 -60.495 -47.540  1.00  0.00     0.135 C 
BRANCH  18  19
HETATM   19  C5  UNL     1     -38.757 -59.653 -48.526  1.00  0.00     0.000 C 
HETATM   20  C6  UNL     1     -37.911 -59.636 -49.778  1.00  0.00     0.022 C 
HETATM   21  C7  UNL     1     -38.887 -58.285 -47.972  1.00  0.00     0.022 C 
BRANCH  19  22
HETATM   22  C4  UNL     1     -40.002 -60.451 -48.705  1.00  0.00     0.066 C 
BRANCH  22  23
HETATM   23  N1  UNL     1     -40.816 -60.263 -49.768  1.00  0.00    -0.398 N 
ATOM     24  H1  UNL     1     -41.426 -59.456 -49.643  1.00  0.00     0.159 HD
BRANCH  23  25
HETATM   25  C2  UNL     1     -41.025 -60.881 -50.962  1.00  0.00     0.072 C 
HETATM   26  C1  UNL     1     -40.293 -62.128 -51.296  1.00  0.00     0.031 C 
HETATM   27  C3  UNL     1     -40.867 -59.968 -52.191  1.00  0.00     0.031 C 
ENDBRANCH  23  25
ENDBRANCH  22  23
ENDBRANCH  19  22
ENDBRANCH  18  19
ENDBRANCH  16  18
ENDBRANCH   1  16
BRANCH   4  28
HETATM   28  N4  UNL     1     -34.540 -62.191 -43.876  1.00  0.00    -0.234 N 
ATOM     29  H42 UNL     1     -34.026 -62.446 -44.718  1.00  0.00     0.174 HD
ATOM     30  H41 UNL     1     -34.054 -62.246 -42.980  1.00  0.00     0.174 HD
ENDBRANCH   4  28
TORSDOF 7
ENDMDL
MODEL 4
REMARK VINA RESULT: -6.829768305      1.351      2.823
REMARK  7 active torsions:
REMARK  status: ('A' for Active; 'I' for Inactive)
REMARK    1  A    between atoms: C2_2  and  N1_4 
REMARK    2  A    between atoms: N1_4  and  C4_6 
REMARK    3  A    between atoms: C4_6  and  C5_7 
REMARK    4  A    between atoms: C5_7  and  C8_10 
REMARK    5  A    between atoms: C8_10  and  N2_11 
REMARK    6  A    between atoms: N2_11  and  C9_13 
REMARK    7  A    between atoms: C10_16  and  N4_17 
ROOT
HETATM    1  C9  UNL     1     -38.316 -60.484 -45.264  1.00  0.00     0.136 A 
HETATM    2  N3  UNL     1     -37.168 -60.440 -45.957  1.00  0.00    -0.176 N 
ATOM      3  H3  UNL     1     -37.203 -60.097 -46.917  1.00  0.00     0.186 HD
HETATM    4  C10 UNL     1     -35.966 -60.823 -45.462  1.00  0.00     0.679 A 
HETATM    5  N5  UNL     1     -35.916 -61.271 -44.210  1.00  0.00    -0.176 N 
ATOM      6  H5  UNL     1     -35.019 -61.563 -43.825  1.00  0.00     0.186 HD
HETATM    7  C11 UNL     1     -37.009 -61.350 -43.442  1.00  0.00     0.141 A 
HETATM    8  N6  UNL     1     -36.934 -61.812 -42.170  1.00  0.00    -0.337 N 
ATOM      9  H6  UNL     1     -36.038 -62.105 -41.780  1.00  0.00     0.168 HD
HETATM   10  C12 UNL     1     -38.049 -61.881 -41.428  1.00  0.00     0.184 A 
HETATM   11  N7  UNL     1     -39.249 -61.506 -41.905  1.00  0.00    -0.319 N 
ATOM     12  H7  UNL     1     -40.077 -61.572 -41.312  1.00  0.00     0.169 HD
HETATM   13  C13 UNL     1     -39.361 -61.035 -43.183  1.00  0.00     0.264 A 
HETATM   14  O1  UNL     1     -40.496 -60.699 -43.588  1.00  0.00    -0.267 OA
HETATM   15  C14 UNL     1     -38.241 -60.955 -43.957  1.00  0.00     0.121 A 
ENDROOT
BRANCH   1  16
HETATM   16  N2  UNL     1     -39.469 -60.108 -45.754  1.00  0.00    -0.374 N 
ATOM     17  H2  UNL     1     -39.979 -59.406 -45.218  1.00  0.00     0.161 HD
BRANCH  16  18
HETATM   18  C8  UNL     1     -40.083 -60.554 -46.927  1.00  0.00     0.135 C 
BRANCH  18  19
HETATM   19  C5  UNL     1     -40.319 -59.409 -47.989  1.00  0.00     0.000 C 
HETATM   20  C6  UNL     1     -38.903 -58.965 -48.282  1.00  0.00     0.022 C 
HETATM   21  C7  UNL     1     -41.074 -58.318 -47.328  1.00  0.00     0.022 C 
BRANCH  19  22
HETATM   22  C4  UNL     1     -40.947 -60.077 -49.163  1.00  0.00     0.066 C 
BRANCH  22  23
HETATM   23  N1  UNL     1     -40.291 -61.018 -49.877  1.00  0.00    -0.398 N 
ATOM     24  H1  UNL     1     -39.802 -61.681 -49.276  1.00  0.00     0.159 HD
BRANCH  23  25
HETATM   25  C2  UNL     1     -40.119 -61.302 -51.197  1.00  0.00     0.072 C 
HETATM   26  C1  UNL     1     -38.753 -61.459 -51.756  1.00  0.00     0.031 C 
HETATM   27  C3  UNL     1     -40.852 -60.347 -52.157  1.00  0.00     0.031 C 
ENDBRANCH  23  25
ENDBRANCH  22  23
ENDBRANCH  19  22
ENDBRANCH  18  19
ENDBRANCH  16  18
ENDBRANCH   1  16
BRANCH   4  28
HETATM   28  N4  UNL     1     -34.896 -60.748 -46.213  1.00  0.00    -0.234 N 
ATOM     29  H42 UNL     1     -34.608 -59.875 -46.653  1.00  0.00     0.174 HD
ATOM     30  H41 UNL     1     -34.324 -61.578 -46.369  1.00  0.00     0.174 HD
ENDBRANCH   4  28
TORSDOF 7
ENDMDL
MODEL 5
REMARK VINA RESULT: -6.798294249      1.802      6.572
REMARK  7 active torsions:
REMARK  status: ('A' for Active; 'I' for Inactive)
REMARK    1  A    between atoms: C2_2  and  N1_4 
REMARK    2  A    between atoms: N1_4  and  C4_6 
REMARK    3  A    between atoms: C4_6  and  C5_7 
REMARK    4  A    between atoms: C5_7  and  C8_10 
REMARK    5  A    between atoms: C8_10  and  N2_11 
REMARK    6  A    between atoms: N2_11  and  C9_13 
REMARK    7  A    between atoms: C10_16  and  N4_17 
ROOT
HETATM    1  C9  UNL     1     -39.993 -60.125 -48.273  1.00  0.00     0.136 A 
HETATM    2  N3  UNL     1     -41.255 -59.941 -48.690  1.00  0.00    -0.176 N 
ATOM      3  H3  UNL     1     -41.968 -59.754 -47.985  1.00  0.00     0.186 HD
HETATM    4  C10 UNL     1     -41.641 -59.987 -49.988  1.00  0.00     0.679 A 
HETATM    5  N5  UNL     1     -40.713 -60.230 -50.910  1.00  0.00    -0.176 N 
ATOM      6  H5  UNL     1     -40.989 -60.268 -51.891  1.00  0.00     0.186 HD
HETATM    7  C11 UNL     1     -39.430 -60.427 -50.589  1.00  0.00     0.141 A 
HETATM    8  N6  UNL     1     -38.503 -60.677 -51.547  1.00  0.00    -0.337 N 
ATOM      9  H6  UNL     1     -38.775 -60.715 -52.529  1.00  0.00     0.168 HD
HETATM   10  C12 UNL     1     -37.225 -60.872 -51.191  1.00  0.00     0.184 A 
HETATM   11  N7  UNL     1     -36.827 -60.831 -49.906  1.00  0.00    -0.319 N 
ATOM     12  H7  UNL     1     -35.846 -60.984 -49.672  1.00  0.00     0.169 HD
HETATM   13  C13 UNL     1     -37.734 -60.582 -48.916  1.00  0.00     0.264 A 
HETATM   14  O1  UNL     1     -37.322 -60.554 -47.735  1.00  0.00    -0.267 OA
HETATM   15  C14 UNL     1     -39.040 -60.379 -49.253  1.00  0.00     0.121 A 
ENDROOT
BRANCH   1  16
HETATM   16  N2  UNL     1     -39.635 -60.075 -47.015  1.00  0.00    -0.374 N 
ATOM     17  H2  UNL     1     -38.635 -59.997 -46.836  1.00  0.00     0.161 HD
BRANCH  16  18
HETATM   18  C8  UNL     1     -40.463 -60.115 -45.890  1.00  0.00     0.135 C 
BRANCH  18  19
HETATM   19  C5  UNL     1     -39.830 -60.894 -44.671  1.00  0.00     0.000 C 
HETATM   20  C6  UNL     1     -40.424 -62.273 -44.845  1.00  0.00     0.022 C 
HETATM   21  C7  UNL     1     -40.328 -60.271 -43.421  1.00  0.00     0.022 C 
BRANCH  19  22
HETATM   22  C4  UNL     1     -38.360 -60.886 -44.912  1.00  0.00     0.066 C 
BRANCH  22  23
HETATM   23  N1  UNL     1     -37.485 -60.532 -43.945  1.00  0.00    -0.398 N 
ATOM     24  H1  UNL     1     -37.422 -59.520 -43.839  1.00  0.00     0.159 HD
BRANCH  23  25
HETATM   25  C2  UNL     1     -36.668 -61.189 -43.077  1.00  0.00     0.072 C 
HETATM   26  C1  UNL     1     -35.613 -62.098 -43.587  1.00  0.00     0.031 C 
HETATM   27  C3  UNL     1     -37.404 -61.983 -41.982  1.00  0.00     0.031 C 
ENDBRANCH  23  25
ENDBRANCH  22  23
ENDBRANCH  19  22
ENDBRANCH  18  19
ENDBRANCH  16  18
ENDBRANCH   1  16
BRANCH   4  28
HETATM   28  N4  UNL     1     -42.897 -59.796 -50.304  1.00  0.00    -0.234 N 
ATOM     29  H42 UNL     1     -43.635 -60.419 -49.978  1.00  0.00     0.174 HD
ATOM     30  H41 UNL     1     -43.160 -59.004 -50.891  1.00  0.00     0.174 HD
ENDBRANCH   4  28
TORSDOF 7
ENDMDL
