MODEL 1
REMARK VINA RESULT: -6.512680429      0.000      0.000
REMARK  5 active torsions:
REMARK  status: ('A' for Active; 'I' for Inactive)
REMARK    1  A    between atoms: C3_5  and  N2_6 
REMARK    2  A    between atoms: C4_11  and  N4_12 
REMARK    3  A    between atoms: N4_12  and  C5_14 
REMARK    4  A    between atoms: C5_14  and  C6_15 
REMARK    5  A    between atoms: C7_16  and  N5_17 
ROOT
HETATM    1  C1  UNL     1      50.271   7.833  19.383  1.00  0.00     0.090 C 
HETATM    2  C2  UNL     1      50.227   6.346  19.506  1.00  0.00     0.109 A 
HETATM    3  N1  UNL     1      51.259   5.631  19.027  1.00  0.00    -0.180 N 
ATOM      4  H1  UNL     1      52.059   6.085  18.588  1.00  0.00     0.185 HD
HETATM    5  C3  UNL     1      51.198   4.278  19.150  1.00  0.00     0.691 A 
HETATM    6  N3  UNL     1      50.137   3.696  19.733  1.00  0.00    -0.023 N 
ATOM      7  H3  UNL     1      50.113   2.680  19.814  1.00  0.00     0.203 HD
HETATM    8  C4  UNL     1      49.108   4.409  20.211  1.00  0.00     0.694 A 
HETATM    9  N6  UNL     1      49.179   5.747  20.083  1.00  0.00    -0.180 N 
ATOM     10  H6  UNL     1      48.413   6.320  20.436  1.00  0.00     0.185 HD
ENDROOT
BRANCH   8  11
HETATM   11  N4  UNL     1      48.071   3.891  20.777  1.00  0.00    -0.215 N 
ATOM     12  H4  UNL     1      47.576   3.154  20.276  1.00  0.00     0.178 HD
BRANCH  11  13
HETATM   13  C5  UNL     1      47.566   4.279  22.056  1.00  0.00     0.234 C 
BRANCH  13  14
HETATM   14  C6  UNL     1      46.225   4.834  21.896  1.00  0.00    -0.064 C 
HETATM   15  C7  UNL     1      45.123   5.291  21.783  1.00  0.00     0.005 C 
BRANCH  15  16
HETATM   16  N5  UNL     1      43.825   5.820  21.675  1.00  0.00    -0.359 N 
ATOM     17  H52 UNL     1      44.270   4.951  21.974  1.00  0.00     0.166 HD
ATOM     18  H51 UNL     1      42.891   6.219  21.590  1.00  0.00     0.166 HD
ENDBRANCH  15  16
ENDBRANCH  13  14
ENDBRANCH  11  13
ENDBRANCH   8  11
BRANCH   5  19
HETATM   19  N2  UNL     1      52.189   3.568  18.691  1.00  0.00    -0.234 N 
ATOM     20  H22 UNL     1      52.955   3.276  19.298  1.00  0.00     0.174 HD
ATOM     21  H21 UNL     1      52.185   3.309  17.705  1.00  0.00     0.174 HD
ENDBRANCH   5  19
TORSDOF 5
ENDMDL
MODEL 2
REMARK VINA RESULT: -6.445703193      2.667      4.017
REMARK  5 active torsions:
REMARK  status: ('A' for Active; 'I' for Inactive)
REMARK    1  A    between atoms: C3_5  and  N2_6 
REMARK    2  A    between atoms: C4_11  and  N4_12 
REMARK    3  A    between atoms: N4_12  and  C5_14 
REMARK    4  A    between atoms: C5_14  and  C6_15 
REMARK    5  A    between atoms: C7_16  and  N5_17 
ROOT
HETATM    1  C1  UNL     1      49.526   3.361  21.645  1.00  0.00     0.090 C 
HETATM    2  C2  UNL     1      48.476   4.345  21.248  1.00  0.00     0.109 A 
HETATM    3  N1  UNL     1      48.536   4.889  20.020  1.00  0.00    -0.180 N 
ATOM      4  H1  UNL     1      49.278   4.641  19.368  1.00  0.00     0.185 HD
HETATM    5  C3  UNL     1      47.570   5.783  19.681  1.00  0.00     0.691 A 
HETATM    6  N3  UNL     1      46.598   6.098  20.553  1.00  0.00    -0.023 N 
ATOM      7  H3  UNL     1      45.883   6.771  20.276  1.00  0.00     0.203 HD
HETATM    8  C4  UNL     1      46.537   5.555  21.777  1.00  0.00     0.694 A 
HETATM    9  N6  UNL     1      47.500   4.672  22.102  1.00  0.00    -0.180 N 
ATOM     10  H6  UNL     1      47.484   4.240  23.026  1.00  0.00     0.185 HD
ENDROOT
BRANCH   8  11
HETATM   11  N4  UNL     1      45.623   5.829  22.645  1.00  0.00    -0.215 N 
ATOM     12  H4  UNL     1      45.495   6.806  22.906  1.00  0.00     0.178 HD
BRANCH  11  13
HETATM   13  C5  UNL     1      44.779   4.858  23.266  1.00  0.00     0.234 C 
BRANCH  13  14
HETATM   14  C6  UNL     1      44.902   4.972  24.717  1.00  0.00    -0.064 C 
HETATM   15  C7  UNL     1      44.990   5.052  25.909  1.00  0.00     0.005 C 
BRANCH  15  16
HETATM   16  N5  UNL     1      45.071   5.134  27.310  1.00  0.00    -0.359 N 
ATOM     17  H52 UNL     1      44.457   5.461  26.564  1.00  0.00     0.166 HD
ATOM     18  H51 UNL     1      45.145   5.184  28.326  1.00  0.00     0.166 HD
ENDBRANCH  15  16
ENDBRANCH  13  14
ENDBRANCH  11  13
ENDBRANCH   8  11
BRANCH   5  19
HETATM   19  N2  UNL     1      47.612   6.321  18.495  1.00  0.00    -0.234 N 
ATOM     20  H22 UNL     1      47.255   5.826  17.678  1.00  0.00     0.174 HD
ATOM     21  H21 UNL     1      48.012   7.254  18.399  1.00  0.00     0.174 HD
ENDBRANCH   5  19
TORSDOF 5
ENDMDL
MODEL 3
REMARK VINA RESULT: -6.354148284      2.133      3.033
REMARK  5 active torsions:
REMARK  status: ('A' for Active; 'I' for Inactive)
REMARK    1  A    between atoms: C3_5  and  N2_6 
REMARK    2  A    between atoms: C4_11  and  N4_12 
REMARK    3  A    between atoms: N4_12  and  C5_14 
REMARK    4  A    between atoms: C5_14  and  C6_15 
REMARK    5  A    between atoms: C7_16  and  N5_17 
ROOT
HETATM    1  C1  UNL     1      49.237   8.482  19.213  1.00  0.00     0.090 C 
HETATM    2  C2  UNL     1      48.522   7.287  19.750  1.00  0.00     0.109 A 
HETATM    3  N1  UNL     1      48.968   6.065  19.410  1.00  0.00    -0.180 N 
ATOM      4  H1  UNL     1      49.776   5.948  18.800  1.00  0.00     0.185 HD
HETATM    5  C3  UNL     1      48.301   4.991  19.910  1.00  0.00     0.691 A 
HETATM    6  N3  UNL     1      47.239   5.164  20.714  1.00  0.00    -0.023 N 
ATOM      7  H3  UNL     1      46.755   4.344  21.078  1.00  0.00     0.203 HD
HETATM    8  C4  UNL     1      46.795   6.382  21.053  1.00  0.00     0.694 A 
HETATM    9  N6  UNL     1      47.462   7.438  20.551  1.00  0.00    -0.180 N 
ATOM     10  H6  UNL     1      47.150   8.380  20.789  1.00  0.00     0.185 HD
ENDROOT
BRANCH   8  11
HETATM   11  N4  UNL     1      45.780   6.594  21.821  1.00  0.00    -0.215 N 
ATOM     12  H4  UNL     1      45.681   7.522  22.231  1.00  0.00     0.178 HD
BRANCH  11  13
HETATM   13  C5  UNL     1      44.785   5.618  22.137  1.00  0.00     0.234 C 
BRANCH  13  14
HETATM   14  C6  UNL     1      44.906   5.246  23.543  1.00  0.00    -0.064 C 
HETATM   15  C7  UNL     1      44.997   4.923  24.694  1.00  0.00     0.005 C 
BRANCH  15  16
HETATM   16  N5  UNL     1      45.085   4.529  26.040  1.00  0.00    -0.359 N 
ATOM     17  H52 UNL     1      45.707   4.867  25.305  1.00  0.00     0.166 HD
ATOM     18  H51 UNL     1      45.131   4.240  27.017  1.00  0.00     0.166 HD
ENDBRANCH  15  16
ENDBRANCH  13  14
ENDBRANCH  11  13
ENDBRANCH   8  11
BRANCH   5  19
HETATM   19  N2  UNL     1      48.718   3.799  19.592  1.00  0.00    -0.234 N 
ATOM     20  H22 UNL     1      49.681   3.638  19.296  1.00  0.00     0.174 HD
ATOM     21  H21 UNL     1      48.059   3.023  19.644  1.00  0.00     0.174 HD
ENDBRANCH   5  19
TORSDOF 5
ENDMDL
MODEL 4
REMARK VINA RESULT: -6.321893947      1.765      2.184
REMARK  5 active torsions:
REMARK  status: ('A' for Active; 'I' for Inactive)
REMARK    1  A    between atoms: C3_5  and  N2_6 
REMARK    2  A    between atoms: C4_11  and  N4_12 
REMARK    3  A    between atoms: N4_12  and  C5_14 
REMARK    4  A    between atoms: C5_14  and  C6_15 
REMARK    5  A    between atoms: C7_16  and  N5_17 
ROOT
HETATM    1  C1  UNL     1      52.634   3.721  22.547  1.00  0.00     0.090 C 
HETATM    2  C2  UNL     1      51.628   3.696  21.445  1.00  0.00     0.109 A 
HETATM    3  N1  UNL     1      52.066   3.630  20.176  1.00  0.00    -0.180 N 
ATOM      4  H1  UNL     1      53.062   3.598  19.961  1.00  0.00     0.185 HD
HETATM    5  C3  UNL     1      51.131   3.609  19.188  1.00  0.00     0.691 A 
HETATM    6  N3  UNL     1      49.823   3.651  19.490  1.00  0.00    -0.023 N 
ATOM      7  H3  UNL     1      49.140   3.633  18.733  1.00  0.00     0.203 HD
HETATM    8  C4  UNL     1      49.386   3.715  20.755  1.00  0.00     0.694 A 
HETATM    9  N6  UNL     1      50.320   3.737  21.724  1.00  0.00    -0.180 N 
ATOM     10  H6  UNL     1      50.023   3.786  22.699  1.00  0.00     0.185 HD
ENDROOT
BRANCH   8  11
HETATM   11  N4  UNL     1      48.141   3.758  21.089  1.00  0.00    -0.215 N 
ATOM     12  H4  UNL     1      47.478   3.242  20.511  1.00  0.00     0.178 HD
BRANCH  11  13
HETATM   13  C5  UNL     1      47.626   4.476  22.212  1.00  0.00     0.234 C 
BRANCH  13  14
HETATM   14  C6  UNL     1      46.261   4.905  21.923  1.00  0.00    -0.064 C 
HETATM   15  C7  UNL     1      45.134   5.249  21.702  1.00  0.00     0.005 C 
BRANCH  15  16
HETATM   16  N5  UNL     1      43.805   5.634  21.458  1.00  0.00    -0.359 N 
ATOM     17  H52 UNL     1      44.376   5.330  22.248  1.00  0.00     0.166 HD
ATOM     18  H51 UNL     1      42.844   5.917  21.264  1.00  0.00     0.166 HD
ENDBRANCH  15  16
ENDBRANCH  13  14
ENDBRANCH  11  13
ENDBRANCH   8  11
BRANCH   5  19
HETATM   19  N2  UNL     1      51.537   3.547  17.952  1.00  0.00    -0.234 N 
ATOM     20  H22 UNL     1      50.876   3.423  17.185  1.00  0.00     0.174 HD
ATOM     21  H21 UNL     1      52.536   3.624  17.764  1.00  0.00     0.174 HD
ENDBRANCH   5  19
TORSDOF 5
ENDMDL
MODEL 5
REMARK VINA RESULT: -6.268518849      2.188      2.847
REMARK  5 active torsions:
REMARK  status: ('A' for Active; 'I' for Inactive)
REMARK    1  A    between atoms: C3_5  and  N2_6 
REMARK    2  A    between atoms: C4_11  and  N4_12 
REMARK    3  A    between atoms: N4_12  and  C5_14 
REMARK    4  A    between atoms: C5_14  and  C6_15 
REMARK    5  A    between atoms: C7_16  and  N5_17 
ROOT
HETATM    1  C1  UNL     1      52.634   3.731  22.569  1.00  0.00     0.090 C 
HETATM    2  C2  UNL     1      51.639   3.652  21.460  1.00  0.00     0.109 A 
HETATM    3  N1  UNL     1      52.086   3.675  20.192  1.00  0.00    -0.180 N 
ATOM      4  H1  UNL     1      53.082   3.744  19.984  1.00  0.00     0.185 HD
HETATM    5  C3  UNL     1      51.163   3.602  19.198  1.00  0.00     0.691 A 
HETATM    6  N3  UNL     1      49.855   3.510  19.490  1.00  0.00    -0.023 N 
ATOM      7  H3  UNL     1      49.180   3.456  18.728  1.00  0.00     0.203 HD
HETATM    8  C4  UNL     1      49.409   3.487  20.754  1.00  0.00     0.694 A 
HETATM    9  N6  UNL     1      50.332   3.560  21.730  1.00  0.00    -0.180 N 
ATOM     10  H6  UNL     1      50.027   3.545  22.703  1.00  0.00     0.185 HD
ENDROOT
BRANCH   8  11
HETATM   11  N4  UNL     1      48.164   3.400  21.079  1.00  0.00    -0.215 N 
ATOM     12  H4  UNL     1      47.707   2.495  20.971  1.00  0.00     0.178 HD
BRANCH  11  13
HETATM   13  C5  UNL     1      47.379   4.483  21.581  1.00  0.00     0.234 C 
BRANCH  13  14
HETATM   14  C6  UNL     1      47.543   5.641  20.706  1.00  0.00    -0.064 C 
HETATM   15  C7  UNL     1      47.683   6.579  19.973  1.00  0.00     0.005 C 
BRANCH  15  16
HETATM   16  N5  UNL     1      47.862   7.666  19.100  1.00  0.00    -0.359 N 
ATOM     17  H52 UNL     1      47.730   7.507  20.100  1.00  0.00     0.166 HD
ATOM     18  H51 UNL     1      47.993   8.443  18.453  1.00  0.00     0.166 HD
ENDBRANCH  15  16
ENDBRANCH  13  14
ENDBRANCH  11  13
ENDBRANCH   8  11
BRANCH   5  19
HETATM   19  N2  UNL     1      51.578   3.623  17.963  1.00  0.00    -0.234 N 
ATOM     20  H22 UNL     1      50.927   3.510  17.186  1.00  0.00     0.174 HD
ATOM     21  H21 UNL     1      52.573   3.756  17.787  1.00  0.00     0.174 HD
ENDBRANCH   5  19
TORSDOF 5
ENDMDL
