MODEL 1
REMARK VINA RESULT: -7.828769049      0.000      0.000
REMARK  8 active torsions:
REMARK  status: ('A' for Active; 'I' for Inactive)
REMARK    1  A    between atoms: C5_10  and  O2_11 
REMARK    2  A    between atoms: O2_11  and  C6_12 
REMARK    3  A    between atoms: C6_12  and  C7_13 
REMARK    4  A    between atoms: C7_13  and  C8_14 
REMARK    5  A    between atoms: C8_14  and  C9_15 
REMARK    6  A    between atoms: C9_15  and  C10_16 
REMARK    7  A    between atoms: C11_17  and  C12_18 
REMARK    8  A    between atoms: C13_21  and  N4_22 
ROOT
HETATM    1  C10 UNL     1      29.761  27.484  -2.253  1.00  0.00    -0.098 C 
HETATM    2  C11 UNL     1      29.361  28.615  -2.230  1.00  0.00    -0.029 C 
ENDROOT
BRANCH   1   3
HETATM    3  C9  UNL     1      30.289  26.105  -2.292  1.00  0.00     0.094 C 
BRANCH   3   4
HETATM    4  C8  UNL     1      29.606  25.373  -3.422  1.00  0.00     0.014 C 
BRANCH   4   5
HETATM    5  C7  UNL     1      28.772  24.227  -2.907  1.00  0.00     0.028 C 
BRANCH   5   6
HETATM    6  C6  UNL     1      28.509  24.306  -1.430  1.00  0.00     0.177 C 
BRANCH   6   7
HETATM    7  O2  UNL     1      29.159  23.222  -0.766  1.00  0.00    -0.337 OA
BRANCH   7   8
HETATM    8  C5  UNL     1      29.580  23.447   0.552  1.00  0.00     0.150 A 
HETATM    9  C2  UNL     1      29.124  22.584   1.663  1.00  0.00     0.092 A 
HETATM   10  C1  UNL     1      29.622  21.157   1.483  1.00  0.00     0.047 C 
HETATM   11  C3  UNL     1      27.611  22.605   1.786  1.00  0.00     0.047 C 
HETATM   12  N1  UNL     1      29.757  23.136   2.826  1.00  0.00    -0.327 N 
HETATM   13  C4  UNL     1      30.537  24.248   2.410  1.00  0.00     0.322 A 
ATOM     14  H1  UNL     1      29.664  22.791   3.782  1.00  0.00     0.165 HD
HETATM   15  O1  UNL     1      31.252  25.014   3.074  1.00  0.00    -0.247 OA
HETATM   16  N2  UNL     1      30.353  24.344   1.000  1.00  0.00    -0.291 N 
ATOM     17  H2  UNL     1      30.795  25.056   0.417  1.00  0.00     0.172 HD
ENDBRANCH   7   8
ENDBRANCH   6   7
ENDBRANCH   5   6
ENDBRANCH   4   5
ENDBRANCH   3   4
ENDBRANCH   1   3
BRANCH   2  18
HETATM   18  C12 UNL     1      28.906  29.991  -2.224  1.00  0.00     0.191 A 
HETATM   19  N3  UNL     1      29.044  30.736  -1.099  1.00  0.00    -0.168 N 
HETATM   20  C13 UNL     1      28.631  32.011  -1.047  1.00  0.00     0.692 A 
ATOM     21  H3  UNL     1      29.472  30.316  -0.274  1.00  0.00     0.186 HD
HETATM   22  N5  UNL     1      28.071  32.561  -2.128  1.00  0.00    -0.023 N 
HETATM   23  C14 UNL     1      27.923  31.827  -3.273  1.00  0.00     0.692 A 
ATOM     24  H5  UNL     1      27.753  33.529  -2.100  1.00  0.00     0.203 HD
HETATM   25  N6  UNL     1      27.400  32.354  -4.288  1.00  0.00    -0.234 N 
HETATM   26  N7  UNL     1      28.354  30.531  -3.292  1.00  0.00    -0.168 N 
ATOM     27  H62 UNL     1      27.077  33.322  -4.275  1.00  0.00     0.174 HD
ATOM     28  H61 UNL     1      27.289  31.807  -5.142  1.00  0.00     0.174 HD
ATOM     29  H7  UNL     1      28.248  29.976  -4.141  1.00  0.00     0.186 HD
BRANCH  20  30
HETATM   30  N4  UNL     1      28.789  32.681   0.058  1.00  0.00    -0.234 N 
ATOM     31  H42 UNL     1      29.220  32.263   0.882  1.00  0.00     0.174 HD
ATOM     32  H41 UNL     1      28.472  33.650   0.099  1.00  0.00     0.174 HD
ENDBRANCH  20  30
ENDBRANCH   2  18
TORSDOF 8
ENDMDL
MODEL 2
REMARK VINA RESULT: -7.758268082      0.058      1.662
REMARK  8 active torsions:
REMARK  status: ('A' for Active; 'I' for Inactive)
REMARK    1  A    between atoms: C5_10  and  O2_11 
REMARK    2  A    between atoms: O2_11  and  C6_12 
REMARK    3  A    between atoms: C6_12  and  C7_13 
REMARK    4  A    between atoms: C7_13  and  C8_14 
REMARK    5  A    between atoms: C8_14  and  C9_15 
REMARK    6  A    between atoms: C9_15  and  C10_16 
REMARK    7  A    between atoms: C11_17  and  C12_18 
REMARK    8  A    between atoms: C13_21  and  N4_22 
ROOT
HETATM    1  C10 UNL     1      29.844  27.486  -2.240  1.00  0.00    -0.098 C 
HETATM    2  C11 UNL     1      29.463  28.624  -2.215  1.00  0.00    -0.029 C 
ENDROOT
BRANCH   1   3
HETATM    3  C9  UNL     1      30.284  26.076  -2.244  1.00  0.00     0.094 C 
BRANCH   3   4
HETATM    4  C8  UNL     1      29.590  25.372  -3.386  1.00  0.00     0.014 C 
BRANCH   4   5
HETATM    5  C7  UNL     1      28.743  24.228  -2.889  1.00  0.00     0.028 C 
BRANCH   5   6
HETATM    6  C6  UNL     1      28.476  24.288  -1.412  1.00  0.00     0.177 C 
BRANCH   6   7
HETATM    7  O2  UNL     1      29.139  23.205  -0.759  1.00  0.00    -0.337 OA
BRANCH   7   8
HETATM    8  C5  UNL     1      29.564  23.424   0.559  1.00  0.00     0.150 A 
HETATM    9  C2  UNL     1      29.111  22.557   1.668  1.00  0.00     0.092 A 
HETATM   10  C1  UNL     1      29.607  21.130   1.480  1.00  0.00     0.047 C 
HETATM   11  C3  UNL     1      27.598  22.579   1.796  1.00  0.00     0.047 C 
HETATM   12  N1  UNL     1      29.749  23.104   2.831  1.00  0.00    -0.327 N 
HETATM   13  C4  UNL     1      30.529  24.218   2.416  1.00  0.00     0.322 A 
ATOM     14  H1  UNL     1      29.659  22.755   3.785  1.00  0.00     0.165 HD
HETATM   15  O1  UNL     1      31.246  24.980   3.081  1.00  0.00    -0.247 OA
HETATM   16  N2  UNL     1      30.340  24.319   1.008  1.00  0.00    -0.291 N 
ATOM     17  H2  UNL     1      30.780  25.033   0.426  1.00  0.00     0.172 HD
ENDBRANCH   7   8
ENDBRANCH   6   7
ENDBRANCH   5   6
ENDBRANCH   4   5
ENDBRANCH   3   4
ENDBRANCH   1   3
BRANCH   2  18
HETATM   18  C12 UNL     1      28.988  29.991  -2.152  1.00  0.00     0.191 A 
HETATM   19  N3  UNL     1      28.390  30.542  -3.237  1.00  0.00    -0.168 N 
HETATM   20  C13 UNL     1      27.940  31.806  -3.225  1.00  0.00     0.692 A 
ATOM     21  H3  UNL     1      28.278  29.981  -4.082  1.00  0.00     0.186 HD
HETATM   22  N5  UNL     1      28.086  32.540  -2.118  1.00  0.00    -0.023 N 
HETATM   23  C14 UNL     1      28.687  32.004  -1.013  1.00  0.00     0.692 A 
ATOM     24  H5  UNL     1      27.749  33.502  -2.098  1.00  0.00     0.203 HD
HETATM   25  N6  UNL     1      28.815  32.700   0.027  1.00  0.00    -0.234 N 
HETATM   26  N7  UNL     1      29.132  30.713  -1.059  1.00  0.00    -0.168 N 
ATOM     27  H62 UNL     1      28.482  33.664   0.062  1.00  0.00     0.174 HD
ATOM     28  H61 UNL     1      29.263  32.300   0.851  1.00  0.00     0.174 HD
ATOM     29  H7  UNL     1      29.581  30.305  -0.239  1.00  0.00     0.186 HD
BRANCH  20  30
HETATM   30  N4  UNL     1      27.372  32.284  -4.294  1.00  0.00    -0.234 N 
ATOM     31  H42 UNL     1      27.869  32.903  -4.935  1.00  0.00     0.174 HD
ATOM     32  H41 UNL     1      26.404  32.032  -4.495  1.00  0.00     0.174 HD
ENDBRANCH  20  30
ENDBRANCH   2  18
TORSDOF 8
ENDMDL
MODEL 3
REMARK VINA RESULT: -7.604535701      0.949      1.974
REMARK  8 active torsions:
REMARK  status: ('A' for Active; 'I' for Inactive)
REMARK    1  A    between atoms: C5_10  and  O2_11 
REMARK    2  A    between atoms: O2_11  and  C6_12 
REMARK    3  A    between atoms: C6_12  and  C7_13 
REMARK    4  A    between atoms: C7_13  and  C8_14 
REMARK    5  A    between atoms: C8_14  and  C9_15 
REMARK    6  A    between atoms: C9_15  and  C10_16 
REMARK    7  A    between atoms: C11_17  and  C12_18 
REMARK    8  A    between atoms: C13_21  and  N4_22 
ROOT
HETATM    1  C10 UNL     1      29.396  27.563  -1.795  1.00  0.00    -0.098 C 
HETATM    2  C11 UNL     1      28.844  28.525  -2.252  1.00  0.00    -0.029 C 
ENDROOT
BRANCH   1   3
HETATM    3  C9  UNL     1      30.098  26.375  -1.263  1.00  0.00     0.094 C 
BRANCH   3   4
HETATM    4  C8  UNL     1      30.298  25.402  -2.400  1.00  0.00     0.014 C 
BRANCH   4   5
HETATM    5  C7  UNL     1      29.047  24.599  -2.659  1.00  0.00     0.028 C 
BRANCH   5   6
HETATM    6  C6  UNL     1      28.383  24.118  -1.401  1.00  0.00     0.177 C 
BRANCH   6   7
HETATM    7  O2  UNL     1      29.175  23.095  -0.799  1.00  0.00    -0.337 OA
BRANCH   7   8
HETATM    8  C5  UNL     1      29.573  23.300   0.530  1.00  0.00     0.150 A 
HETATM    9  C2  UNL     1      29.103  22.417   1.619  1.00  0.00     0.092 A 
HETATM   10  C1  UNL     1      29.612  20.995   1.424  1.00  0.00     0.047 C 
HETATM   11  C3  UNL     1      27.588  22.428   1.717  1.00  0.00     0.047 C 
HETATM   12  N1  UNL     1      29.714  22.953   2.801  1.00  0.00    -0.327 N 
HETATM   13  C4  UNL     1      30.495  24.076   2.416  1.00  0.00     0.322 A 
ATOM     14  H1  UNL     1      29.607  22.592   3.749  1.00  0.00     0.165 HD
HETATM   15  O1  UNL     1      31.194  24.834   3.104  1.00  0.00    -0.247 OA
HETATM   16  N2  UNL     1      30.334  24.194   1.005  1.00  0.00    -0.291 N 
ATOM     17  H2  UNL     1      30.781  24.917   0.441  1.00  0.00     0.172 HD
ENDBRANCH   7   8
ENDBRANCH   6   7
ENDBRANCH   5   6
ENDBRANCH   4   5
ENDBRANCH   3   4
ENDBRANCH   1   3
BRANCH   2  18
HETATM   18  C12 UNL     1      28.189  29.676  -2.839  1.00  0.00     0.191 A 
HETATM   19  N3  UNL     1      27.356  29.505  -3.896  1.00  0.00    -0.168 N 
HETATM   20  C13 UNL     1      26.734  30.543  -4.474  1.00  0.00     0.692 A 
ATOM     21  H3  UNL     1      27.200  28.564  -4.259  1.00  0.00     0.186 HD
HETATM   22  N5  UNL     1      26.939  31.774  -3.999  1.00  0.00    -0.023 N 
HETATM   23  C14 UNL     1      27.775  31.969  -2.934  1.00  0.00     0.692 A 
ATOM     24  H5  UNL     1      26.471  32.571  -4.431  1.00  0.00     0.203 HD
HETATM   25  N6  UNL     1      27.957  33.131  -2.488  1.00  0.00    -0.234 N 
HETATM   26  N7  UNL     1      28.392  30.889  -2.368  1.00  0.00    -0.168 N 
ATOM     27  H62 UNL     1      27.496  33.937  -2.910  1.00  0.00     0.174 HD
ATOM     28  H61 UNL     1      28.581  33.276  -1.695  1.00  0.00     0.174 HD
ATOM     29  H7  UNL     1      29.017  31.025  -1.573  1.00  0.00     0.186 HD
BRANCH  20  30
HETATM   30  N4  UNL     1      25.944  30.321  -5.485  1.00  0.00    -0.234 N 
ATOM     31  H42 UNL     1      26.304  30.207  -6.433  1.00  0.00     0.174 HD
ATOM     32  H41 UNL     1      24.938  30.262  -5.324  1.00  0.00     0.174 HD
ENDBRANCH  20  30
ENDBRANCH   2  18
TORSDOF 8
ENDMDL
MODEL 4
REMARK VINA RESULT: -7.537651441      0.960      1.306
REMARK  8 active torsions:
REMARK  status: ('A' for Active; 'I' for Inactive)
REMARK    1  A    between atoms: C5_10  and  O2_11 
REMARK    2  A    between atoms: O2_11  and  C6_12 
REMARK    3  A    between atoms: C6_12  and  C7_13 
REMARK    4  A    between atoms: C7_13  and  C8_14 
REMARK    5  A    between atoms: C8_14  and  C9_15 
REMARK    6  A    between atoms: C9_15  and  C10_16 
REMARK    7  A    between atoms: C11_17  and  C12_18 
REMARK    8  A    between atoms: C13_21  and  N4_22 
ROOT
HETATM    1  C10 UNL     1      29.418  27.537  -1.843  1.00  0.00    -0.098 C 
HETATM    2  C11 UNL     1      28.844  28.481  -2.312  1.00  0.00    -0.029 C 
ENDROOT
BRANCH   1   3
HETATM    3  C9  UNL     1      30.140  26.367  -1.301  1.00  0.00     0.094 C 
BRANCH   3   4
HETATM    4  C8  UNL     1      30.320  25.368  -2.419  1.00  0.00     0.014 C 
BRANCH   4   5
HETATM    5  C7  UNL     1      29.049  24.598  -2.676  1.00  0.00     0.028 C 
BRANCH   5   6
HETATM    6  C6  UNL     1      28.376  24.133  -1.416  1.00  0.00     0.177 C 
BRANCH   6   7
HETATM    7  O2  UNL     1      29.153  23.102  -0.807  1.00  0.00    -0.337 OA
BRANCH   7   8
HETATM    8  C5  UNL     1      29.554  23.310   0.520  1.00  0.00     0.150 A 
HETATM    9  C2  UNL     1      29.100  22.418   1.609  1.00  0.00     0.092 A 
HETATM   10  C1  UNL     1      29.626  21.004   1.409  1.00  0.00     0.047 C 
HETATM   11  C3  UNL     1      27.586  22.411   1.714  1.00  0.00     0.047 C 
HETATM   12  N1  UNL     1      29.711  22.960   2.790  1.00  0.00    -0.327 N 
HETATM   13  C4  UNL     1      30.476  24.093   2.403  1.00  0.00     0.322 A 
ATOM     14  H1  UNL     1      29.613  22.596   3.738  1.00  0.00     0.165 HD
HETATM   15  O1  UNL     1      31.169  24.859   3.089  1.00  0.00    -0.247 OA
HETATM   16  N2  UNL     1      30.306  24.212   0.993  1.00  0.00    -0.291 N 
ATOM     17  H2  UNL     1      30.742  24.942   0.428  1.00  0.00     0.172 HD
ENDBRANCH   7   8
ENDBRANCH   6   7
ENDBRANCH   5   6
ENDBRANCH   4   5
ENDBRANCH   3   4
ENDBRANCH   1   3
BRANCH   2  18
HETATM   18  C12 UNL     1      28.153  29.604  -2.912  1.00  0.00     0.191 A 
HETATM   19  N3  UNL     1      28.363  30.853  -2.429  1.00  0.00    -0.168 N 
HETATM   20  C13 UNL     1      27.740  31.922  -2.950  1.00  0.00     0.692 A 
ATOM     21  H3  UNL     1      29.011  30.984  -1.652  1.00  0.00     0.186 HD
HETATM   22  N5  UNL     1      26.893  31.750  -3.968  1.00  0.00    -0.023 N 
HETATM   23  C14 UNL     1      26.666  30.498  -4.471  1.00  0.00     0.692 A 
ATOM     24  H5  UNL     1      26.413  32.555  -4.372  1.00  0.00     0.203 HD
HETATM   25  N6  UNL     1      25.872  30.347  -5.433  1.00  0.00    -0.234 N 
HETATM   26  N7  UNL     1      27.318  29.433  -3.917  1.00  0.00    -0.168 N 
ATOM     27  H62 UNL     1      25.385  31.143  -5.847  1.00  0.00     0.174 HD
ATOM     28  H61 UNL     1      25.703  29.414  -5.808  1.00  0.00     0.174 HD
ATOM     29  H7  UNL     1      27.156  28.496  -4.285  1.00  0.00     0.186 HD
BRANCH  20  30
HETATM   30  N4  UNL     1      27.980  33.099  -2.449  1.00  0.00    -0.234 N 
ATOM     31  H42 UNL     1      28.924  33.393  -2.197  1.00  0.00     0.174 HD
ATOM     32  H41 UNL     1      27.202  33.743  -2.304  1.00  0.00     0.174 HD
ENDBRANCH  20  30
ENDBRANCH   2  18
TORSDOF 8
ENDMDL
MODEL 5
REMARK VINA RESULT: -7.287780318      5.077      6.016
REMARK  8 active torsions:
REMARK  status: ('A' for Active; 'I' for Inactive)
REMARK    1  A    between atoms: C5_10  and  O2_11 
REMARK    2  A    between atoms: O2_11  and  C6_12 
REMARK    3  A    between atoms: C6_12  and  C7_13 
REMARK    4  A    between atoms: C7_13  and  C8_14 
REMARK    5  A    between atoms: C8_14  and  C9_15 
REMARK    6  A    between atoms: C9_15  and  C10_16 
REMARK    7  A    between atoms: C11_17  and  C12_18 
REMARK    8  A    between atoms: C13_21  and  N4_22 
ROOT
HETATM    1  C10 UNL     1      25.601  27.821  -2.517  1.00  0.00    -0.098 C 
HETATM    2  C11 UNL     1      24.537  27.429  -2.124  1.00  0.00    -0.029 C 
ENDROOT
BRANCH   1   3
HETATM    3  C9  UNL     1      26.921  28.315  -2.963  1.00  0.00     0.094 C 
BRANCH   3   4
HETATM    4  C8  UNL     1      27.869  27.142  -3.014  1.00  0.00     0.014 C 
BRANCH   4   5
HETATM    5  C7  UNL     1      28.977  27.290  -2.002  1.00  0.00     0.028 C 
BRANCH   5   6
HETATM    6  C6  UNL     1      29.743  26.018  -1.775  1.00  0.00     0.177 C 
BRANCH   6   7
HETATM    7  O2  UNL     1      29.470  25.518  -0.466  1.00  0.00    -0.337 OA
BRANCH   7   8
HETATM    8  C5  UNL     1      29.233  24.141  -0.349  1.00  0.00     0.150 A 
HETATM    9  C2  UNL     1      29.687  23.381   0.835  1.00  0.00     0.092 A 
HETATM   10  C1  UNL     1      28.978  23.862   2.094  1.00  0.00     0.047 C 
HETATM   11  C3  UNL     1      31.192  23.478   1.005  1.00  0.00     0.047 C 
HETATM   12  N1  UNL     1      29.269  22.033   0.575  1.00  0.00    -0.327 N 
HETATM   13  C4  UNL     1      28.609  22.018  -0.684  1.00  0.00     0.322 A 
ATOM     14  H1  UNL     1      29.419  21.229   1.184  1.00  0.00     0.165 HD
HETATM   15  O1  UNL     1      28.086  21.076  -1.298  1.00  0.00    -0.247 OA
HETATM   16  N2  UNL     1      28.647  23.361  -1.157  1.00  0.00    -0.291 N 
ATOM     17  H2  UNL     1      28.246  23.662  -2.046  1.00  0.00     0.172 HD
ENDBRANCH   7   8
ENDBRANCH   6   7
ENDBRANCH   5   6
ENDBRANCH   4   5
ENDBRANCH   3   4
ENDBRANCH   1   3
BRANCH   2  18
HETATM   18  C12 UNL     1      23.255  26.980  -1.621  1.00  0.00     0.191 A 
HETATM   19  N3  UNL     1      22.665  25.891  -2.173  1.00  0.00    -0.168 N 
HETATM   20  C13 UNL     1      21.475  25.443  -1.743  1.00  0.00     0.692 A 
ATOM     21  H3  UNL     1      23.137  25.401  -2.933  1.00  0.00     0.186 HD
HETATM   22  N5  UNL     1      20.858  26.085  -0.748  1.00  0.00    -0.023 N 
HETATM   23  C14 UNL     1      21.436  27.185  -0.177  1.00  0.00     0.692 A 
ATOM     24  H5  UNL     1      19.953  25.754  -0.413  1.00  0.00     0.203 HD
HETATM   25  N6  UNL     1      20.850  27.780   0.764  1.00  0.00    -0.234 N 
HETATM   26  N7  UNL     1      22.648  27.614  -0.639  1.00  0.00    -0.168 N 
ATOM     27  H62 UNL     1      19.945  27.460   1.110  1.00  0.00     0.174 HD
ATOM     28  H61 UNL     1      21.281  28.600   1.190  1.00  0.00     0.174 HD
ATOM     29  H7  UNL     1      23.087  28.433  -0.219  1.00  0.00     0.186 HD
BRANCH  20  30
HETATM   30  N4  UNL     1      20.954  24.392  -2.308  1.00  0.00    -0.234 N 
ATOM     31  H42 UNL     1      20.897  23.496  -1.825  1.00  0.00     0.174 HD
ATOM     32  H41 UNL     1      20.595  24.469  -3.260  1.00  0.00     0.174 HD
ENDBRANCH  20  30
ENDBRANCH   2  18
TORSDOF 8
ENDMDL
