MODEL 1
REMARK VINA RESULT: -4.252549900      0.000      0.000
REMARK  3 active torsions:
REMARK  status: ('A' for Active; 'I' for Inactive)
REMARK    1  A    between atoms: N1_1  and  N2_4 
REMARK    2  A    between atoms: N3_6  and  C1_8 
REMARK    3  A    between atoms: C1_8  and  N4_9 
ROOT
HETATM    1  C1  UNL     1     -38.073  11.402  -9.625  1.00  0.00     0.213 C 
HETATM    2  C2  UNL     1     -37.890   9.979 -10.111  1.00  0.00     0.067 C 
HETATM    3  C3  UNL     1     -38.440   9.927 -11.521  1.00  0.00    -0.010 C 
HETATM    4  C4  UNL     1     -39.924   9.761 -11.416  1.00  0.00     0.005 C 
HETATM    5  C5  UNL     1     -40.314  11.051 -10.689  1.00  0.00     0.009 C 
HETATM    6  C6  UNL     1     -39.086  11.908 -10.641  1.00  0.00     0.044 C 
HETATM    7  C7  UNL     1     -38.354  11.413 -11.904  1.00  0.00     0.013 C 
ENDROOT
BRANCH   1   8
HETATM    8  N3  UNL     1     -38.580  11.478  -8.288  1.00  0.00    -0.286 N 
HETATM    9  N2  UNL     1     -38.057  10.854  -7.353  1.00  0.00    -0.252 N 
ATOM     10  H2  UNL     1     -38.490  10.971  -6.438  1.00  0.00     0.207 HD
ATOM     11  H3  UNL     1     -39.396  12.061  -8.100  1.00  0.00     0.184 HD
BRANCH   9  12
HETATM   12  N1  UNL     1     -36.959  10.022  -7.405  1.00  0.00    -0.331 N 
ATOM     13  H12 UNL     1     -36.651   9.774  -8.345  1.00  0.00     0.178 HD
ATOM     14  H11 UNL     1     -36.432   9.635  -6.622  1.00  0.00     0.178 HD
ENDBRANCH   9  12
ENDBRANCH   1   8
BRANCH   1  15
HETATM   15  N4  UNL     1     -36.873  12.170  -9.801  1.00  0.00    -0.051 N 
ATOM     16  H43 UNL     1     -36.542  12.543  -8.912  1.00  0.00     0.277 HD
ATOM     17  H42 UNL     1     -36.082  11.568 -10.030  1.00  0.00     0.277 HD
ATOM     18  H41 UNL     1     -36.982  12.911 -10.493  1.00  0.00     0.277 HD
ENDBRANCH   1  15
TORSDOF 3
ENDMDL
MODEL 2
REMARK VINA RESULT: -4.059306620      2.294      3.068
REMARK  3 active torsions:
REMARK  status: ('A' for Active; 'I' for Inactive)
REMARK    1  A    between atoms: N1_1  and  N2_4 
REMARK    2  A    between atoms: N3_6  and  C1_8 
REMARK    3  A    between atoms: C1_8  and  N4_9 
ROOT
HETATM    1  C1  UNL     1     -39.479   9.939 -10.885  1.00  0.00     0.213 C 
HETATM    2  C2  UNL     1     -39.200  10.669  -9.587  1.00  0.00     0.067 C 
HETATM    3  C3  UNL     1     -39.043  12.133  -9.939  1.00  0.00    -0.010 C 
HETATM    4  C4  UNL     1     -37.639  12.331 -10.417  1.00  0.00     0.005 C 
HETATM    5  C5  UNL     1     -37.622  11.432 -11.658  1.00  0.00     0.009 C 
HETATM    6  C6  UNL     1     -39.035  10.991 -11.891  1.00  0.00     0.044 C 
HETATM    7  C7  UNL     1     -39.801  12.179 -11.275  1.00  0.00     0.013 C 
ENDROOT
BRANCH   1   8
HETATM    8  N3  UNL     1     -38.728   8.726 -11.020  1.00  0.00    -0.286 N 
HETATM    9  N2  UNL     1     -38.369   8.066 -10.035  1.00  0.00    -0.252 N 
ATOM     10  H2  UNL     1     -37.838   7.219 -10.231  1.00  0.00     0.207 HD
ATOM     11  H3  UNL     1     -38.482   8.397 -11.954  1.00  0.00     0.184 HD
BRANCH   9  12
HETATM   12  N1  UNL     1     -38.602   8.343  -8.704  1.00  0.00    -0.331 N 
ATOM     13  H12 UNL     1     -39.238   9.121  -8.531  1.00  0.00     0.178 HD
ATOM     14  H11 UNL     1     -38.215   7.864  -7.891  1.00  0.00     0.178 HD
ENDBRANCH   9  12
ENDBRANCH   1   8
BRANCH   1  15
HETATM   15  N4  UNL     1     -40.887   9.736 -11.075  1.00  0.00    -0.051 N 
ATOM     16  H43 UNL     1     -41.066   8.905 -11.638  1.00  0.00     0.277 HD
ATOM     17  H42 UNL     1     -41.337   9.444 -10.207  1.00  0.00     0.277 HD
ATOM     18  H41 UNL     1     -41.349  10.554 -11.471  1.00  0.00     0.277 HD
ENDBRANCH   1  15
TORSDOF 3
ENDMDL
MODEL 3
REMARK VINA RESULT: -3.992324478      1.058      2.025
REMARK  3 active torsions:
REMARK  status: ('A' for Active; 'I' for Inactive)
REMARK    1  A    between atoms: N1_1  and  N2_4 
REMARK    2  A    between atoms: N3_6  and  C1_8 
REMARK    3  A    between atoms: C1_8  and  N4_9 
ROOT
HETATM    1  C1  UNL     1     -38.665  10.217  -9.427  1.00  0.00     0.213 C 
HETATM    2  C2  UNL     1     -40.054  10.572  -9.918  1.00  0.00     0.067 C 
HETATM    3  C3  UNL     1     -40.101  10.209 -11.387  1.00  0.00    -0.010 C 
HETATM    4  C4  UNL     1     -39.482  11.338 -12.148  1.00  0.00     0.005 C 
HETATM    5  C5  UNL     1     -38.054  11.319 -11.592  1.00  0.00     0.009 C 
HETATM    6  C6  UNL     1     -37.933  10.083 -10.755  1.00  0.00     0.044 C 
HETATM    7  C7  UNL     1     -38.966   9.175 -11.451  1.00  0.00     0.013 C 
ENDROOT
BRANCH   1   8
HETATM    8  N3  UNL     1     -38.084  11.233  -8.602  1.00  0.00    -0.286 N 
HETATM    9  N2  UNL     1     -37.289  10.961  -7.691  1.00  0.00    -0.252 N 
ATOM     10  H2  UNL     1     -36.930  11.752  -7.157  1.00  0.00     0.207 HD
ATOM     11  H3  UNL     1     -38.333  12.208  -8.768  1.00  0.00     0.184 HD
BRANCH   9  12
HETATM   12  N1  UNL     1     -36.833   9.716  -7.314  1.00  0.00    -0.331 N 
ATOM     13  H12 UNL     1     -36.827   9.017  -8.056  1.00  0.00     0.178 HD
ATOM     14  H11 UNL     1     -36.507   9.424  -6.392  1.00  0.00     0.178 HD
ENDBRANCH   9  12
ENDBRANCH   1   8
BRANCH   1  15
HETATM   15  N4  UNL     1     -38.650   8.925  -8.801  1.00  0.00    -0.051 N 
ATOM     16  H43 UNL     1     -37.695   8.600  -8.653  1.00  0.00     0.277 HD
ATOM     17  H42 UNL     1     -38.954   8.985  -7.829  1.00  0.00     0.277 HD
ATOM     18  H41 UNL     1     -39.197   8.236  -9.315  1.00  0.00     0.277 HD
ENDBRANCH   1  15
TORSDOF 3
ENDMDL
MODEL 4
REMARK VINA RESULT: -3.833274154      2.456      3.048
REMARK  3 active torsions:
REMARK  status: ('A' for Active; 'I' for Inactive)
REMARK    1  A    between atoms: N1_1  and  N2_4 
REMARK    2  A    between atoms: N3_6  and  C1_8 
REMARK    3  A    between atoms: C1_8  and  N4_9 
ROOT
HETATM    1  C1  UNL     1     -38.881   9.672 -10.566  1.00  0.00     0.213 C 
HETATM    2  C2  UNL     1     -40.079  10.600 -10.565  1.00  0.00     0.067 C 
HETATM    3  C3  UNL     1     -39.618  11.905 -11.178  1.00  0.00    -0.010 C 
HETATM    4  C4  UNL     1     -38.937  12.690 -10.101  1.00  0.00     0.005 C 
HETATM    5  C5  UNL     1     -37.765  11.765  -9.758  1.00  0.00     0.009 C 
HETATM    6  C6  UNL     1     -37.759  10.677 -10.788  1.00  0.00     0.044 C 
HETATM    7  C7  UNL     1     -38.399  11.418 -11.978  1.00  0.00     0.013 C 
ENDROOT
BRANCH   1   8
HETATM    8  N3  UNL     1     -38.720   8.961  -9.333  1.00  0.00    -0.286 N 
HETATM    9  N2  UNL     1     -39.366   7.934  -9.081  1.00  0.00    -0.252 N 
ATOM     10  H2  UNL     1     -39.183   7.499  -8.178  1.00  0.00     0.207 HD
ATOM     11  H3  UNL     1     -38.055   9.311  -8.643  1.00  0.00     0.184 HD
BRANCH   9  12
HETATM   12  N1  UNL     1     -40.302   7.310  -9.878  1.00  0.00    -0.331 N 
ATOM     13  H12 UNL     1     -40.714   7.900 -10.601  1.00  0.00     0.178 HD
ATOM     14  H11 UNL     1     -40.621   6.343  -9.824  1.00  0.00     0.178 HD
ENDBRANCH   9  12
ENDBRANCH   1   8
BRANCH   1  15
HETATM   15  N4  UNL     1     -38.901   8.799 -11.705  1.00  0.00    -0.051 N 
ATOM     16  H43 UNL     1     -39.722   8.972 -12.286  1.00  0.00     0.277 HD
ATOM     17  H42 UNL     1     -38.173   9.050 -12.373  1.00  0.00     0.277 HD
ATOM     18  H41 UNL     1     -38.837   7.815 -11.444  1.00  0.00     0.277 HD
ENDBRANCH   1  15
TORSDOF 3
ENDMDL
MODEL 5
REMARK VINA RESULT: -3.701981911      1.528      1.655
REMARK  3 active torsions:
REMARK  status: ('A' for Active; 'I' for Inactive)
REMARK    1  A    between atoms: N1_1  and  N2_4 
REMARK    2  A    between atoms: N3_6  and  C1_8 
REMARK    3  A    between atoms: C1_8  and  N4_9 
ROOT
HETATM    1  C1  UNL     1     -38.110  10.938  -9.393  1.00  0.00     0.213 C 
HETATM    2  C2  UNL     1     -37.768  10.398 -10.766  1.00  0.00     0.067 C 
HETATM    3  C3  UNL     1     -38.440  11.311 -11.771  1.00  0.00    -0.010 C 
HETATM    4  C4  UNL     1     -39.865  10.873 -11.891  1.00  0.00     0.005 C 
HETATM    5  C5  UNL     1     -40.368  11.113 -10.464  1.00  0.00     0.009 C 
HETATM    6  C6  UNL     1     -39.281  11.846  -9.741  1.00  0.00     0.044 C 
HETATM    7  C7  UNL     1     -38.609  12.579 -10.919  1.00  0.00     0.013 C 
ENDROOT
BRANCH   1   8
HETATM    8  N3  UNL     1     -38.491   9.914  -8.466  1.00  0.00    -0.286 N 
HETATM    9  N2  UNL     1     -38.555   8.722  -8.798  1.00  0.00    -0.252 N 
ATOM     10  H2  UNL     1     -38.836   8.068  -8.069  1.00  0.00     0.207 HD
ATOM     11  H3  UNL     1     -38.715  10.174  -7.505  1.00  0.00     0.184 HD
BRANCH   9  12
HETATM   12  N1  UNL     1     -38.293   8.177 -10.037  1.00  0.00    -0.331 N 
ATOM     13  H12 UNL     1     -37.344   8.326 -10.381  1.00  0.00     0.178 HD
ATOM     14  H11 UNL     1     -38.931   7.650 -10.634  1.00  0.00     0.178 HD
ENDBRANCH   9  12
ENDBRANCH   1   8
BRANCH   1  15
HETATM   15  N4  UNL     1     -37.058  11.774  -8.886  1.00  0.00    -0.051 N 
ATOM     16  H43 UNL     1     -36.747  12.440  -9.592  1.00  0.00     0.277 HD
ATOM     17  H42 UNL     1     -37.413  12.428  -8.189  1.00  0.00     0.277 HD
ATOM     18  H41 UNL     1     -36.274  11.234  -8.519  1.00  0.00     0.277 HD
ENDBRANCH   1  15
TORSDOF 3
ENDMDL
