MODEL 1
REMARK VINA RESULT: -6.063306954      0.000      0.000
REMARK  1 active torsions:
REMARK  status: ('A' for Active; 'I' for Inactive)
REMARK    1  A    between atoms: C2_3  and  C3_4 
REMARK       I    between atoms: N2_8  and  C7_9 
ROOT
HETATM    1  N1  UNL     1     -36.340   9.447  -6.821  1.00  0.00    -0.197 NA
HETATM    2  C1  UNL     1     -37.188   9.855  -7.476  1.00  0.00     0.061 C 
HETATM    3  C2  UNL     1     -38.256  10.369  -8.324  1.00  0.00     0.149 C 
ENDROOT
BRANCH   3   4
HETATM    4  C3  UNL     1     -38.370   9.616  -9.626  1.00  0.00     0.100 C 
HETATM    5  C4  UNL     1     -39.219   8.363  -9.474  1.00  0.00     0.028 C 
HETATM    6  C5  UNL     1     -39.789   8.211 -10.868  1.00  0.00     0.022 C 
HETATM    7  C6  UNL     1     -40.122   9.673 -11.198  1.00  0.00     0.126 C 
HETATM    8  N2  UNL     1     -38.978  10.381 -10.674  1.00  0.00    -0.350 N 
HETATM    9  C7  UNL     1     -38.522  11.642 -11.127  1.00  0.00     0.184 C 
HETATM   10  N3  UNL     1     -38.669  12.735 -10.508  1.00  0.00    -0.374 N 
HETATM   11  N4  UNL     1     -37.849  11.647 -12.383  1.00  0.00    -0.064 NA
ATOM     12  H32 UNL     1     -39.151  12.732  -9.609  1.00  0.00     0.158 HD
ATOM     13  H31 UNL     1     -38.341  13.644 -10.833  1.00  0.00     0.158 HD
ENDBRANCH   3   4
TORSDOF 1
ENDMDL
MODEL 2
REMARK VINA RESULT: -6.021139546      1.273      3.412
REMARK  1 active torsions:
REMARK  status: ('A' for Active; 'I' for Inactive)
REMARK    1  A    between atoms: C2_3  and  C3_4 
REMARK       I    between atoms: N2_8  and  C7_9 
ROOT
HETATM    1  N1  UNL     1     -37.478  11.600 -12.479  1.00  0.00    -0.197 NA
HETATM    2  C1  UNL     1     -38.465  11.623 -11.895  1.00  0.00     0.061 C 
HETATM    3  C2  UNL     1     -39.720  11.635 -11.156  1.00  0.00     0.149 C 
ENDROOT
BRANCH   3   4
HETATM    4  C3  UNL     1     -39.928  10.373 -10.355  1.00  0.00     0.100 C 
HETATM    5  C4  UNL     1     -40.371   9.217 -11.241  1.00  0.00     0.028 C 
HETATM    6  C5  UNL     1     -39.824   8.027 -10.483  1.00  0.00     0.022 C 
HETATM    7  C6  UNL     1     -38.447   8.565 -10.067  1.00  0.00     0.126 C 
HETATM    8  N2  UNL     1     -38.745   9.924  -9.682  1.00  0.00    -0.350 N 
HETATM    9  C7  UNL     1     -37.984  10.700  -8.776  1.00  0.00     0.184 C 
HETATM   10  N3  UNL     1     -37.209  11.645  -9.098  1.00  0.00    -0.374 N 
HETATM   11  N4  UNL     1     -38.126  10.364  -7.398  1.00  0.00    -0.064 NA
ATOM     12  H32 UNL     1     -37.107  11.886 -10.084  1.00  0.00     0.158 HD
ATOM     13  H31 UNL     1     -36.660  12.205  -8.445  1.00  0.00     0.158 HD
ENDBRANCH   3   4
TORSDOF 1
ENDMDL
MODEL 3
REMARK VINA RESULT: -5.812089235      1.350      2.845
REMARK  1 active torsions:
REMARK  status: ('A' for Active; 'I' for Inactive)
REMARK    1  A    between atoms: C2_3  and  C3_4 
REMARK       I    between atoms: N2_8  and  C7_9 
ROOT
HETATM    1  N1  UNL     1     -36.480   9.855  -6.835  1.00  0.00    -0.197 NA
HETATM    2  C1  UNL     1     -37.238   9.564  -7.645  1.00  0.00     0.061 C 
HETATM    3  C2  UNL     1     -38.212   9.209  -8.669  1.00  0.00     0.149 C 
ENDROOT
BRANCH   3   4
HETATM    4  C3  UNL     1     -38.819  10.421  -9.330  1.00  0.00     0.100 C 
HETATM    5  C4  UNL     1     -37.871  11.612  -9.290  1.00  0.00     0.028 C 
HETATM    6  C5  UNL     1     -38.287  12.372 -10.531  1.00  0.00     0.022 C 
HETATM    7  C6  UNL     1     -38.480  11.215 -11.521  1.00  0.00     0.126 C 
HETATM    8  N2  UNL     1     -39.139  10.216 -10.712  1.00  0.00    -0.350 N 
HETATM    9  C7  UNL     1     -39.975   9.189 -11.206  1.00  0.00     0.184 C 
HETATM   10  N3  UNL     1     -39.654   7.969 -11.299  1.00  0.00    -0.374 N 
HETATM   11  N4  UNL     1     -41.277   9.592 -11.625  1.00  0.00    -0.064 NA
ATOM     12  H32 UNL     1     -38.723   7.680 -11.001  1.00  0.00     0.158 HD
ATOM     13  H31 UNL     1     -40.258   7.227 -11.656  1.00  0.00     0.158 HD
ENDBRANCH   3   4
TORSDOF 1
ENDMDL
MODEL 4
REMARK VINA RESULT: -5.387062950      1.657      4.199
REMARK  1 active torsions:
REMARK  status: ('A' for Active; 'I' for Inactive)
REMARK    1  A    between atoms: C2_3  and  C3_4 
REMARK       I    between atoms: N2_8  and  C7_9 
ROOT
HETATM    1  N1  UNL     1     -41.316   9.172 -11.392  1.00  0.00    -0.197 NA
HETATM    2  C1  UNL     1     -40.171   9.109 -11.417  1.00  0.00     0.061 C 
HETATM    3  C2  UNL     1     -38.716   9.048 -11.452  1.00  0.00     0.149 C 
ENDROOT
BRANCH   3   4
HETATM    4  C3  UNL     1     -38.074  10.274 -10.854  1.00  0.00     0.100 C 
HETATM    5  C4  UNL     1     -38.513  11.541 -11.573  1.00  0.00     0.028 C 
HETATM    6  C5  UNL     1     -38.403  12.572 -10.469  1.00  0.00     0.022 C 
HETATM    7  C6  UNL     1     -38.979  11.781  -9.286  1.00  0.00     0.126 C 
HETATM    8  N2  UNL     1     -38.399  10.471  -9.472  1.00  0.00    -0.350 N 
HETATM    9  C7  UNL     1     -38.184   9.522  -8.445  1.00  0.00     0.184 C 
HETATM   10  N3  UNL     1     -38.875   8.480  -8.259  1.00  0.00    -0.374 N 
HETATM   11  N4  UNL     1     -37.093   9.792  -7.567  1.00  0.00    -0.064 NA
ATOM     12  H32 UNL     1     -39.654   8.287  -8.887  1.00  0.00     0.158 HD
ATOM     13  H31 UNL     1     -38.719   7.795  -7.519  1.00  0.00     0.158 HD
ENDBRANCH   3   4
TORSDOF 1
ENDMDL
MODEL 5
REMARK VINA RESULT: -5.274497512      1.773      3.224
REMARK  1 active torsions:
REMARK  status: ('A' for Active; 'I' for Inactive)
REMARK    1  A    between atoms: C2_3  and  C3_4 
REMARK       I    between atoms: N2_8  and  C7_9 
ROOT
HETATM    1  N1  UNL     1     -40.691   7.170 -10.313  1.00  0.00    -0.197 NA
HETATM    2  C1  UNL     1     -39.759   7.811 -10.121  1.00  0.00     0.061 C 
HETATM    3  C2  UNL     1     -38.576   8.631  -9.895  1.00  0.00     0.149 C 
ENDROOT
BRANCH   3   4
HETATM    4  C3  UNL     1     -38.565   9.873 -10.750  1.00  0.00     0.100 C 
HETATM    5  C4  UNL     1     -39.729   9.887 -11.730  1.00  0.00     0.028 C 
HETATM    6  C5  UNL     1     -39.960  11.372 -11.908  1.00  0.00     0.022 C 
HETATM    7  C6  UNL     1     -39.799  11.858 -10.460  1.00  0.00     0.126 C 
HETATM    8  N2  UNL     1     -38.671  11.086  -9.994  1.00  0.00    -0.350 N 
HETATM    9  C7  UNL     1     -37.799  11.467  -8.947  1.00  0.00     0.184 C 
HETATM   10  N3  UNL     1     -37.795  10.970  -7.784  1.00  0.00    -0.374 N 
HETATM   11  N4  UNL     1     -36.863  12.496  -9.260  1.00  0.00    -0.064 NA
ATOM     12  H32 UNL     1     -38.465  10.235  -7.560  1.00  0.00     0.158 HD
ATOM     13  H31 UNL     1     -37.166  11.245  -7.029  1.00  0.00     0.158 HD
ENDBRANCH   3   4
TORSDOF 1
ENDMDL
