MODEL 1
REMARK VINA RESULT: -5.977791894      0.000      0.000
REMARK  8 active torsions:
REMARK  status: ('A' for Active; 'I' for Inactive)
REMARK    1  A    between atoms: O1_2  and  C2_3 
REMARK    2  A    between atoms: C2_3  and  C3_4 
REMARK    3  A    between atoms: C3_4  and  C4_5 
REMARK    4  A    between atoms: C3_4  and  N3_10 
REMARK    5  A    between atoms: C4_5  and  N1_6 
REMARK    6  A    between atoms: N3_10  and  N4_11 
REMARK    7  A    between atoms: N4_11  and  C6_13 
REMARK    8  A    between atoms: C8_17  and  N6_18 
ROOT
HETATM    1  N1  UNL     1      -4.804  -6.775 -41.549  1.00  0.00    -0.327 N 
ATOM      2  H1  UNL     1      -4.169  -7.466 -41.949  1.00  0.00     0.171 HD
HETATM    3  C5  UNL     1      -4.307  -5.814 -40.626  1.00  0.00     0.177 C 
HETATM    4  N2  UNL     1      -3.895  -5.051 -39.871  1.00  0.00    -0.172 NA
ENDROOT
BRANCH   1   5
HETATM    5  C4  UNL     1      -6.202  -6.784 -41.926  1.00  0.00     0.156 C 
BRANCH   5   6
HETATM    6  C3  UNL     1      -6.387  -7.136 -43.376  1.00  0.00     0.141 C 
BRANCH   6   7
HETATM    7  C2  UNL     1      -5.884  -6.033 -44.231  1.00  0.00     0.191 C 
BRANCH   7   8
HETATM    8  O1  UNL     1      -6.266  -4.801 -43.766  1.00  0.00    -0.394 OA
HETATM    9  C1  UNL     1      -6.742  -3.929 -44.718  1.00  0.00     0.201 C 
ENDBRANCH   7   8
ENDBRANCH   6   7
BRANCH   6  10
HETATM   10  N3  UNL     1      -7.810  -7.325 -43.579  1.00  0.00    -0.132 NA
BRANCH  10  11
HETATM   11  N4  UNL     1      -8.590  -6.681 -42.660  1.00  0.00    -0.300 N 
ATOM     12  H4  UNL     1      -8.215  -6.539 -41.722  1.00  0.00     0.182 HD
BRANCH  11  13
HETATM   13  C6  UNL     1      -9.903  -6.196 -42.942  1.00  0.00     0.083 A 
HETATM   14  C7  UNL     1     -10.017  -5.223 -43.918  1.00  0.00     0.138 A 
HETATM   15  N5  UNL     1     -11.255  -4.763 -44.187  1.00  0.00    -0.200 N 
HETATM   16  C8  UNL     1     -12.344  -5.216 -43.548  1.00  0.00     0.675 A 
ATOM     17  H5  UNL     1     -11.367  -4.044 -44.902  1.00  0.00     0.183 HD
HETATM   18  N7  UNL     1     -12.214  -6.162 -42.601  1.00  0.00    -0.194 N 
HETATM   19  C9  UNL     1     -11.009  -6.674 -42.274  1.00  0.00     0.051 A 
ATOM     20  H7  UNL     1     -13.047  -6.501 -42.118  1.00  0.00     0.184 HD
HETATM   21  C10 UNL     1     -10.854  -7.721 -41.228  1.00  0.00     0.071 C 
BRANCH  16  22
HETATM   22  N6  UNL     1     -13.484  -4.715 -43.873  1.00  0.00    -0.234 N 
ATOM     23  H62 UNL     1     -13.574  -3.811 -44.335  1.00  0.00     0.174 HD
ATOM     24  H61 UNL     1     -14.322  -5.255 -43.656  1.00  0.00     0.174 HD
ENDBRANCH  16  22
ENDBRANCH  11  13
ENDBRANCH  10  11
ENDBRANCH   6  10
ENDBRANCH   5   6
ENDBRANCH   1   5
TORSDOF 8
ENDMDL
MODEL 2
REMARK VINA RESULT: -5.960055347      1.339      2.261
REMARK  8 active torsions:
REMARK  status: ('A' for Active; 'I' for Inactive)
REMARK    1  A    between atoms: O1_2  and  C2_3 
REMARK    2  A    between atoms: C2_3  and  C3_4 
REMARK    3  A    between atoms: C3_4  and  C4_5 
REMARK    4  A    between atoms: C3_4  and  N3_10 
REMARK    5  A    between atoms: C4_5  and  N1_6 
REMARK    6  A    between atoms: N3_10  and  N4_11 
REMARK    7  A    between atoms: N4_11  and  C6_13 
REMARK    8  A    between atoms: C8_17  and  N6_18 
ROOT
HETATM    1  N1  UNL     1      -5.307  -7.149 -41.590  1.00  0.00    -0.327 N 
ATOM      2  H1  UNL     1      -4.900  -7.596 -42.412  1.00  0.00     0.171 HD
HETATM    3  C5  UNL     1      -4.541  -6.210 -40.847  1.00  0.00     0.177 C 
HETATM    4  N2  UNL     1      -3.905  -5.463 -40.248  1.00  0.00    -0.172 NA
ENDROOT
BRANCH   1   5
HETATM    5  C4  UNL     1      -6.660  -7.479 -41.191  1.00  0.00     0.156 C 
BRANCH   5   6
HETATM    6  C3  UNL     1      -7.208  -8.635 -41.980  1.00  0.00     0.141 C 
BRANCH   6   7
HETATM    7  C2  UNL     1      -6.375  -8.863 -43.187  1.00  0.00     0.191 C 
BRANCH   7   8
HETATM    8  O1  UNL     1      -6.876  -8.221 -44.291  1.00  0.00    -0.394 OA
HETATM    9  C1  UNL     1      -5.937  -7.722 -45.164  1.00  0.00     0.201 C 
ENDBRANCH   7   8
ENDBRANCH   6   7
BRANCH   6  10
HETATM   10  N3  UNL     1      -8.560  -8.275 -42.360  1.00  0.00    -0.132 NA
BRANCH  10  11
HETATM   11  N4  UNL     1      -8.777  -6.926 -42.420  1.00  0.00    -0.300 N 
ATOM     12  H4  UNL     1      -8.015  -6.302 -42.155  1.00  0.00     0.182 HD
BRANCH  11  13
HETATM   13  C6  UNL     1     -10.013  -6.345 -42.834  1.00  0.00     0.083 A 
HETATM   14  C7  UNL     1     -11.135  -6.652 -42.085  1.00  0.00     0.138 A 
HETATM   15  N5  UNL     1     -12.303  -6.104 -42.472  1.00  0.00    -0.200 N 
HETATM   16  C8  UNL     1     -12.398  -5.292 -43.536  1.00  0.00     0.675 A 
ATOM     17  H5  UNL     1     -13.146  -6.315 -41.938  1.00  0.00     0.183 HD
HETATM   18  N7  UNL     1     -11.297  -5.005 -44.254  1.00  0.00    -0.194 N 
HETATM   19  C9  UNL     1     -10.090  -5.513 -43.930  1.00  0.00     0.051 A 
ATOM     20  H7  UNL     1     -11.377  -4.387 -45.063  1.00  0.00     0.184 HD
HETATM   21  C10 UNL     1      -8.865  -5.201 -44.717  1.00  0.00     0.071 C 
BRANCH  16  22
HETATM   22  N6  UNL     1     -13.557  -4.817 -43.829  1.00  0.00    -0.234 N 
ATOM     23  H62 UNL     1     -13.873  -4.696 -44.791  1.00  0.00     0.174 HD
ATOM     24  H61 UNL     1     -14.174  -4.556 -43.060  1.00  0.00     0.174 HD
ENDBRANCH  16  22
ENDBRANCH  11  13
ENDBRANCH  10  11
ENDBRANCH   6  10
ENDBRANCH   5   6
ENDBRANCH   1   5
TORSDOF 8
ENDMDL
MODEL 3
REMARK VINA RESULT: -5.951227776      1.096      1.254
REMARK  8 active torsions:
REMARK  status: ('A' for Active; 'I' for Inactive)
REMARK    1  A    between atoms: O1_2  and  C2_3 
REMARK    2  A    between atoms: C2_3  and  C3_4 
REMARK    3  A    between atoms: C3_4  and  C4_5 
REMARK    4  A    between atoms: C3_4  and  N3_10 
REMARK    5  A    between atoms: C4_5  and  N1_6 
REMARK    6  A    between atoms: N3_10  and  N4_11 
REMARK    7  A    between atoms: N4_11  and  C6_13 
REMARK    8  A    between atoms: C8_17  and  N6_18 
ROOT
HETATM    1  N1  UNL     1      -5.366  -7.205 -41.549  1.00  0.00    -0.327 N 
ATOM      2  H1  UNL     1      -4.776  -7.431 -42.350  1.00  0.00     0.171 HD
HETATM    3  C5  UNL     1      -4.971  -6.173 -40.654  1.00  0.00     0.177 C 
HETATM    4  N2  UNL     1      -4.634  -5.347 -39.929  1.00  0.00    -0.172 NA
ENDROOT
BRANCH   1   5
HETATM    5  C4  UNL     1      -6.596  -7.939 -41.336  1.00  0.00     0.156 C 
BRANCH   5   6
HETATM    6  C3  UNL     1      -7.027  -8.677 -42.573  1.00  0.00     0.141 C 
BRANCH   6   7
HETATM    7  C2  UNL     1      -6.260  -8.188 -43.745  1.00  0.00     0.191 C 
BRANCH   7   8
HETATM    8  O1  UNL     1      -6.952  -7.244 -44.460  1.00  0.00    -0.394 OA
HETATM    9  C1  UNL     1      -6.216  -6.160 -44.880  1.00  0.00     0.201 C 
ENDBRANCH   7   8
ENDBRANCH   6   7
BRANCH   6  10
HETATM   10  N3  UNL     1      -8.441  -8.407 -42.745  1.00  0.00    -0.132 NA
BRANCH  10  11
HETATM   11  N4  UNL     1      -8.826  -7.169 -42.309  1.00  0.00    -0.300 N 
ATOM     12  H4  UNL     1      -8.193  -6.656 -41.695  1.00  0.00     0.182 HD
BRANCH  11  13
HETATM   13  C6  UNL     1     -10.063  -6.556 -42.667  1.00  0.00     0.083 A 
HETATM   14  C7  UNL     1     -10.068  -5.764 -43.801  1.00  0.00     0.138 A 
HETATM   15  N5  UNL     1     -11.235  -5.184 -44.143  1.00  0.00    -0.200 N 
HETATM   16  C8  UNL     1     -12.358  -5.354 -43.428  1.00  0.00     0.675 A 
ATOM     17  H5  UNL     1     -11.266  -4.594 -44.974  1.00  0.00     0.183 HD
HETATM   18  N7  UNL     1     -12.335  -6.127 -42.327  1.00  0.00    -0.194 N 
HETATM   19  C9  UNL     1     -11.206  -6.743 -41.920  1.00  0.00     0.051 A 
ATOM     20  H7  UNL     1     -13.193  -6.251 -41.788  1.00  0.00     0.184 HD
HETATM   21  C10 UNL     1     -11.169  -7.600 -40.704  1.00  0.00     0.071 C 
BRANCH  16  22
HETATM   22  N6  UNL     1     -13.425  -4.759 -43.833  1.00  0.00    -0.234 N 
ATOM     23  H62 UNL     1     -13.670  -4.684 -44.820  1.00  0.00     0.174 HD
ATOM     24  H61 UNL     1     -14.040  -4.351 -43.129  1.00  0.00     0.174 HD
ENDBRANCH  16  22
ENDBRANCH  11  13
ENDBRANCH  10  11
ENDBRANCH   6  10
ENDBRANCH   5   6
ENDBRANCH   1   5
TORSDOF 8
ENDMDL
MODEL 4
REMARK VINA RESULT: -5.901532690      1.958      2.479
REMARK  8 active torsions:
REMARK  status: ('A' for Active; 'I' for Inactive)
REMARK    1  A    between atoms: O1_2  and  C2_3 
REMARK    2  A    between atoms: C2_3  and  C3_4 
REMARK    3  A    between atoms: C3_4  and  C4_5 
REMARK    4  A    between atoms: C3_4  and  N3_10 
REMARK    5  A    between atoms: C4_5  and  N1_6 
REMARK    6  A    between atoms: N3_10  and  N4_11 
REMARK    7  A    between atoms: N4_11  and  C6_13 
REMARK    8  A    between atoms: C8_17  and  N6_18 
ROOT
HETATM    1  N1  UNL     1      -4.911  -6.214 -41.220  1.00  0.00    -0.327 N 
ATOM      2  H1  UNL     1      -4.995  -6.122 -42.233  1.00  0.00     0.171 HD
HETATM    3  C5  UNL     1      -3.624  -6.186 -40.616  1.00  0.00     0.177 C 
HETATM    4  N2  UNL     1      -2.577  -6.176 -40.141  1.00  0.00    -0.172 NA
ENDROOT
BRANCH   1   5
HETATM    5  C4  UNL     1      -6.103  -6.371 -40.414  1.00  0.00     0.156 C 
BRANCH   5   6
HETATM    6  C3  UNL     1      -7.119  -7.253 -41.085  1.00  0.00     0.141 C 
BRANCH   6   7
HETATM    7  C2  UNL     1      -6.456  -8.466 -41.624  1.00  0.00     0.191 C 
BRANCH   7   8
HETATM    8  O1  UNL     1      -5.761  -9.149 -40.659  1.00  0.00    -0.394 OA
HETATM    9  C1  UNL     1      -4.709  -9.911 -41.113  1.00  0.00     0.201 C 
ENDBRANCH   7   8
ENDBRANCH   6   7
BRANCH   6  10
HETATM   10  N3  UNL     1      -7.699  -6.473 -42.160  1.00  0.00    -0.132 NA
BRANCH  10  11
HETATM   11  N4  UNL     1      -8.727  -7.103 -42.807  1.00  0.00    -0.300 N 
ATOM     12  H4  UNL     1      -8.570  -8.047 -43.158  1.00  0.00     0.182 HD
BRANCH  11  13
HETATM   13  C6  UNL     1     -10.007  -6.508 -43.018  1.00  0.00     0.083 A 
HETATM   14  C7  UNL     1     -10.098  -5.546 -44.008  1.00  0.00     0.138 A 
HETATM   15  N5  UNL     1     -11.305  -4.983 -44.210  1.00  0.00    -0.200 N 
HETATM   16  C8  UNL     1     -12.387  -5.326 -43.494  1.00  0.00     0.675 A 
ATOM     17  H5  UNL     1     -11.400  -4.270 -44.934  1.00  0.00     0.183 HD
HETATM   18  N7  UNL     1     -12.280  -6.263 -42.535  1.00  0.00    -0.194 N 
HETATM   19  C9  UNL     1     -11.107  -6.874 -42.272  1.00  0.00     0.051 A 
ATOM     20  H7  UNL     1     -13.107  -6.517 -41.994  1.00  0.00     0.184 HD
HETATM   21  C10 UNL     1     -10.977  -7.912 -41.214  1.00  0.00     0.071 C 
BRANCH  16  22
HETATM   22  N6  UNL     1     -13.497  -4.732 -43.760  1.00  0.00    -0.234 N 
ATOM     23  H62 UNL     1     -14.390  -5.224 -43.782  1.00  0.00     0.174 HD
ATOM     24  H61 UNL     1     -13.469  -3.731 -43.954  1.00  0.00     0.174 HD
ENDBRANCH  16  22
ENDBRANCH  11  13
ENDBRANCH  10  11
ENDBRANCH   6  10
ENDBRANCH   5   6
ENDBRANCH   1   5
TORSDOF 8
ENDMDL
MODEL 5
REMARK VINA RESULT: -5.839017663      1.740      2.920
REMARK  8 active torsions:
REMARK  status: ('A' for Active; 'I' for Inactive)
REMARK    1  A    between atoms: O1_2  and  C2_3 
REMARK    2  A    between atoms: C2_3  and  C3_4 
REMARK    3  A    between atoms: C3_4  and  C4_5 
REMARK    4  A    between atoms: C3_4  and  N3_10 
REMARK    5  A    between atoms: C4_5  and  N1_6 
REMARK    6  A    between atoms: N3_10  and  N4_11 
REMARK    7  A    between atoms: N4_11  and  C6_13 
REMARK    8  A    between atoms: C8_17  and  N6_18 
ROOT
HETATM    1  N1  UNL     1      -4.751  -6.372 -41.867  1.00  0.00    -0.327 N 
ATOM      2  H1  UNL     1      -4.288  -6.828 -42.653  1.00  0.00     0.171 HD
HETATM    3  C5  UNL     1      -3.977  -5.903 -40.770  1.00  0.00     0.177 C 
HETATM    4  N2  UNL     1      -3.341  -5.542 -39.883  1.00  0.00    -0.172 NA
ENDROOT
BRANCH   1   5
HETATM    5  C4  UNL     1      -6.190  -6.206 -41.881  1.00  0.00     0.156 C 
BRANCH   5   6
HETATM    6  C3  UNL     1      -6.870  -7.168 -40.946  1.00  0.00     0.141 C 
BRANCH   6   7
HETATM    7  C2  UNL     1      -6.629  -8.562 -41.393  1.00  0.00     0.191 C 
BRANCH   7   8
HETATM    8  O1  UNL     1      -5.623  -9.167 -40.685  1.00  0.00    -0.394 OA
HETATM    9  C1  UNL     1      -4.809 -10.007 -41.410  1.00  0.00     0.201 C 
ENDBRANCH   7   8
ENDBRANCH   6   7
BRANCH   6  10
HETATM   10  N3  UNL     1      -8.286  -6.859 -40.993  1.00  0.00    -0.132 NA
BRANCH  10  11
HETATM   11  N4  UNL     1      -8.878  -7.157 -42.189  1.00  0.00    -0.300 N 
ATOM     12  H4  UNL     1      -8.447  -7.870 -42.777  1.00  0.00     0.182 HD
BRANCH  11  13
HETATM   13  C6  UNL     1     -10.066  -6.523 -42.660  1.00  0.00     0.083 A 
HETATM   14  C7  UNL     1     -11.215  -6.703 -41.910  1.00  0.00     0.138 A 
HETATM   15  N5  UNL     1     -12.338  -6.105 -42.351  1.00  0.00    -0.200 N 
HETATM   16  C8  UNL     1     -12.366  -5.363 -43.467  1.00  0.00     0.675 A 
ATOM     17  H5  UNL     1     -13.200  -6.222 -41.816  1.00  0.00     0.183 HD
HETATM   18  N7  UNL     1     -11.241  -5.199 -44.186  1.00  0.00    -0.194 N 
HETATM   19  C9  UNL     1     -10.075  -5.764 -43.811  1.00  0.00     0.051 A 
ATOM     20  H7  UNL     1     -11.270  -4.634 -45.035  1.00  0.00     0.184 HD
HETATM   21  C10 UNL     1      -8.824  -5.590 -44.597  1.00  0.00     0.071 C 
BRANCH  16  22
HETATM   22  N6  UNL     1     -13.488  -4.831 -43.809  1.00  0.00    -0.234 N 
ATOM     23  H62 UNL     1     -13.655  -3.827 -43.763  1.00  0.00     0.174 HD
ATOM     24  H61 UNL     1     -14.229  -5.451 -44.138  1.00  0.00     0.174 HD
ENDBRANCH  16  22
ENDBRANCH  11  13
ENDBRANCH  10  11
ENDBRANCH   6  10
ENDBRANCH   5   6
ENDBRANCH   1   5
TORSDOF 8
ENDMDL
