MODEL 1
REMARK VINA RESULT: -7.512818519      0.000      0.000
REMARK  10 active torsions:
REMARK  status: ('A' for Active; 'I' for Inactive)
REMARK    1  A    between atoms: N1_1  and  C1_4 
REMARK    2  A    between atoms: C2_9  and  C3_10 
REMARK    3  A    between atoms: C3_10  and  N4_11 
REMARK    4  A    between atoms: N4_11  and  C4_13 
REMARK    5  A    between atoms: N5_15  and  C6_16 
REMARK    6  A    between atoms: C6_16  and  C7_17 
REMARK    7  A    between atoms: C7_17  and  N6_18 
REMARK    8  A    between atoms: N6_18  and  C8_20 
REMARK    9  A    between atoms: C11_31  and  N11_32 
REMARK   10  A    between atoms: N11_32  and  C12_34 
ROOT
HETATM    1  C4  UNL     1      -9.148  25.292 -24.119  1.00  0.00     0.138 A 
HETATM    2  C5  UNL     1     -10.263  25.359 -24.932  1.00  0.00     0.161 A 
HETATM    3  N5  UNL     1     -11.259  25.977 -24.366  1.00  0.00    -0.281 N 
HETATM    4  N9  UNL     1     -10.800  26.331 -23.149  1.00  0.00    -0.239 N 
ATOM      5  H9  UNL     1     -11.348  26.840 -22.456  1.00  0.00     0.208 HD
HETATM    6  N10 UNL     1      -9.572  25.943 -22.968  1.00  0.00    -0.270 N 
ATOM      7  H10 UNL     1      -9.016  26.092 -22.126  1.00  0.00     0.190 HD
ENDROOT
BRANCH   1   8
HETATM    8  N4  UNL     1      -7.803  24.917 -24.333  1.00  0.00    -0.348 N 
ATOM      9  H4  UNL     1      -7.591  24.183 -25.008  1.00  0.00     0.167 HD
BRANCH   8  10
HETATM   10  C3  UNL     1      -6.748  25.533 -23.634  1.00  0.00     0.123 C 
BRANCH  10  11
HETATM   11  C2  UNL     1      -5.957  26.554 -24.360  1.00  0.00     0.094 A 
HETATM   12  N3  UNL     1      -4.685  26.383 -24.790  1.00  0.00    -0.295 N 
HETATM   13  N2  UNL     1      -4.192  27.570 -25.179  1.00  0.00    -0.283 N 
ATOM     14  H3  UNL     1      -4.182  25.496 -24.814  1.00  0.00     0.187 HD
HETATM   15  C1  UNL     1      -5.130  28.531 -25.001  1.00  0.00     0.143 A 
ATOM     16  H2  UNL     1      -3.254  27.725 -25.550  1.00  0.00     0.188 HD
HETATM   17  C11 UNL     1      -6.227  27.898 -24.500  1.00  0.00     0.108 A 
BRANCH  15  18
HETATM   18  N1  UNL     1      -5.022  29.796 -25.255  1.00  0.00    -0.383 N 
ATOM     19  H12 UNL     1      -4.156  30.336 -25.286  1.00  0.00     0.157 HD
ATOM     20  H11 UNL     1      -5.773  30.455 -25.460  1.00  0.00     0.157 HD
ENDBRANCH  15  18
BRANCH  17  21
HETATM   21  N11 UNL     1      -7.541  28.363 -24.290  1.00  0.00    -0.349 N 
ATOM     22  H11 UNL     1      -7.835  28.322 -23.315  1.00  0.00     0.166 HD
BRANCH  21  23
HETATM   23  C12 UNL     1      -8.518  28.866 -25.140  1.00  0.00     0.190 C 
HETATM   24  N12 UNL     1      -8.399  30.280 -25.526  1.00  0.00    -0.097 NA
ENDBRANCH  21  23
ENDBRANCH  17  21
ENDBRANCH  10  11
ENDBRANCH   8  10
ENDBRANCH   1   8
BRANCH   3  25
HETATM   25  C6  UNL     1     -12.635  26.175 -24.846  1.00  0.00     0.194 C 
BRANCH  25  26
HETATM   26  C7  UNL     1     -12.778  26.993 -26.057  1.00  0.00     0.085 C 
BRANCH  26  27
HETATM   27  N6  UNL     1     -12.082  26.742 -27.251  1.00  0.00    -0.341 N 
ATOM     28  H6  UNL     1     -11.493  27.493 -27.610  1.00  0.00     0.168 HD
BRANCH  27  29
HETATM   29  C8  UNL     1     -12.123  25.539 -28.005  1.00  0.00     0.174 C 
HETATM   30  N7  UNL     1     -12.576  24.388 -27.547  1.00  0.00    -0.361 N 
HETATM   31  C9  UNL     1     -12.483  23.353 -28.548  1.00  0.00     0.142 C 
ATOM     32  H7  UNL     1     -12.945  24.248 -26.607  1.00  0.00     0.162 HD
HETATM   33  C10 UNL     1     -11.603  23.935 -29.628  1.00  0.00     0.142 C 
HETATM   34  N8  UNL     1     -11.678  25.334 -29.335  1.00  0.00    -0.361 N 
ATOM     35  H8  UNL     1     -11.443  26.079 -29.991  1.00  0.00     0.162 HD
ENDBRANCH  27  29
ENDBRANCH  26  27
ENDBRANCH  25  26
ENDBRANCH   3  25
TORSDOF 10
ENDMDL
MODEL 2
REMARK VINA RESULT: -7.457418111      2.997      5.132
REMARK  10 active torsions:
REMARK  status: ('A' for Active; 'I' for Inactive)
REMARK    1  A    between atoms: N1_1  and  C1_4 
REMARK    2  A    between atoms: C2_9  and  C3_10 
REMARK    3  A    between atoms: C3_10  and  N4_11 
REMARK    4  A    between atoms: N4_11  and  C4_13 
REMARK    5  A    between atoms: N5_15  and  C6_16 
REMARK    6  A    between atoms: C6_16  and  C7_17 
REMARK    7  A    between atoms: C7_17  and  N6_18 
REMARK    8  A    between atoms: N6_18  and  C8_20 
REMARK    9  A    between atoms: C11_31  and  N11_32 
REMARK   10  A    between atoms: N11_32  and  C12_34 
ROOT
HETATM    1  C4  UNL     1      -9.778  25.510 -24.696  1.00  0.00     0.138 A 
HETATM    2  C5  UNL     1     -10.674  25.739 -23.671  1.00  0.00     0.161 A 
HETATM    3  N5  UNL     1     -11.913  25.710 -24.072  1.00  0.00    -0.281 N 
HETATM    4  N9  UNL     1     -11.841  25.457 -25.394  1.00  0.00    -0.239 N 
ATOM      5  H9  UNL     1     -12.653  25.369 -26.005  1.00  0.00     0.208 HD
HETATM    6  N10 UNL     1     -10.609  25.339 -25.794  1.00  0.00    -0.270 N 
ATOM      7  H10 UNL     1     -10.306  25.153 -26.750  1.00  0.00     0.190 HD
ENDROOT
BRANCH   1   8
HETATM    8  N4  UNL     1      -8.389  25.253 -24.742  1.00  0.00    -0.348 N 
ATOM      9  H4  UNL     1      -8.023  24.620 -25.453  1.00  0.00     0.167 HD
BRANCH   8  10
HETATM   10  C3  UNL     1      -7.499  25.850 -23.829  1.00  0.00     0.123 C 
BRANCH  10  11
HETATM   11  C2  UNL     1      -6.340  26.581 -24.391  1.00  0.00     0.094 A 
HETATM   12  N3  UNL     1      -5.046  26.222 -24.223  1.00  0.00    -0.295 N 
HETATM   13  N2  UNL     1      -4.256  27.224 -24.642  1.00  0.00    -0.283 N 
ATOM     14  H3  UNL     1      -4.723  25.334 -23.840  1.00  0.00     0.187 HD
HETATM   15  C1  UNL     1      -5.022  28.252 -25.081  1.00  0.00     0.143 A 
ATOM     16  H2  UNL     1      -3.236  27.213 -24.632  1.00  0.00     0.188 HD
HETATM   17  C11 UNL     1      -6.314  27.849 -24.932  1.00  0.00     0.108 A 
BRANCH  15  18
HETATM   18  N1  UNL     1      -4.621  29.389 -25.554  1.00  0.00    -0.383 N 
ATOM     19  H12 UNL     1      -4.814  29.760 -26.484  1.00  0.00     0.157 HD
ATOM     20  H11 UNL     1      -4.050  30.090 -25.082  1.00  0.00     0.157 HD
ENDBRANCH  15  18
BRANCH  17  21
HETATM   21  N11 UNL     1      -7.517  28.433 -25.379  1.00  0.00    -0.349 N 
ATOM     22  H11 UNL     1      -7.798  28.121 -26.308  1.00  0.00     0.166 HD
BRANCH  21  23
HETATM   23  C12 UNL     1      -8.397  29.345 -24.812  1.00  0.00     0.190 C 
HETATM   24  N12 UNL     1      -8.748  30.521 -25.624  1.00  0.00    -0.097 NA
ENDBRANCH  21  23
ENDBRANCH  17  21
ENDBRANCH  10  11
ENDBRANCH   8  10
ENDBRANCH   1   8
BRANCH   3  25
HETATM   25  C6  UNL     1     -13.147  25.996 -23.327  1.00  0.00     0.194 C 
BRANCH  25  26
HETATM   26  C7  UNL     1     -13.330  25.242 -22.080  1.00  0.00     0.085 C 
BRANCH  26  27
HETATM   27  N6  UNL     1     -14.056  25.725 -20.980  1.00  0.00    -0.341 N 
ATOM     28  H6  UNL     1     -15.067  25.807 -21.092  1.00  0.00     0.168 HD
BRANCH  27  29
HETATM   29  C8  UNL     1     -13.515  26.111 -19.725  1.00  0.00     0.174 C 
HETATM   30  N7  UNL     1     -12.372  26.750 -19.572  1.00  0.00    -0.361 N 
HETATM   31  C9  UNL     1     -12.091  26.997 -18.178  1.00  0.00     0.142 C 
ATOM     32  H7  UNL     1     -11.764  27.034 -20.340  1.00  0.00     0.162 HD
HETATM   33  C10 UNL     1     -13.077  26.137 -17.426  1.00  0.00     0.142 C 
HETATM   34  N8  UNL     1     -14.056  25.871 -18.436  1.00  0.00    -0.361 N 
ATOM     35  H8  UNL     1     -15.008  25.554 -18.256  1.00  0.00     0.162 HD
ENDBRANCH  27  29
ENDBRANCH  26  27
ENDBRANCH  25  26
ENDBRANCH   3  25
TORSDOF 10
ENDMDL
MODEL 3
REMARK VINA RESULT: -7.402778620      1.036      1.328
REMARK  10 active torsions:
REMARK  status: ('A' for Active; 'I' for Inactive)
REMARK    1  A    between atoms: N1_1  and  C1_4 
REMARK    2  A    between atoms: C2_9  and  C3_10 
REMARK    3  A    between atoms: C3_10  and  N4_11 
REMARK    4  A    between atoms: N4_11  and  C4_13 
REMARK    5  A    between atoms: N5_15  and  C6_16 
REMARK    6  A    between atoms: C6_16  and  C7_17 
REMARK    7  A    between atoms: C7_17  and  N6_18 
REMARK    8  A    between atoms: N6_18  and  C8_20 
REMARK    9  A    between atoms: C11_31  and  N11_32 
REMARK   10  A    between atoms: N11_32  and  C12_34 
ROOT
HETATM    1  C4  UNL     1      -9.760  25.534 -24.455  1.00  0.00     0.138 A 
HETATM    2  C5  UNL     1     -10.425  26.744 -24.484  1.00  0.00     0.161 A 
HETATM    3  N5  UNL     1     -11.683  26.633 -24.169  1.00  0.00    -0.281 N 
HETATM    4  N9  UNL     1     -11.863  25.320 -23.923  1.00  0.00    -0.239 N 
ATOM      5  H9  UNL     1     -12.752  24.906 -23.645  1.00  0.00     0.208 HD
HETATM    6  N10 UNL     1     -10.762  24.647 -24.085  1.00  0.00    -0.270 N 
ATOM      7  H10 UNL     1     -10.653  23.640 -23.962  1.00  0.00     0.190 HD
ENDROOT
BRANCH   1   8
HETATM    8  N4  UNL     1      -8.399  25.164 -24.522  1.00  0.00    -0.348 N 
ATOM      9  H4  UNL     1      -8.105  24.464 -25.203  1.00  0.00     0.167 HD
BRANCH   8  10
HETATM   10  C3  UNL     1      -7.437  25.739 -23.670  1.00  0.00     0.123 C 
BRANCH  10  11
HETATM   11  C2  UNL     1      -6.324  26.482 -24.306  1.00  0.00     0.094 A 
HETATM   12  N3  UNL     1      -5.021  26.119 -24.246  1.00  0.00    -0.295 N 
HETATM   13  N2  UNL     1      -4.265  27.130 -24.707  1.00  0.00    -0.283 N 
ATOM     14  H3  UNL     1      -4.670  25.225 -23.906  1.00  0.00     0.187 HD
HETATM   15  C1  UNL     1      -5.062  28.165 -25.067  1.00  0.00     0.143 A 
ATOM     16  H2  UNL     1      -3.248  27.119 -24.776  1.00  0.00     0.188 HD
HETATM   17  C11 UNL     1      -6.339  27.759 -24.825  1.00  0.00     0.108 A 
BRANCH  15  18
HETATM   18  N1  UNL     1      -4.698  29.311 -25.547  1.00  0.00    -0.383 N 
ATOM     19  H12 UNL     1      -4.096  29.464 -26.357  1.00  0.00     0.157 HD
ATOM     20  H11 UNL     1      -4.945  30.237 -25.199  1.00  0.00     0.157 HD
ENDBRANCH  15  18
BRANCH  17  21
HETATM   21  N11 UNL     1      -7.572  28.350 -25.166  1.00  0.00    -0.349 N 
ATOM     22  H11 UNL     1      -8.090  27.829 -25.873  1.00  0.00     0.166 HD
BRANCH  21  23
HETATM   23  C12 UNL     1      -8.226  29.498 -24.737  1.00  0.00     0.190 C 
HETATM   24  N12 UNL     1      -8.690  30.427 -25.778  1.00  0.00    -0.097 NA
ENDBRANCH  21  23
ENDBRANCH  17  21
ENDBRANCH  10  11
ENDBRANCH   8  10
ENDBRANCH   1   8
BRANCH   3  25
HETATM   25  C6  UNL     1     -12.745  27.650 -24.173  1.00  0.00     0.194 C 
BRANCH  25  26
HETATM   26  C7  UNL     1     -13.345  27.943 -25.481  1.00  0.00     0.085 C 
BRANCH  26  27
HETATM   27  N6  UNL     1     -12.673  27.765 -26.701  1.00  0.00    -0.341 N 
ATOM     28  H6  UNL     1     -12.243  28.590 -27.117  1.00  0.00     0.168 HD
BRANCH  27  29
HETATM   29  C8  UNL     1     -12.538  26.541 -27.409  1.00  0.00     0.174 C 
HETATM   30  N7  UNL     1     -11.828  26.392 -28.510  1.00  0.00    -0.361 N 
HETATM   31  C9  UNL     1     -11.890  25.034 -28.994  1.00  0.00     0.142 C 
ATOM     32  H7  UNL     1     -11.303  27.141 -28.962  1.00  0.00     0.162 HD
HETATM   33  C10 UNL     1     -13.009  24.393 -28.211  1.00  0.00     0.142 C 
HETATM   34  N8  UNL     1     -13.136  25.292 -27.104  1.00  0.00    -0.361 N 
ATOM     35  H8  UNL     1     -13.593  25.067 -26.220  1.00  0.00     0.162 HD
ENDBRANCH  27  29
ENDBRANCH  26  27
ENDBRANCH  25  26
ENDBRANCH   3  25
TORSDOF 10
ENDMDL
MODEL 4
REMARK VINA RESULT: -7.346454001      3.008      4.522
REMARK  10 active torsions:
REMARK  status: ('A' for Active; 'I' for Inactive)
REMARK    1  A    between atoms: N1_1  and  C1_4 
REMARK    2  A    between atoms: C2_9  and  C3_10 
REMARK    3  A    between atoms: C3_10  and  N4_11 
REMARK    4  A    between atoms: N4_11  and  C4_13 
REMARK    5  A    between atoms: N5_15  and  C6_16 
REMARK    6  A    between atoms: C6_16  and  C7_17 
REMARK    7  A    between atoms: C7_17  and  N6_18 
REMARK    8  A    between atoms: N6_18  and  C8_20 
REMARK    9  A    between atoms: C11_31  and  N11_32 
REMARK   10  A    between atoms: N11_32  and  C12_34 
ROOT
HETATM    1  C4  UNL     1      -9.772  25.534 -24.744  1.00  0.00     0.138 A 
HETATM    2  C5  UNL     1     -10.697  25.858 -23.771  1.00  0.00     0.161 A 
HETATM    3  N5  UNL     1     -11.919  25.854 -24.220  1.00  0.00    -0.281 N 
HETATM    4  N9  UNL     1     -11.808  25.520 -25.521  1.00  0.00    -0.239 N 
ATOM      5  H9  UNL     1     -12.599  25.427 -26.158  1.00  0.00     0.208 HD
HETATM    6  N10 UNL     1     -10.568  25.330 -25.864  1.00  0.00    -0.270 N 
ATOM      7  H10 UNL     1     -10.236  25.076 -26.794  1.00  0.00     0.190 HD
ENDROOT
BRANCH   1   8
HETATM    8  N4  UNL     1      -8.394  25.221 -24.719  1.00  0.00    -0.348 N 
ATOM      9  H4  UNL     1      -8.029  24.530 -25.374  1.00  0.00     0.167 HD
BRANCH   8  10
HETATM   10  C3  UNL     1      -7.515  25.841 -23.811  1.00  0.00     0.123 C 
BRANCH  10  11
HETATM   11  C2  UNL     1      -6.353  26.565 -24.378  1.00  0.00     0.094 A 
HETATM   12  N3  UNL     1      -5.061  26.197 -24.214  1.00  0.00    -0.295 N 
HETATM   13  N2  UNL     1      -4.266  27.194 -24.638  1.00  0.00    -0.283 N 
ATOM     14  H3  UNL     1      -4.742  25.308 -23.831  1.00  0.00     0.187 HD
HETATM   15  C1  UNL     1      -5.028  28.226 -25.076  1.00  0.00     0.143 A 
ATOM     16  H2  UNL     1      -3.247  27.177 -24.631  1.00  0.00     0.188 HD
HETATM   17  C11 UNL     1      -6.322  27.831 -24.921  1.00  0.00     0.108 A 
BRANCH  15  18
HETATM   18  N1  UNL     1      -4.622  29.360 -25.552  1.00  0.00    -0.383 N 
ATOM     19  H12 UNL     1      -4.205  30.125 -25.021  1.00  0.00     0.157 HD
ATOM     20  H11 UNL     1      -4.654  29.674 -26.522  1.00  0.00     0.157 HD
ENDBRANCH  15  18
BRANCH  17  21
HETATM   21  N11 UNL     1      -7.523  28.421 -25.365  1.00  0.00    -0.349 N 
ATOM     22  H11 UNL     1      -7.814  28.103 -26.289  1.00  0.00     0.166 HD
BRANCH  21  23
HETATM   23  C12 UNL     1      -8.390  29.348 -24.801  1.00  0.00     0.190 C 
HETATM   24  N12 UNL     1      -8.742  30.515 -25.625  1.00  0.00    -0.097 NA
ENDBRANCH  21  23
ENDBRANCH  17  21
ENDBRANCH  10  11
ENDBRANCH   8  10
ENDBRANCH   1   8
BRANCH   3  25
HETATM   25  C6  UNL     1     -13.169  26.231 -23.543  1.00  0.00     0.194 C 
BRANCH  25  26
HETATM   26  C7  UNL     1     -13.281  25.825 -22.136  1.00  0.00     0.085 C 
BRANCH  26  27
HETATM   27  N6  UNL     1     -13.836  24.604 -21.722  1.00  0.00    -0.341 N 
ATOM     28  H6  UNL     1     -13.228  23.786 -21.753  1.00  0.00     0.168 HD
BRANCH  27  29
HETATM   29  C8  UNL     1     -15.165  24.402 -21.265  1.00  0.00     0.174 C 
HETATM   30  N7  UNL     1     -16.239  24.520 -22.021  1.00  0.00    -0.361 N 
HETATM   31  C9  UNL     1     -17.442  24.258 -21.268  1.00  0.00     0.142 C 
ATOM     32  H7  UNL     1     -16.221  24.765 -23.011  1.00  0.00     0.162 HD
HETATM   33  C10 UNL     1     -17.004  24.260 -19.824  1.00  0.00     0.142 C 
HETATM   34  N8  UNL     1     -15.590  24.076 -19.953  1.00  0.00    -0.361 N 
ATOM     35  H8  UNL     1     -14.975  23.754 -19.205  1.00  0.00     0.162 HD
ENDBRANCH  27  29
ENDBRANCH  26  27
ENDBRANCH  25  26
ENDBRANCH   3  25
TORSDOF 10
ENDMDL
MODEL 5
REMARK VINA RESULT: -7.340228624      2.148      3.309
REMARK  10 active torsions:
REMARK  status: ('A' for Active; 'I' for Inactive)
REMARK    1  A    between atoms: N1_1  and  C1_4 
REMARK    2  A    between atoms: C2_9  and  C3_10 
REMARK    3  A    between atoms: C3_10  and  N4_11 
REMARK    4  A    between atoms: N4_11  and  C4_13 
REMARK    5  A    between atoms: N5_15  and  C6_16 
REMARK    6  A    between atoms: C6_16  and  C7_17 
REMARK    7  A    between atoms: C7_17  and  N6_18 
REMARK    8  A    between atoms: N6_18  and  C8_20 
REMARK    9  A    between atoms: C11_31  and  N11_32 
REMARK   10  A    between atoms: N11_32  and  C12_34 
ROOT
HETATM    1  C4  UNL     1      -9.674  25.600 -24.358  1.00  0.00     0.138 A 
HETATM    2  C5  UNL     1     -10.791  25.623 -25.170  1.00  0.00     0.161 A 
HETATM    3  N5  UNL     1     -11.758  26.338 -24.673  1.00  0.00    -0.281 N 
HETATM    4  N9  UNL     1     -11.278  26.802 -23.502  1.00  0.00    -0.239 N 
ATOM      5  H9  UNL     1     -11.800  27.405 -22.867  1.00  0.00     0.208 HD
HETATM    6  N10 UNL     1     -10.064  26.387 -23.283  1.00  0.00    -0.270 N 
ATOM      7  H10 UNL     1      -9.498  26.603 -22.463  1.00  0.00     0.190 HD
ENDROOT
BRANCH   1   8
HETATM    8  N4  UNL     1      -8.346  25.149 -24.532  1.00  0.00    -0.348 N 
ATOM      9  H4  UNL     1      -8.139  24.484 -25.277  1.00  0.00     0.167 HD
BRANCH   8  10
HETATM   10  C3  UNL     1      -7.303  25.596 -23.700  1.00  0.00     0.123 C 
BRANCH  10  11
HETATM   11  C2  UNL     1      -6.243  26.421 -24.325  1.00  0.00     0.094 A 
HETATM   12  N3  UNL     1      -4.918  26.153 -24.261  1.00  0.00    -0.295 N 
HETATM   13  N2  UNL     1      -4.234  27.219 -24.711  1.00  0.00    -0.283 N 
ATOM     14  H3  UNL     1      -4.505  25.283 -23.925  1.00  0.00     0.187 HD
HETATM   15  C1  UNL     1      -5.101  28.197 -25.066  1.00  0.00     0.143 A 
ATOM     16  H2  UNL     1      -3.218  27.281 -24.774  1.00  0.00     0.188 HD
HETATM   17  C11 UNL     1      -6.347  27.699 -24.834  1.00  0.00     0.108 A 
BRANCH  15  18
HETATM   18  N1  UNL     1      -4.818  29.369 -25.537  1.00  0.00    -0.383 N 
ATOM     19  H12 UNL     1      -5.104  29.744 -26.442  1.00  0.00     0.157 HD
ATOM     20  H11 UNL     1      -4.267  30.101 -25.089  1.00  0.00     0.157 HD
ENDBRANCH  15  18
BRANCH  17  21
HETATM   21  N11 UNL     1      -7.618  28.202 -25.177  1.00  0.00    -0.349 N 
ATOM     22  H11 UNL     1      -8.107  27.634 -25.868  1.00  0.00     0.166 HD
BRANCH  21  23
HETATM   23  C12 UNL     1      -8.340  29.315 -24.767  1.00  0.00     0.190 C 
HETATM   24  N12 UNL     1      -9.805  29.232 -24.873  1.00  0.00    -0.097 NA
ENDBRANCH  21  23
ENDBRANCH  17  21
ENDBRANCH  10  11
ENDBRANCH   8  10
ENDBRANCH   1   8
BRANCH   3  25
HETATM   25  C6  UNL     1     -13.128  26.538 -25.169  1.00  0.00     0.194 C 
BRANCH  25  26
HETATM   26  C7  UNL     1     -13.420  27.868 -25.719  1.00  0.00     0.085 C 
BRANCH  26  27
HETATM   27  N6  UNL     1     -12.537  28.577 -26.549  1.00  0.00    -0.341 N 
ATOM     28  H6  UNL     1     -11.737  28.064 -26.920  1.00  0.00     0.168 HD
BRANCH  27  29
HETATM   29  C8  UNL     1     -12.654  29.943 -26.920  1.00  0.00     0.174 C 
HETATM   30  N7  UNL     1     -13.304  30.373 -27.984  1.00  0.00    -0.361 N 
HETATM   31  C9  UNL     1     -13.239  31.811 -28.092  1.00  0.00     0.142 C 
ATOM     32  H7  UNL     1     -13.790  29.767 -28.645  1.00  0.00     0.162 HD
HETATM   33  C10 UNL     1     -12.176  32.226 -27.105  1.00  0.00     0.142 C 
HETATM   34  N8  UNL     1     -12.095  31.069 -26.266  1.00  0.00    -0.361 N 
ATOM     35  H8  UNL     1     -11.692  31.057 -25.329  1.00  0.00     0.162 HD
ENDBRANCH  27  29
ENDBRANCH  26  27
ENDBRANCH  25  26
ENDBRANCH   3  25
TORSDOF 10
ENDMDL
