MODEL 1
REMARK VINA RESULT: -7.134130489      0.000      0.000
REMARK  8 active torsions:
REMARK  status: ('A' for Active; 'I' for Inactive)
REMARK    1  A    between atoms: C2_2  and  N1_4 
REMARK       I    between atoms: N1_4  and  C4_6 
REMARK       I    between atoms: C4_6  and  N2_8 
REMARK    2  A    between atoms: N2_8  and  C6_10 
REMARK    3  A    between atoms: C6_10  and  C8_12 
REMARK       I    between atoms: C8_12  and  N3_14 
REMARK    4  A    between atoms: N3_14  and  C9_16 
REMARK    5  A    between atoms: C9_16  and  N4_17 
REMARK    6  A    between atoms: C9_16  and  C10_21 
REMARK    7  A    between atoms: C15_26  and  O3_27 
REMARK    8  A    between atoms: O3_27  and  C16_28 
ROOT
HETATM    1  C9  UNL     1      17.660   3.552  15.888  1.00  0.00     0.290 C 
ENDROOT
BRANCH   1   2
HETATM    2  N3  UNL     1      17.467   3.646  14.434  1.00  0.00    -0.331 N 
HETATM    3  C8  UNL     1      17.020   2.558  13.650  1.00  0.00     0.241 C 
HETATM    4  O2  UNL     1      16.781   1.473  14.227  1.00  0.00    -0.271 OA
ATOM      5  H3  UNL     1      17.664   4.533  13.971  1.00  0.00     0.164 HD
BRANCH   3   6
HETATM    6  C6  UNL     1      16.841   2.694  12.200  1.00  0.00     0.176 C 
HETATM    7  C7  UNL     1      16.755   1.343  11.498  1.00  0.00     0.042 C 
BRANCH   6   8
HETATM    8  N2  UNL     1      17.886   3.439  11.556  1.00  0.00    -0.325 N 
HETATM    9  C4  UNL     1      17.608   4.638  10.877  1.00  0.00     0.319 C 
HETATM   10  N1  UNL     1      18.658   5.345  10.235  1.00  0.00    -0.339 N 
HETATM   11  O1  UNL     1      16.419   5.061  10.854  1.00  0.00    -0.247 OA
ATOM     12  H1  UNL     1      19.612   4.987  10.265  1.00  0.00     0.164 HD
HETATM   13  C5  UNL     1      19.239   2.949  11.598  1.00  0.00     0.155 C 
BRANCH  10  14
HETATM   14  C2  UNL     1      18.366   6.564   9.547  1.00  0.00     0.078 C 
HETATM   15  C1  UNL     1      18.755   7.725  10.428  1.00  0.00     0.032 C 
HETATM   16  C3  UNL     1      19.206   6.602   8.287  1.00  0.00     0.032 C 
ENDBRANCH  10  14
ENDBRANCH   6   8
ENDBRANCH   3   6
ENDBRANCH   1   2
BRANCH   1  17
HETATM   17  N4  UNL     1      18.856   4.310  16.154  1.00  0.00    -0.058 N 
ATOM     18  H43 UNL     1      19.632   3.748  16.505  1.00  0.00     0.276 HD
ATOM     19  H42 UNL     1      19.327   4.649  15.315  1.00  0.00     0.276 HD
ATOM     20  H41 UNL     1      18.563   5.051  16.791  1.00  0.00     0.276 HD
ENDBRANCH   1  17
BRANCH   1  21
HETATM   21  C10 UNL     1      16.459   4.012  16.624  1.00  0.00     0.065 C 
HETATM   22  C11 UNL     1      15.799   2.904  17.427  1.00  0.00     0.011 C 
HETATM   23  C12 UNL     1      14.503   2.423  16.803  1.00  0.00     0.001 C 
HETATM   24  C13 UNL     1      13.464   3.523  16.782  1.00  0.00     0.002 C 
HETATM   25  C14 UNL     1      14.208   4.836  16.857  1.00  0.00     0.032 C 
HETATM   26  C15 UNL     1      15.426   4.768  15.885  1.00  0.00     0.133 C 
BRANCH  26  27
HETATM   27  O3  UNL     1      15.770   6.032  15.501  1.00  0.00    -0.346 OA
BRANCH  27  28
HETATM   28  C16 UNL     1      15.516   6.407  14.221  1.00  0.00     0.197 C 
HETATM   29  C17 UNL     1      16.611   7.077  13.463  1.00  0.00     0.084 C 
HETATM   30  C18 UNL     1      14.315   7.368  14.137  1.00  0.00     0.084 C 
HETATM   31  F1  UNL     1      15.102   5.323  13.423  1.00  0.00    -0.213 F 
ENDBRANCH  27  28
ENDBRANCH  26  27
ENDBRANCH   1  21
TORSDOF 8
ENDMDL
MODEL 2
REMARK VINA RESULT: -6.728492683      2.753      6.513
REMARK  8 active torsions:
REMARK  status: ('A' for Active; 'I' for Inactive)
REMARK    1  A    between atoms: C2_2  and  N1_4 
REMARK       I    between atoms: N1_4  and  C4_6 
REMARK       I    between atoms: C4_6  and  N2_8 
REMARK    2  A    between atoms: N2_8  and  C6_10 
REMARK    3  A    between atoms: C6_10  and  C8_12 
REMARK       I    between atoms: C8_12  and  N3_14 
REMARK    4  A    between atoms: N3_14  and  C9_16 
REMARK    5  A    between atoms: C9_16  and  N4_17 
REMARK    6  A    between atoms: C9_16  and  C10_21 
REMARK    7  A    between atoms: C15_26  and  O3_27 
REMARK    8  A    between atoms: O3_27  and  C16_28 
ROOT
HETATM    1  C9  UNL     1      19.388   6.344   9.616  1.00  0.00     0.290 C 
ENDROOT
BRANCH   1   2
HETATM    2  N3  UNL     1      18.885   5.464  10.680  1.00  0.00    -0.331 N 
HETATM    3  C8  UNL     1      19.077   4.063  10.669  1.00  0.00     0.241 C 
HETATM    4  O2  UNL     1      19.702   3.561   9.709  1.00  0.00    -0.271 OA
ATOM      5  H3  UNL     1      18.376   5.881  11.459  1.00  0.00     0.164 HD
BRANCH   3   6
HETATM    6  C6  UNL     1      18.558   3.221  11.752  1.00  0.00     0.176 C 
HETATM    7  C7  UNL     1      18.451   1.755  11.345  1.00  0.00     0.042 C 
BRANCH   6   8
HETATM    8  N2  UNL     1      17.263   3.622  12.227  1.00  0.00    -0.325 N 
HETATM    9  C4  UNL     1      17.111   4.245  13.478  1.00  0.00     0.319 C 
HETATM   10  N1  UNL     1      15.818   4.617  13.929  1.00  0.00    -0.339 N 
HETATM   11  O1  UNL     1      18.140   4.461  14.178  1.00  0.00    -0.247 OA
ATOM     12  H1  UNL     1      14.999   4.434  13.350  1.00  0.00     0.164 HD
HETATM   13  C5  UNL     1      16.100   3.377  11.414  1.00  0.00     0.155 C 
BRANCH  10  14
HETATM   14  C2  UNL     1      15.673   5.249  15.203  1.00  0.00     0.078 C 
HETATM   15  C1  UNL     1      14.975   6.573  15.011  1.00  0.00     0.032 C 
HETATM   16  C3  UNL     1      14.807   4.360  16.072  1.00  0.00     0.032 C 
ENDBRANCH  10  14
ENDBRANCH   6   8
ENDBRANCH   3   6
ENDBRANCH   1   2
BRANCH   1  17
HETATM   17  N4  UNL     1      18.291   7.230   9.316  1.00  0.00    -0.058 N 
ATOM     18  H43 UNL     1      17.399   6.753   9.182  1.00  0.00     0.276 HD
ATOM     19  H42 UNL     1      17.999   7.807  10.104  1.00  0.00     0.276 HD
ATOM     20  H41 UNL     1      18.599   7.764   8.503  1.00  0.00     0.276 HD
ENDBRANCH   1  17
BRANCH   1  21
HETATM   21  C10 UNL     1      20.641   7.025  10.022  1.00  0.00     0.065 C 
HETATM   22  C11 UNL     1      21.884   6.356   9.462  1.00  0.00     0.011 C 
HETATM   23  C12 UNL     1      22.659   5.588  10.515  1.00  0.00     0.001 C 
HETATM   24  C13 UNL     1      23.197   6.515  11.584  1.00  0.00     0.002 C 
HETATM   25  C14 UNL     1      22.340   7.759  11.562  1.00  0.00     0.032 C 
HETATM   26  C15 UNL     1      20.845   7.325  11.454  1.00  0.00     0.133 C 
BRANCH  26  27
HETATM   27  O3  UNL     1      20.051   8.304  11.980  1.00  0.00    -0.346 OA
BRANCH  27  28
HETATM   28  C16 UNL     1      19.462   8.079  13.182  1.00  0.00     0.197 C 
HETATM   29  C17 UNL     1      17.984   7.897  13.208  1.00  0.00     0.084 C 
HETATM   30  C18 UNL     1      19.751   9.217  14.179  1.00  0.00     0.084 C 
HETATM   31  F1  UNL     1      20.002   6.952  13.834  1.00  0.00    -0.213 F 
ENDBRANCH  27  28
ENDBRANCH  26  27
ENDBRANCH   1  21
TORSDOF 8
ENDMDL
MODEL 3
REMARK VINA RESULT: -6.703706053      3.449      6.671
REMARK  8 active torsions:
REMARK  status: ('A' for Active; 'I' for Inactive)
REMARK    1  A    between atoms: C2_2  and  N1_4 
REMARK       I    between atoms: N1_4  and  C4_6 
REMARK       I    between atoms: C4_6  and  N2_8 
REMARK    2  A    between atoms: N2_8  and  C6_10 
REMARK    3  A    between atoms: C6_10  and  C8_12 
REMARK       I    between atoms: C8_12  and  N3_14 
REMARK    4  A    between atoms: N3_14  and  C9_16 
REMARK    5  A    between atoms: C9_16  and  N4_17 
REMARK    6  A    between atoms: C9_16  and  C10_21 
REMARK    7  A    between atoms: C15_26  and  O3_27 
REMARK    8  A    between atoms: O3_27  and  C16_28 
ROOT
HETATM    1  C9  UNL     1      17.284   7.747   9.797  1.00  0.00     0.290 C 
ENDROOT
BRANCH   1   2
HETATM    2  N3  UNL     1      17.599   6.774  10.853  1.00  0.00    -0.331 N 
HETATM    3  C8  UNL     1      18.375   5.616  10.619  1.00  0.00     0.241 C 
HETATM    4  O2  UNL     1      18.807   5.419   9.461  1.00  0.00    -0.271 OA
ATOM      5  H3  UNL     1      17.244   6.943  11.794  1.00  0.00     0.164 HD
BRANCH   3   6
HETATM    6  C6  UNL     1      18.666   4.671  11.703  1.00  0.00     0.176 C 
HETATM    7  C7  UNL     1      19.390   3.424  11.204  1.00  0.00     0.042 C 
BRANCH   6   8
HETATM    8  N2  UNL     1      17.500   4.226  12.411  1.00  0.00    -0.325 N 
HETATM    9  C4  UNL     1      17.360   4.453  13.792  1.00  0.00     0.319 C 
HETATM   10  N1  UNL     1      16.204   3.989  14.470  1.00  0.00    -0.339 N 
HETATM   11  O1  UNL     1      18.277   5.072  14.401  1.00  0.00    -0.247 OA
ATOM     12  H1  UNL     1      15.474   3.491  13.961  1.00  0.00     0.164 HD
HETATM   13  C5  UNL     1      16.458   3.529  11.702  1.00  0.00     0.155 C 
BRANCH  10  14
HETATM   14  C2  UNL     1      16.070   4.224  15.874  1.00  0.00     0.078 C 
HETATM   15  C1  UNL     1      14.740   4.889  16.131  1.00  0.00     0.032 C 
HETATM   16  C3  UNL     1      16.093   2.883  16.578  1.00  0.00     0.032 C 
ENDBRANCH  10  14
ENDBRANCH   6   8
ENDBRANCH   3   6
ENDBRANCH   1   2
BRANCH   1  17
HETATM   17  N4  UNL     1      16.578   6.990   8.793  1.00  0.00    -0.058 N 
ATOM     18  H43 UNL     1      16.207   6.102   9.130  1.00  0.00     0.276 HD
ATOM     19  H42 UNL     1      15.682   7.396   8.524  1.00  0.00     0.276 HD
ATOM     20  H41 UNL     1      17.238   6.896   8.022  1.00  0.00     0.276 HD
ENDBRANCH   1  17
BRANCH   1  21
HETATM   21  C10 UNL     1      16.537   8.909  10.336  1.00  0.00     0.065 C 
HETATM   22  C11 UNL     1      16.284   8.805  11.829  1.00  0.00     0.011 C 
HETATM   23  C12 UNL     1      14.840   8.479  12.156  1.00  0.00     0.001 C 
HETATM   24  C13 UNL     1      13.913   9.589  11.708  1.00  0.00     0.002 C 
HETATM   25  C14 UNL     1      14.631  10.352  10.621  1.00  0.00     0.032 C 
HETATM   26  C15 UNL     1      15.295   9.325   9.652  1.00  0.00     0.133 C 
BRANCH  26  27
HETATM   27  O3  UNL     1      15.451   9.897   8.422  1.00  0.00    -0.346 OA
BRANCH  27  28
HETATM   28  C16 UNL     1      14.535   9.616   7.460  1.00  0.00     0.197 C 
HETATM   29  C17 UNL     1      13.651  10.722   6.997  1.00  0.00     0.084 C 
HETATM   30  C18 UNL     1      13.582   8.486   7.895  1.00  0.00     0.084 C 
HETATM   31  F1  UNL     1      15.132   9.088   6.299  1.00  0.00    -0.213 F 
ENDBRANCH  27  28
ENDBRANCH  26  27
ENDBRANCH   1  21
TORSDOF 8
ENDMDL
MODEL 4
REMARK VINA RESULT: -6.685615377      2.193      4.141
REMARK  8 active torsions:
REMARK  status: ('A' for Active; 'I' for Inactive)
REMARK    1  A    between atoms: C2_2  and  N1_4 
REMARK       I    between atoms: N1_4  and  C4_6 
REMARK       I    between atoms: C4_6  and  N2_8 
REMARK    2  A    between atoms: N2_8  and  C6_10 
REMARK    3  A    between atoms: C6_10  and  C8_12 
REMARK       I    between atoms: C8_12  and  N3_14 
REMARK    4  A    between atoms: N3_14  and  C9_16 
REMARK    5  A    between atoms: C9_16  and  N4_17 
REMARK    6  A    between atoms: C9_16  and  C10_21 
REMARK    7  A    between atoms: C15_26  and  O3_27 
REMARK    8  A    between atoms: O3_27  and  C16_28 
ROOT
HETATM    1  C9  UNL     1      17.098   4.020  13.164  1.00  0.00     0.290 C 
ENDROOT
BRANCH   1   2
HETATM    2  N3  UNL     1      18.360   4.411  12.520  1.00  0.00    -0.331 N 
HETATM    3  C8  UNL     1      18.591   4.259  11.134  1.00  0.00     0.241 C 
HETATM    4  O2  UNL     1      17.676   3.770  10.433  1.00  0.00    -0.271 OA
ATOM      5  H3  UNL     1      19.100   4.809  13.098  1.00  0.00     0.164 HD
BRANCH   3   6
HETATM    6  C6  UNL     1      19.866   4.663  10.532  1.00  0.00     0.176 C 
HETATM    7  C7  UNL     1      20.927   4.980  11.581  1.00  0.00     0.042 C 
BRANCH   6   8
HETATM    8  N2  UNL     1      19.764   5.810   9.675  1.00  0.00    -0.325 N 
HETATM    9  C4  UNL     1      20.198   5.758   8.339  1.00  0.00     0.319 C 
HETATM   10  N1  UNL     1      20.100   6.912   7.519  1.00  0.00    -0.339 N 
HETATM   11  O1  UNL     1      20.671   4.674   7.896  1.00  0.00    -0.247 OA
ATOM     12  H1  UNL     1      19.715   7.779   7.895  1.00  0.00     0.164 HD
HETATM   13  C5  UNL     1      19.214   7.037  10.191  1.00  0.00     0.155 C 
BRANCH  10  14
HETATM   14  C2  UNL     1      20.544   6.850   6.162  1.00  0.00     0.078 C 
HETATM   15  C1  UNL     1      19.514   7.514   5.282  1.00  0.00     0.032 C 
HETATM   16  C3  UNL     1      21.845   7.619   6.059  1.00  0.00     0.032 C 
ENDBRANCH  10  14
ENDBRANCH   6   8
ENDBRANCH   3   6
ENDBRANCH   1   2
BRANCH   1  17
HETATM   17  N4  UNL     1      17.488   3.191  14.276  1.00  0.00    -0.058 N 
ATOM     18  H43 UNL     1      18.337   3.504  14.747  1.00  0.00     0.276 HD
ATOM     19  H42 UNL     1      16.871   3.266  15.084  1.00  0.00     0.276 HD
ATOM     20  H41 UNL     1      17.553   2.248  13.892  1.00  0.00     0.276 HD
ENDBRANCH   1  17
BRANCH   1  21
HETATM   21  C10 UNL     1      16.286   5.205  13.530  1.00  0.00     0.065 C 
HETATM   22  C11 UNL     1      16.930   6.514  13.106  1.00  0.00     0.011 C 
HETATM   23  C12 UNL     1      17.508   7.287  14.275  1.00  0.00     0.001 C 
HETATM   24  C13 UNL     1      16.422   7.713  15.240  1.00  0.00     0.002 C 
HETATM   25  C14 UNL     1      15.253   6.780  15.031  1.00  0.00     0.032 C 
HETATM   26  C15 UNL     1      15.800   5.322  14.920  1.00  0.00     0.133 C 
BRANCH  26  27
HETATM   27  O3  UNL     1      14.823   4.443  15.290  1.00  0.00    -0.346 OA
BRANCH  27  28
HETATM   28  C16 UNL     1      14.720   4.108  16.601  1.00  0.00     0.197 C 
HETATM   29  C17 UNL     1      15.940   3.594  17.285  1.00  0.00     0.084 C 
HETATM   30  C18 UNL     1      13.640   3.034  16.830  1.00  0.00     0.084 C 
HETATM   31  F1  UNL     1      14.260   5.182  17.388  1.00  0.00    -0.213 F 
ENDBRANCH  27  28
ENDBRANCH  26  27
ENDBRANCH   1  21
TORSDOF 8
ENDMDL
MODEL 5
REMARK VINA RESULT: -6.662513851      2.476      5.799
REMARK  8 active torsions:
REMARK  status: ('A' for Active; 'I' for Inactive)
REMARK    1  A    between atoms: C2_2  and  N1_4 
REMARK       I    between atoms: N1_4  and  C4_6 
REMARK       I    between atoms: C4_6  and  N2_8 
REMARK    2  A    between atoms: N2_8  and  C6_10 
REMARK    3  A    between atoms: C6_10  and  C8_12 
REMARK       I    between atoms: C8_12  and  N3_14 
REMARK    4  A    between atoms: N3_14  and  C9_16 
REMARK    5  A    between atoms: C9_16  and  N4_17 
REMARK    6  A    between atoms: C9_16  and  C10_21 
REMARK    7  A    between atoms: C15_26  and  O3_27 
REMARK    8  A    between atoms: O3_27  and  C16_28 
ROOT
HETATM    1  C9  UNL     1      17.431   3.409  11.362  1.00  0.00     0.290 C 
ENDROOT
BRANCH   1   2
HETATM    2  N3  UNL     1      17.505   4.164  12.621  1.00  0.00    -0.331 N 
HETATM    3  C8  UNL     1      17.102   3.622  13.863  1.00  0.00     0.241 C 
HETATM    4  O2  UNL     1      16.666   2.449  13.881  1.00  0.00    -0.271 OA
ATOM      5  H3  UNL     1      17.862   5.119  12.598  1.00  0.00     0.164 HD
BRANCH   3   6
HETATM    6  C6  UNL     1      17.193   4.410  15.097  1.00  0.00     0.176 C 
HETATM    7  C7  UNL     1      16.165   3.976  16.137  1.00  0.00     0.042 C 
BRANCH   6   8
HETATM    8  N2  UNL     1      17.019   5.821  14.896  1.00  0.00    -0.325 N 
HETATM    9  C4  UNL     1      18.121   6.658  14.644  1.00  0.00     0.319 C 
HETATM   10  N1  UNL     1      17.923   8.051  14.465  1.00  0.00    -0.339 N 
HETATM   11  O1  UNL     1      19.273   6.143  14.584  1.00  0.00    -0.247 OA
ATOM     12  H1  UNL     1      16.985   8.448  14.517  1.00  0.00     0.164 HD
HETATM   13  C5  UNL     1      15.699   6.392  14.959  1.00  0.00     0.155 C 
BRANCH  10  14
HETATM   14  C2  UNL     1      19.048   8.894  14.210  1.00  0.00     0.078 C 
HETATM   15  C1  UNL     1      18.854   9.576  12.878  1.00  0.00     0.032 C 
HETATM   16  C3  UNL     1      19.100   9.948  15.297  1.00  0.00     0.032 C 
ENDBRANCH  10  14
ENDBRANCH   6   8
ENDBRANCH   3   6
ENDBRANCH   1   2
BRANCH   1  17
HETATM   17  N4  UNL     1      16.121   3.694  10.834  1.00  0.00    -0.058 N 
ATOM     18  H43 UNL     1      15.620   2.870  10.501  1.00  0.00     0.276 HD
ATOM     19  H42 UNL     1      15.440   3.967  11.542  1.00  0.00     0.276 HD
ATOM     20  H41 UNL     1      16.274   4.401  10.115  1.00  0.00     0.276 HD
ENDBRANCH   1  17
BRANCH   1  21
HETATM   21  C10 UNL     1      18.552   3.755  10.456  1.00  0.00     0.065 C 
HETATM   22  C11 UNL     1      19.850   3.063  10.834  1.00  0.00     0.011 C 
HETATM   23  C12 UNL     1      20.853   4.005  11.469  1.00  0.00     0.001 C 
HETATM   24  C13 UNL     1      21.286   5.080  10.495  1.00  0.00     0.002 C 
HETATM   25  C14 UNL     1      20.199   5.197   9.453  1.00  0.00     0.032 C 
HETATM   26  C15 UNL     1      18.818   5.182  10.178  1.00  0.00     0.133 C 
BRANCH  26  27
HETATM   27  O3  UNL     1      17.893   5.823   9.404  1.00  0.00    -0.346 OA
BRANCH  27  28
HETATM   28  C16 UNL     1      17.546   7.093   9.735  1.00  0.00     0.197 C 
HETATM   29  C17 UNL     1      16.745   7.294  10.975  1.00  0.00     0.084 C 
HETATM   30  C18 UNL     1      16.741   7.774   8.612  1.00  0.00     0.084 C 
HETATM   31  F1  UNL     1      18.670   7.934   9.862  1.00  0.00    -0.213 F 
ENDBRANCH  27  28
ENDBRANCH  26  27
ENDBRANCH   1  21
TORSDOF 8
ENDMDL
