MODEL 1
REMARK VINA RESULT: -6.433897178      0.000      0.000
REMARK  7 active torsions:
REMARK  status: ('A' for Active; 'I' for Inactive)
REMARK    1  A    between atoms: C2_2  and  C3_3 
REMARK    2  A    between atoms: C3_3  and  C4_4 
REMARK    3  A    between atoms: C4_4  and  C5_5 
REMARK    4  A    between atoms: N1_12  and  C11_13 
REMARK    5  A    between atoms: C11_13  and  C12_14 
REMARK    6  A    between atoms: C12_14  and  N2_15 
REMARK    7  A    between atoms: N2_15  and  C13_17 
ROOT
HETATM    1  C4  UNL     1     -21.918  -0.814  -3.827  1.00  0.00    -0.004 C 
HETATM    2  C9  UNL     1     -20.911   0.041  -4.599  1.00  0.00     0.035 C 
HETATM    3  C10 UNL     1     -21.513   0.921  -5.609  1.00  0.00     0.123 C 
HETATM    4  N1  UNL     1     -22.616   0.374  -6.312  1.00  0.00    -0.392 N 
HETATM    5  C14 UNL     1     -22.720  -1.055  -6.219  1.00  0.00     0.123 C 
HETATM    6  C15 UNL     1     -22.799  -1.511  -4.785  1.00  0.00     0.035 C 
ENDROOT
BRANCH   1   7
HETATM    7  C3  UNL     1     -21.156  -1.814  -3.030  1.00  0.00     0.014 C 
BRANCH   7   8
HETATM    8  C2  UNL     1     -19.715  -1.973  -3.310  1.00  0.00    -0.004 C 
HETATM    9  C1  UNL     1     -18.956  -1.623  -2.012  1.00  0.00     0.005 C 
ENDBRANCH   7   8
ENDBRANCH   1   7
BRANCH   1  10
HETATM   10  C5  UNL     1     -22.717   0.056  -2.916  1.00  0.00    -0.009 A 
HETATM   11  C6  UNL     1     -23.967   0.576  -3.026  1.00  0.00     0.016 A 
HETATM   12  C7  UNL     1     -24.428   1.354  -2.029  1.00  0.00     0.008 A 
HETATM   13  C8  UNL     1     -23.592   1.570  -0.963  1.00  0.00     0.050 A 
HETATM   14  S1  UNL     1     -22.199   0.688  -1.375  1.00  0.00    -0.106 SA
ENDBRANCH   1  10
BRANCH   4  15
HETATM   15  C11 UNL     1     -22.944   0.913  -7.565  1.00  0.00     0.077 C 
BRANCH  15  16
HETATM   16  C12 UNL     1     -23.521  -0.044  -8.581  1.00  0.00     0.165 C 
BRANCH  16  17
HETATM   17  N2  UNL     1     -22.533  -0.246  -9.622  1.00  0.00    -0.370 N 
ATOM     18  H2  UNL     1     -22.634   0.254 -10.506  1.00  0.00     0.161 HD
BRANCH  17  19
HETATM   19  C13 UNL     1     -21.441  -1.113  -9.448  1.00  0.00     0.145 C 
HETATM   20  S2  UNL     1     -21.580  -2.712  -9.791  1.00  0.00    -0.052 SA
HETATM   21  S3  UNL     1     -19.861  -0.496  -8.839  1.00  0.00    -0.021 SA
ENDBRANCH  17  19
ENDBRANCH  16  17
ENDBRANCH  15  16
ENDBRANCH   4  15
TORSDOF 7
ENDMDL
MODEL 2
REMARK VINA RESULT: -6.428460104      1.894      3.761
REMARK  7 active torsions:
REMARK  status: ('A' for Active; 'I' for Inactive)
REMARK    1  A    between atoms: C2_2  and  C3_3 
REMARK    2  A    between atoms: C3_3  and  C4_4 
REMARK    3  A    between atoms: C4_4  and  C5_5 
REMARK    4  A    between atoms: N1_12  and  C11_13 
REMARK    5  A    between atoms: C11_13  and  C12_14 
REMARK    6  A    between atoms: C12_14  and  N2_15 
REMARK    7  A    between atoms: N2_15  and  C13_17 
ROOT
HETATM    1  C4  UNL     1     -21.555   0.843  -3.809  1.00  0.00    -0.004 C 
HETATM    2  C9  UNL     1     -22.595   0.016  -4.567  1.00  0.00     0.035 C 
HETATM    3  C10 UNL     1     -22.030  -0.879  -5.585  1.00  0.00     0.123 C 
HETATM    4  N1  UNL     1     -20.922  -0.363  -6.303  1.00  0.00    -0.392 N 
HETATM    5  C14 UNL     1     -20.778   1.062  -6.210  1.00  0.00     0.123 C 
HETATM    6  C15 UNL     1     -20.667   1.516  -4.778  1.00  0.00     0.035 C 
ENDROOT
BRANCH   1   7
HETATM    7  C3  UNL     1     -22.279   1.863  -3.002  1.00  0.00     0.014 C 
BRANCH   7   8
HETATM    8  C2  UNL     1     -23.743   1.964  -3.162  1.00  0.00    -0.004 C 
HETATM    9  C1  UNL     1     -24.371   1.756  -1.768  1.00  0.00     0.005 C 
ENDBRANCH   7   8
ENDBRANCH   1   7
BRANCH   1  10
HETATM   10  C5  UNL     1     -20.768  -0.049  -2.908  1.00  0.00    -0.009 A 
HETATM   11  C6  UNL     1     -19.518  -0.570  -3.016  1.00  0.00     0.016 A 
HETATM   12  C7  UNL     1     -19.070  -1.370  -2.031  1.00  0.00     0.008 A 
HETATM   13  C8  UNL     1     -19.918  -1.607  -0.978  1.00  0.00     0.050 A 
HETATM   14  S1  UNL     1     -21.304  -0.713  -1.386  1.00  0.00    -0.106 SA
ENDBRANCH   1  10
BRANCH   4  15
HETATM   15  C11 UNL     1     -20.626  -0.910  -7.559  1.00  0.00     0.077 C 
BRANCH  15  16
HETATM   16  C12 UNL     1     -20.006   0.023  -8.572  1.00  0.00     0.165 C 
BRANCH  16  17
HETATM   17  N2  UNL     1     -20.970   0.243  -9.632  1.00  0.00    -0.370 N 
ATOM     18  H2  UNL     1     -20.845  -0.235 -10.524  1.00  0.00     0.161 HD
BRANCH  17  19
HETATM   19  C13 UNL     1     -22.073   1.098  -9.462  1.00  0.00     0.145 C 
HETATM   20  S2  UNL     1     -21.955   2.696  -9.819  1.00  0.00    -0.052 SA
HETATM   21  S3  UNL     1     -23.644   0.466  -8.845  1.00  0.00    -0.021 SA
ENDBRANCH  17  19
ENDBRANCH  16  17
ENDBRANCH  15  16
ENDBRANCH   4  15
TORSDOF 7
ENDMDL
MODEL 3
REMARK VINA RESULT: -6.366290845      1.078      1.298
REMARK  7 active torsions:
REMARK  status: ('A' for Active; 'I' for Inactive)
REMARK    1  A    between atoms: C2_2  and  C3_3 
REMARK    2  A    between atoms: C3_3  and  C4_4 
REMARK    3  A    between atoms: C4_4  and  C5_5 
REMARK    4  A    between atoms: N1_12  and  C11_13 
REMARK    5  A    between atoms: C11_13  and  C12_14 
REMARK    6  A    between atoms: C12_14  and  N2_15 
REMARK    7  A    between atoms: N2_15  and  C13_17 
ROOT
HETATM    1  C4  UNL     1     -21.618  -0.326  -3.227  1.00  0.00    -0.004 C 
HETATM    2  C9  UNL     1     -20.573   0.641  -3.784  1.00  0.00     0.035 C 
HETATM    3  C10 UNL     1     -20.973   1.317  -5.024  1.00  0.00     0.123 C 
HETATM    4  N1  UNL     1     -21.715   0.525  -5.936  1.00  0.00    -0.392 N 
HETATM    5  C14 UNL     1     -21.619  -0.887  -5.698  1.00  0.00     0.123 C 
HETATM    6  C15 UNL     1     -22.053  -1.243  -4.300  1.00  0.00     0.035 C 
ENDROOT
BRANCH   1   7
HETATM    7  C3  UNL     1     -20.985  -1.106  -2.129  1.00  0.00     0.014 C 
BRANCH   7   8
HETATM    8  C2  UNL     1     -20.158  -2.274  -2.493  1.00  0.00    -0.004 C 
HETATM    9  C1  UNL     1     -18.689  -1.903  -2.197  1.00  0.00     0.005 C 
ENDBRANCH   7   8
ENDBRANCH   1   7
BRANCH   1  10
HETATM   10  C5  UNL     1     -22.779   0.445  -2.694  1.00  0.00    -0.009 A 
HETATM   11  C6  UNL     1     -24.058   0.575  -3.133  1.00  0.00     0.016 A 
HETATM   12  C7  UNL     1     -24.897   1.367  -2.440  1.00  0.00     0.008 A 
HETATM   13  C8  UNL     1     -24.393   1.996  -1.329  1.00  0.00     0.050 A 
HETATM   14  S1  UNL     1     -22.779   1.467  -1.281  1.00  0.00    -0.106 SA
ENDBRANCH   1  10
BRANCH   4  15
HETATM   15  C11 UNL     1     -21.732   0.900  -7.287  1.00  0.00     0.077 C 
BRANCH  15  16
HETATM   16  C12 UNL     1     -23.090   1.037  -7.933  1.00  0.00     0.165 C 
BRANCH  16  17
HETATM   17  N2  UNL     1     -23.350  -0.165  -8.698  1.00  0.00    -0.370 N 
ATOM     18  H2  UNL     1     -24.256  -0.625  -8.609  1.00  0.00     0.161 HD
BRANCH  17  19
HETATM   19  C13 UNL     1     -22.386  -0.716  -9.561  1.00  0.00     0.145 C 
HETATM   20  S2  UNL     1     -21.795   0.157 -10.819  1.00  0.00    -0.052 SA
HETATM   21  S3  UNL     1     -21.776  -2.394  -9.314  1.00  0.00    -0.021 SA
ENDBRANCH  17  19
ENDBRANCH  16  17
ENDBRANCH  15  16
ENDBRANCH   4  15
TORSDOF 7
ENDMDL
MODEL 4
REMARK VINA RESULT: -6.352851857      1.606      3.594
REMARK  7 active torsions:
REMARK  status: ('A' for Active; 'I' for Inactive)
REMARK    1  A    between atoms: C2_2  and  C3_3 
REMARK    2  A    between atoms: C3_3  and  C4_4 
REMARK    3  A    between atoms: C4_4  and  C5_5 
REMARK    4  A    between atoms: N1_12  and  C11_13 
REMARK    5  A    between atoms: C11_13  and  C12_14 
REMARK    6  A    between atoms: C12_14  and  N2_15 
REMARK    7  A    between atoms: N2_15  and  C13_17 
ROOT
HETATM    1  C4  UNL     1     -21.890   0.393  -3.223  1.00  0.00    -0.004 C 
HETATM    2  C9  UNL     1     -22.930  -0.546  -3.835  1.00  0.00     0.035 C 
HETATM    3  C10 UNL     1     -22.485  -1.229  -5.056  1.00  0.00     0.123 C 
HETATM    4  N1  UNL     1     -21.676  -0.456  -5.926  1.00  0.00    -0.392 N 
HETATM    5  C14 UNL     1     -21.748   0.958  -5.689  1.00  0.00     0.123 C 
HETATM    6  C15 UNL     1     -21.378   1.301  -4.269  1.00  0.00     0.035 C 
ENDROOT
BRANCH   1   7
HETATM    7  C3  UNL     1     -22.559   1.188  -2.156  1.00  0.00     0.014 C 
BRANCH   7   8
HETATM    8  C2  UNL     1     -23.525   2.226  -2.566  1.00  0.00    -0.004 C 
HETATM    9  C1  UNL     1     -24.887   1.855  -1.939  1.00  0.00     0.005 C 
ENDBRANCH   7   8
ENDBRANCH   1   7
BRANCH   1  10
HETATM   10  C5  UNL     1     -20.779  -0.409  -2.634  1.00  0.00    -0.009 A 
HETATM   11  C6  UNL     1     -19.499  -0.620  -3.041  1.00  0.00     0.016 A 
HETATM   12  C7  UNL     1     -18.714  -1.420  -2.297  1.00  0.00     0.008 A 
HETATM   13  C8  UNL     1     -19.268  -1.974  -1.170  1.00  0.00     0.050 A 
HETATM   14  S1  UNL     1     -20.855  -1.366  -1.178  1.00  0.00    -0.106 SA
ENDBRANCH   1  10
BRANCH   4  15
HETATM   15  C11 UNL     1     -21.600  -0.828  -7.276  1.00  0.00     0.077 C 
BRANCH  15  16
HETATM   16  C12 UNL     1     -22.909  -1.104  -7.976  1.00  0.00     0.165 C 
BRANCH  16  17
HETATM   17  N2  UNL     1     -23.280   0.081  -8.723  1.00  0.00    -0.370 N 
ATOM     18  H2  UNL     1     -24.215   0.470  -8.606  1.00  0.00     0.161 HD
BRANCH  17  19
HETATM   19  C13 UNL     1     -22.384   0.709  -9.606  1.00  0.00     0.145 C 
HETATM   20  S2  UNL     1     -21.751  -0.111 -10.878  1.00  0.00    -0.052 SA
HETATM   21  S3  UNL     1     -21.901   2.429  -9.362  1.00  0.00    -0.021 SA
ENDBRANCH  17  19
ENDBRANCH  16  17
ENDBRANCH  15  16
ENDBRANCH   4  15
TORSDOF 7
ENDMDL
MODEL 5
REMARK VINA RESULT: -6.352747664      1.734      3.779
REMARK  7 active torsions:
REMARK  status: ('A' for Active; 'I' for Inactive)
REMARK    1  A    between atoms: C2_2  and  C3_3 
REMARK    2  A    between atoms: C3_3  and  C4_4 
REMARK    3  A    between atoms: C4_4  and  C5_5 
REMARK    4  A    between atoms: N1_12  and  C11_13 
REMARK    5  A    between atoms: C11_13  and  C12_14 
REMARK    6  A    between atoms: C12_14  and  N2_15 
REMARK    7  A    between atoms: N2_15  and  C13_17 
ROOT
HETATM    1  C4  UNL     1     -22.030   0.198  -3.175  1.00  0.00    -0.004 C 
HETATM    2  C9  UNL     1     -23.015  -0.823  -3.748  1.00  0.00     0.035 C 
HETATM    3  C10 UNL     1     -22.579  -1.445  -5.005  1.00  0.00     0.123 C 
HETATM    4  N1  UNL     1     -21.894  -0.589  -5.902  1.00  0.00    -0.392 N 
HETATM    5  C14 UNL     1     -22.079   0.809  -5.634  1.00  0.00     0.123 C 
HETATM    6  C15 UNL     1     -21.661   1.163  -4.230  1.00  0.00     0.035 C 
ENDROOT
BRANCH   1   7
HETATM    7  C3  UNL     1     -22.706   0.912  -2.058  1.00  0.00     0.014 C 
BRANCH   7   8
HETATM    8  C2  UNL     1     -23.432   2.160  -2.370  1.00  0.00    -0.004 C 
HETATM    9  C1  UNL     1     -24.937   1.873  -2.181  1.00  0.00     0.005 C 
ENDBRANCH   7   8
ENDBRANCH   1   7
BRANCH   1  10
HETATM   10  C5  UNL     1     -20.820  -0.509  -2.664  1.00  0.00    -0.009 A 
HETATM   11  C6  UNL     1     -19.535  -0.542  -3.106  1.00  0.00     0.016 A 
HETATM   12  C7  UNL     1     -18.645  -1.295  -2.435  1.00  0.00     0.008 A 
HETATM   13  C8  UNL     1     -19.104  -1.985  -1.341  1.00  0.00     0.050 A 
HETATM   14  S1  UNL     1     -20.750  -1.566  -1.278  1.00  0.00    -0.106 SA
ENDBRANCH   1  10
BRANCH   4  15
HETATM   15  C11 UNL     1     -21.860  -0.933  -7.261  1.00  0.00     0.077 C 
BRANCH  15  16
HETATM   16  C12 UNL     1     -20.501  -0.954  -7.919  1.00  0.00     0.165 C 
BRANCH  16  17
HETATM   17  N2  UNL     1     -20.272   0.343  -8.523  1.00  0.00    -0.370 N 
ATOM     18  H2  UNL     1     -19.441   0.874  -8.260  1.00  0.00     0.161 HD
BRANCH  17  19
HETATM   19  C13 UNL     1     -21.163   0.889  -9.463  1.00  0.00     0.145 C 
HETATM   20  S2  UNL     1     -21.697   2.434  -9.308  1.00  0.00    -0.052 SA
HETATM   21  S3  UNL     1     -21.749  -0.090 -10.858  1.00  0.00    -0.021 SA
ENDBRANCH  17  19
ENDBRANCH  16  17
ENDBRANCH  15  16
ENDBRANCH   4  15
TORSDOF 7
ENDMDL
