MODEL 1
REMARK VINA RESULT: -8.327275720      0.000      0.000
REMARK  12 active torsions:
REMARK  status: ('A' for Active; 'I' for Inactive)
REMARK    1  A    between atoms: C2_2  and  N1_3 
REMARK    2  A    between atoms: N1_3  and  C3_5 
REMARK    3  A    between atoms: C3_5  and  C4_6 
REMARK    4  A    between atoms: C4_6  and  N2_7 
REMARK    5  A    between atoms: N2_7  and  C5_8 
REMARK    6  A    between atoms: N2_7  and  C15_18 
REMARK    7  A    between atoms: C5_8  and  C6_9 
REMARK    8  A    between atoms: C7_10  and  C9_12 
REMARK    9  A    between atoms: C9_12  and  C10_13 
REMARK   10  A    between atoms: C10_13  and  C11_14 
REMARK   11  A    between atoms: C11_14  and  C12_15 
REMARK   12  A    between atoms: C15_18  and  C16_19 
ROOT
HETATM    1  N2  UNL     1      -5.998  -0.152  20.590  1.00  0.00    -0.364 N 
ENDROOT
BRANCH   1   2
HETATM    2  C4  UNL     1      -5.217  -1.146  19.971  1.00  0.00     0.083 C 
BRANCH   2   3
HETATM    3  C3  UNL     1      -5.384  -2.557  20.383  1.00  0.00     0.163 C 
BRANCH   3   4
HETATM    4  N1  UNL     1      -4.152  -3.227  20.596  1.00  0.00    -0.398 N 
ATOM      5  H1  UNL     1      -3.363  -2.998  19.991  1.00  0.00     0.158 HD
BRANCH   4   6
HETATM    6  C2  UNL     1      -3.970  -4.179  21.587  1.00  0.00     0.051 C 
HETATM    7  C1  UNL     1      -3.026  -5.310  21.390  1.00  0.00     0.054 C 
ENDBRANCH   4   6
ENDBRANCH   3   4
ENDBRANCH   2   3
ENDBRANCH   1   2
BRANCH   1   8
HETATM    8  C5  UNL     1      -6.635   0.849  19.848  1.00  0.00     0.090 C 
BRANCH   8   9
HETATM    9  C6  UNL     1      -6.782   0.730  18.408  1.00  0.00     0.020 C 
HETATM   10  C7  UNL     1      -7.879   1.075  17.776  1.00  0.00    -0.083 C 
HETATM   11  C8  UNL     1      -9.036   1.615  18.518  1.00  0.00     0.043 C 
BRANCH  10  12
HETATM   12  C9  UNL     1      -7.967   0.863  16.307  1.00  0.00     0.034 C 
BRANCH  12  13
HETATM   13  C10 UNL     1      -9.379   1.123  15.808  1.00  0.00     0.005 C 
BRANCH  13  14
HETATM   14  C11 UNL     1      -9.421   2.194  14.785  1.00  0.00     0.004 C 
BRANCH  14  15
HETATM   15  C12 UNL     1     -10.544   2.000  13.807  1.00  0.00    -0.023 C 
HETATM   16  C13 UNL     1     -10.791   0.565  13.477  1.00  0.00     0.009 C 
HETATM   17  C14 UNL     1     -10.082   2.732  12.525  1.00  0.00     0.009 C 
ENDBRANCH  14  15
ENDBRANCH  13  14
ENDBRANCH  12  13
ENDBRANCH  10  12
ENDBRANCH   8   9
ENDBRANCH   1   8
BRANCH   1  18
HETATM   18  C15 UNL     1      -5.393   0.337  21.785  1.00  0.00     0.165 C 
BRANCH  18  19
HETATM   19  C16 UNL     1      -3.955   0.596  21.661  1.00  0.00    -0.040 A 
HETATM   20  C17 UNL     1      -3.004  -0.259  22.208  1.00  0.00     0.009 A 
HETATM   21  C18 UNL     1      -1.656  -0.030  22.102  1.00  0.00     0.001 A 
HETATM   22  C19 UNL     1      -1.178   1.079  21.438  1.00  0.00     0.000 A 
HETATM   23  C20 UNL     1      -2.104   1.944  20.884  1.00  0.00     0.001 A 
HETATM   24  C21 UNL     1      -3.469   1.696  21.000  1.00  0.00     0.009 A 
ENDBRANCH  18  19
ENDBRANCH   1  18
TORSDOF 12
ENDMDL
MODEL 2
REMARK VINA RESULT: -8.195181504      1.801      2.495
REMARK  12 active torsions:
REMARK  status: ('A' for Active; 'I' for Inactive)
REMARK    1  A    between atoms: C2_2  and  N1_3 
REMARK    2  A    between atoms: N1_3  and  C3_5 
REMARK    3  A    between atoms: C3_5  and  C4_6 
REMARK    4  A    between atoms: C4_6  and  N2_7 
REMARK    5  A    between atoms: N2_7  and  C5_8 
REMARK    6  A    between atoms: N2_7  and  C15_18 
REMARK    7  A    between atoms: C5_8  and  C6_9 
REMARK    8  A    between atoms: C7_10  and  C9_12 
REMARK    9  A    between atoms: C9_12  and  C10_13 
REMARK   10  A    between atoms: C10_13  and  C11_14 
REMARK   11  A    between atoms: C11_14  and  C12_15 
REMARK   12  A    between atoms: C15_18  and  C16_19 
ROOT
HETATM    1  N2  UNL     1      -6.139   0.332  21.002  1.00  0.00    -0.364 N 
ENDROOT
BRANCH   1   2
HETATM    2  C4  UNL     1      -6.631  -0.458  22.058  1.00  0.00     0.083 C 
BRANCH   2   3
HETATM    3  C3  UNL     1      -5.741  -0.780  23.195  1.00  0.00     0.163 C 
BRANCH   3   4
HETATM    4  N1  UNL     1      -5.203   0.371  23.828  1.00  0.00    -0.398 N 
ATOM      5  H1  UNL     1      -5.767   1.221  23.851  1.00  0.00     0.158 HD
BRANCH   4   6
HETATM    6  C2  UNL     1      -3.949   0.393  24.417  1.00  0.00     0.051 C 
HETATM    7  C1  UNL     1      -3.142   1.641  24.439  1.00  0.00     0.054 C 
ENDBRANCH   4   6
ENDBRANCH   3   4
ENDBRANCH   2   3
ENDBRANCH   1   2
BRANCH   1   8
HETATM    8  C5  UNL     1      -6.998   1.024  20.141  1.00  0.00     0.090 C 
BRANCH   8   9
HETATM    9  C6  UNL     1      -6.967   0.788  18.709  1.00  0.00     0.020 C 
HETATM   10  C7  UNL     1      -7.966   1.097  17.917  1.00  0.00    -0.083 C 
HETATM   11  C8  UNL     1      -9.192   1.716  18.461  1.00  0.00     0.043 C 
BRANCH  10  12
HETATM   12  C9  UNL     1      -7.875   0.765  16.471  1.00  0.00     0.034 C 
BRANCH  12  13
HETATM   13  C10 UNL     1      -8.668   1.759  15.639  1.00  0.00     0.005 C 
BRANCH  13  14
HETATM   14  C11 UNL     1      -9.895   1.157  15.067  1.00  0.00     0.004 C 
BRANCH  14  15
HETATM   15  C12 UNL     1     -10.386   1.904  13.862  1.00  0.00    -0.023 C 
HETATM   16  C13 UNL     1     -10.021   1.244  12.574  1.00  0.00     0.009 C 
HETATM   17  C14 UNL     1      -9.678   3.278  13.932  1.00  0.00     0.009 C 
ENDBRANCH  14  15
ENDBRANCH  13  14
ENDBRANCH  12  13
ENDBRANCH  10  12
ENDBRANCH   8   9
ENDBRANCH   1   8
BRANCH   1  18
HETATM   18  C15 UNL     1      -5.054  -0.297  20.323  1.00  0.00     0.165 C 
BRANCH  18  19
HETATM   19  C16 UNL     1      -3.740   0.269  20.647  1.00  0.00    -0.040 A 
HETATM   20  C17 UNL     1      -2.661  -0.534  21.002  1.00  0.00     0.009 A 
HETATM   21  C18 UNL     1      -1.427  -0.020  21.309  1.00  0.00     0.001 A 
HETATM   22  C19 UNL     1      -1.202   1.339  21.279  1.00  0.00     0.000 A 
HETATM   23  C20 UNL     1      -2.259   2.159  20.928  1.00  0.00     0.001 A 
HETATM   24  C21 UNL     1      -3.504   1.620  20.618  1.00  0.00     0.009 A 
ENDBRANCH  18  19
ENDBRANCH   1  18
TORSDOF 12
ENDMDL
MODEL 3
REMARK VINA RESULT: -8.162485059      1.155      3.489
REMARK  12 active torsions:
REMARK  status: ('A' for Active; 'I' for Inactive)
REMARK    1  A    between atoms: C2_2  and  N1_3 
REMARK    2  A    between atoms: N1_3  and  C3_5 
REMARK    3  A    between atoms: C3_5  and  C4_6 
REMARK    4  A    between atoms: C4_6  and  N2_7 
REMARK    5  A    between atoms: N2_7  and  C5_8 
REMARK    6  A    between atoms: N2_7  and  C15_18 
REMARK    7  A    between atoms: C5_8  and  C6_9 
REMARK    8  A    between atoms: C7_10  and  C9_12 
REMARK    9  A    between atoms: C9_12  and  C10_13 
REMARK   10  A    between atoms: C10_13  and  C11_14 
REMARK   11  A    between atoms: C11_14  and  C12_15 
REMARK   12  A    between atoms: C15_18  and  C16_19 
ROOT
HETATM    1  N2  UNL     1      -5.658   0.121  20.390  1.00  0.00    -0.364 N 
ENDROOT
BRANCH   1   2
HETATM    2  C4  UNL     1      -4.497   0.868  20.663  1.00  0.00     0.083 C 
BRANCH   2   3
HETATM    3  C3  UNL     1      -4.137   1.158  22.068  1.00  0.00     0.163 C 
BRANCH   3   4
HETATM    4  N1  UNL     1      -2.850   1.739  22.208  1.00  0.00    -0.398 N 
ATOM      5  H1  UNL     1      -2.556   2.051  23.134  1.00  0.00     0.158 HD
BRANCH   4   6
HETATM    6  C2  UNL     1      -1.974   1.901  21.147  1.00  0.00     0.051 C 
HETATM    7  C1  UNL     1      -0.819   0.982  20.968  1.00  0.00     0.054 C 
ENDBRANCH   4   6
ENDBRANCH   3   4
ENDBRANCH   2   3
ENDBRANCH   1   2
BRANCH   1   8
HETATM    8  C5  UNL     1      -6.763   0.691  19.748  1.00  0.00     0.090 C 
BRANCH   8   9
HETATM    9  C6  UNL     1      -6.880   0.664  18.301  1.00  0.00     0.020 C 
HETATM   10  C7  UNL     1      -7.953   1.078  17.668  1.00  0.00    -0.083 C 
HETATM   11  C8  UNL     1      -9.111   1.605  18.418  1.00  0.00     0.043 C 
BRANCH  10  12
HETATM   12  C9  UNL     1      -8.012   0.959  16.188  1.00  0.00     0.034 C 
BRANCH  12  13
HETATM   13  C10 UNL     1      -9.432   1.170  15.687  1.00  0.00     0.005 C 
BRANCH  13  14
HETATM   14  C11 UNL     1      -9.511   2.240  14.666  1.00  0.00     0.004 C 
BRANCH  14  15
HETATM   15  C12 UNL     1     -10.580   1.975  13.647  1.00  0.00    -0.023 C 
HETATM   16  C13 UNL     1     -10.761   0.522  13.352  1.00  0.00     0.009 C 
HETATM   17  C14 UNL     1     -10.087   2.683  12.363  1.00  0.00     0.009 C 
ENDBRANCH  14  15
ENDBRANCH  13  14
ENDBRANCH  12  13
ENDBRANCH  10  12
ENDBRANCH   8   9
ENDBRANCH   1   8
BRANCH   1  18
HETATM   18  C15 UNL     1      -6.018  -0.725  21.480  1.00  0.00     0.165 C 
BRANCH  18  19
HETATM   19  C16 UNL     1      -5.319  -2.015  21.489  1.00  0.00    -0.040 A 
HETATM   20  C17 UNL     1      -5.350  -2.860  22.594  1.00  0.00     0.009 A 
HETATM   21  C18 UNL     1      -4.701  -4.068  22.618  1.00  0.00     0.001 A 
HETATM   22  C19 UNL     1      -3.975  -4.501  21.530  1.00  0.00     0.000 A 
HETATM   23  C20 UNL     1      -3.929  -3.679  20.419  1.00  0.00     0.001 A 
HETATM   24  C21 UNL     1      -4.596  -2.456  20.410  1.00  0.00     0.009 A 
ENDBRANCH  18  19
ENDBRANCH   1  18
TORSDOF 12
ENDMDL
MODEL 4
REMARK VINA RESULT: -8.155839120      1.046      1.388
REMARK  12 active torsions:
REMARK  status: ('A' for Active; 'I' for Inactive)
REMARK    1  A    between atoms: C2_2  and  N1_3 
REMARK    2  A    between atoms: N1_3  and  C3_5 
REMARK    3  A    between atoms: C3_5  and  C4_6 
REMARK    4  A    between atoms: C4_6  and  N2_7 
REMARK    5  A    between atoms: N2_7  and  C5_8 
REMARK    6  A    between atoms: N2_7  and  C15_18 
REMARK    7  A    between atoms: C5_8  and  C6_9 
REMARK    8  A    between atoms: C7_10  and  C9_12 
REMARK    9  A    between atoms: C9_12  and  C10_13 
REMARK   10  A    between atoms: C10_13  and  C11_14 
REMARK   11  A    between atoms: C11_14  and  C12_15 
REMARK   12  A    between atoms: C15_18  and  C16_19 
ROOT
HETATM    1  N2  UNL     1      -5.699   0.226  20.160  1.00  0.00    -0.364 N 
ENDROOT
BRANCH   1   2
HETATM    2  C4  UNL     1      -5.269  -1.097  19.947  1.00  0.00     0.083 C 
BRANCH   2   3
HETATM    3  C3  UNL     1      -5.606  -2.135  20.946  1.00  0.00     0.163 C 
BRANCH   3   4
HETATM    4  N1  UNL     1      -4.561  -3.071  21.154  1.00  0.00    -0.398 N 
ATOM      5  H1  UNL     1      -4.722  -4.045  20.896  1.00  0.00     0.158 HD
BRANCH   4   6
HETATM    6  C2  UNL     1      -3.331  -2.725  21.690  1.00  0.00     0.051 C 
HETATM    7  C1  UNL     1      -3.121  -2.706  23.161  1.00  0.00     0.054 C 
ENDBRANCH   4   6
ENDBRANCH   3   4
ENDBRANCH   2   3
ENDBRANCH   1   2
BRANCH   1   8
HETATM    8  C5  UNL     1      -6.857   0.728  19.554  1.00  0.00     0.090 C 
BRANCH   8   9
HETATM    9  C6  UNL     1      -7.027   0.673  18.113  1.00  0.00     0.020 C 
HETATM   10  C7  UNL     1      -8.116   1.091  17.511  1.00  0.00    -0.083 C 
HETATM   11  C8  UNL     1      -9.238   1.652  18.291  1.00  0.00     0.043 C 
BRANCH  10  12
HETATM   12  C9  UNL     1      -8.232   0.941  16.037  1.00  0.00     0.034 C 
BRANCH  12  13
HETATM   13  C10 UNL     1      -9.645   1.255  15.573  1.00  0.00     0.005 C 
BRANCH  13  14
HETATM   14  C11 UNL     1      -9.662   2.186  14.421  1.00  0.00     0.004 C 
BRANCH  14  15
HETATM   15  C12 UNL     1     -10.530   1.691  13.302  1.00  0.00    -0.023 C 
HETATM   16  C13 UNL     1     -10.061   0.396  12.726  1.00  0.00     0.009 C 
HETATM   17  C14 UNL     1     -10.432   2.783  12.212  1.00  0.00     0.009 C 
ENDBRANCH  14  15
ENDBRANCH  13  14
ENDBRANCH  12  13
ENDBRANCH  10  12
ENDBRANCH   8   9
ENDBRANCH   1   8
BRANCH   1  18
HETATM   18  C15 UNL     1      -4.614   1.151  20.144  1.00  0.00     0.165 C 
BRANCH  18  19
HETATM   19  C16 UNL     1      -3.742   1.065  21.321  1.00  0.00    -0.040 A 
HETATM   20  C17 UNL     1      -2.359   0.966  21.205  1.00  0.00     0.009 A 
HETATM   21  C18 UNL     1      -1.530   0.884  22.295  1.00  0.00     0.001 A 
HETATM   22  C19 UNL     1      -2.043   0.893  23.574  1.00  0.00     0.000 A 
HETATM   23  C20 UNL     1      -3.416   0.992  23.715  1.00  0.00     0.001 A 
HETATM   24  C21 UNL     1      -4.242   1.076  22.598  1.00  0.00     0.009 A 
ENDBRANCH  18  19
ENDBRANCH   1  18
TORSDOF 12
ENDMDL
MODEL 5
REMARK VINA RESULT: -8.123943577      1.481      2.993
REMARK  12 active torsions:
REMARK  status: ('A' for Active; 'I' for Inactive)
REMARK    1  A    between atoms: C2_2  and  N1_3 
REMARK    2  A    between atoms: N1_3  and  C3_5 
REMARK    3  A    between atoms: C3_5  and  C4_6 
REMARK    4  A    between atoms: C4_6  and  N2_7 
REMARK    5  A    between atoms: N2_7  and  C5_8 
REMARK    6  A    between atoms: N2_7  and  C15_18 
REMARK    7  A    between atoms: C5_8  and  C6_9 
REMARK    8  A    between atoms: C7_10  and  C9_12 
REMARK    9  A    between atoms: C9_12  and  C10_13 
REMARK   10  A    between atoms: C10_13  and  C11_14 
REMARK   11  A    between atoms: C11_14  and  C12_15 
REMARK   12  A    between atoms: C15_18  and  C16_19 
ROOT
HETATM    1  N2  UNL     1      -3.965  -2.512  21.033  1.00  0.00    -0.364 N 
ENDROOT
BRANCH   1   2
HETATM    2  C4  UNL     1      -3.509  -3.815  20.761  1.00  0.00     0.083 C 
BRANCH   2   3
HETATM    3  C3  UNL     1      -3.608  -4.850  21.815  1.00  0.00     0.163 C 
BRANCH   3   4
HETATM    4  N1  UNL     1      -2.609  -5.851  21.711  1.00  0.00    -0.398 N 
ATOM      5  H1  UNL     1      -2.659  -6.510  20.934  1.00  0.00     0.158 HD
BRANCH   4   6
HETATM    6  C2  UNL     1      -1.567  -5.976  22.616  1.00  0.00     0.051 C 
HETATM    7  C1  UNL     1      -0.156  -6.006  22.151  1.00  0.00     0.054 C 
ENDBRANCH   4   6
ENDBRANCH   3   4
ENDBRANCH   2   3
ENDBRANCH   1   2
BRANCH   1   8
HETATM    8  C5  UNL     1      -5.270  -2.111  20.724  1.00  0.00     0.090 C 
BRANCH   8   9
HETATM    9  C6  UNL     1      -5.518  -1.090  19.721  1.00  0.00     0.020 C 
HETATM   10  C7  UNL     1      -6.105   0.050  19.999  1.00  0.00    -0.083 C 
HETATM   11  C8  UNL     1      -6.544   0.353  21.377  1.00  0.00     0.043 C 
BRANCH  10  12
HETATM   12  C9  UNL     1      -6.375   1.013  18.900  1.00  0.00     0.034 C 
BRANCH  12  13
HETATM   13  C10 UNL     1      -7.823   0.923  18.448  1.00  0.00     0.005 C 
BRANCH  13  14
HETATM   14  C11 UNL     1      -7.950   0.943  16.972  1.00  0.00     0.004 C 
BRANCH  14  15
HETATM   15  C12 UNL     1      -9.350   1.252  16.527  1.00  0.00    -0.023 C 
HETATM   16  C13 UNL     1      -9.401   2.184  15.362  1.00  0.00     0.009 C 
HETATM   17  C14 UNL     1     -10.009   1.943  17.744  1.00  0.00     0.009 C 
ENDBRANCH  14  15
ENDBRANCH  13  14
ENDBRANCH  12  13
ENDBRANCH  10  12
ENDBRANCH   8   9
ENDBRANCH   1   8
BRANCH   1  18
HETATM   18  C15 UNL     1      -2.986  -1.525  20.713  1.00  0.00     0.165 C 
BRANCH  18  19
HETATM   19  C16 UNL     1      -2.931  -0.411  21.665  1.00  0.00    -0.040 A 
HETATM   20  C17 UNL     1      -3.063  -0.608  23.036  1.00  0.00     0.009 A 
HETATM   21  C18 UNL     1      -3.015   0.423  23.939  1.00  0.00     0.001 A 
HETATM   22  C19 UNL     1      -2.833   1.722  23.517  1.00  0.00     0.000 A 
HETATM   23  C20 UNL     1      -2.698   1.945  22.158  1.00  0.00     0.001 A 
HETATM   24  C21 UNL     1      -2.747   0.886  21.256  1.00  0.00     0.009 A 
ENDBRANCH  18  19
ENDBRANCH   1  18
TORSDOF 12
ENDMDL
