MODEL 1
REMARK VINA RESULT: -6.655373169      0.000      0.000
REMARK  18 active torsions:
REMARK  status: ('A' for Active; 'I' for Inactive)
REMARK    1  A    between atoms: C2_2  and  C3_3 
REMARK    2  A    between atoms: C4_5  and  N1_6 
REMARK    3  A    between atoms: N1_6  and  N2_8 
REMARK    4  A    between atoms: N2_8  and  N3_9 
REMARK    5  A    between atoms: C5_12  and  O2_13 
REMARK    6  A    between atoms: O2_13  and  C6_14 
REMARK    7  A    between atoms: C8_17  and  C9_18 
REMARK    8  A    between atoms: C9_18  and  O4_19 
REMARK    9  A    between atoms: O4_19  and  C10_20 
REMARK   10  A    between atoms: C10_20  and  O5_21 
REMARK   11  A    between atoms: C10_20  and  C13_27 
REMARK   12  A    between atoms: O5_21  and  C11_22 
REMARK       I    between atoms: C11_22  and  N4_24 
REMARK   13  A    between atoms: C13_27  and  C14_28 
REMARK   14  A    between atoms: C13_27  and  O8_31 
REMARK   15  A    between atoms: C14_28  and  O7_29 
REMARK   16  A    between atoms: O8_31  and  C15_32 
REMARK   17  A    between atoms: C17_35  and  O10_36 
REMARK   18  A    between atoms: O10_36  and  C18_37 
ROOT
HETATM    1  C3  UNL     1      -4.837   3.542  12.949  1.00  0.00     0.176 C 
HETATM    2  O1  UNL     1      -4.177   4.686  13.194  1.00  0.00    -0.350 OA
HETATM    3  C4  UNL     1      -3.337   5.225  12.283  1.00  0.00     0.280 C 
HETATM    4  C5  UNL     1      -3.411   4.527  10.935  1.00  0.00     0.191 C 
HETATM    5  C8  UNL     1      -3.247   3.074  11.065  1.00  0.00     0.076 C 
HETATM    6  C17 UNL     1      -4.153   2.486  12.137  1.00  0.00     0.173 C 
ENDROOT
BRANCH   5   7
HETATM    7  C9  UNL     1      -1.844   2.611  11.259  1.00  0.00     0.181 C 
BRANCH   7   8
HETATM    8  O4  UNL     1      -0.894   3.210  10.635  1.00  0.00    -0.357 OA
BRANCH   8   9
HETATM    9  C10 UNL     1      -0.300   3.190   9.479  1.00  0.00     0.302 C 
BRANCH   9  10
HETATM   10  O5  UNL     1      -1.117   3.741   8.409  1.00  0.00    -0.270 OA
BRANCH  10  11
HETATM   11  C11 UNL     1      -0.557   4.316   7.288  1.00  0.00     0.362 C 
HETATM   12  O6  UNL     1      -0.748   5.512   7.008  1.00  0.00    -0.238 OA
HETATM   13  N4  UNL     1       0.261   3.535   6.419  1.00  0.00    -0.341 N 
HETATM   14  C12 UNL     1       0.859   4.111   5.239  1.00  0.00     0.151 C 
ATOM     15  H4  UNL     1       0.425   2.551   6.635  1.00  0.00     0.164 HD
ENDBRANCH  10  11
ENDBRANCH   9  10
BRANCH   9  16
HETATM   16  C13 UNL     1       0.957   4.093   9.566  1.00  0.00     0.211 C 
BRANCH  16  17
HETATM   17  C14 UNL     1       1.084   4.769  10.871  1.00  0.00     0.201 C 
BRANCH  17  18
HETATM   18  O7  UNL     1       0.151   5.801  10.950  1.00  0.00    -0.398 OA
ATOM     19  H7  UNL     1       0.531   6.596  10.599  1.00  0.00     0.209 HD
ENDBRANCH  17  18
ENDBRANCH  16  17
BRANCH  16  20
HETATM   20  O8  UNL     1       2.020   3.261   9.202  1.00  0.00    -0.309 OA
BRANCH  20  21
HETATM   21  C15 UNL     1       3.131   3.661   8.499  1.00  0.00     0.255 C 
HETATM   22  C16 UNL     1       3.303   5.021   7.928  1.00  0.00     0.126 C 
HETATM   23  O9  UNL     1       4.032   2.801   8.349  1.00  0.00    -0.266 OA
ENDBRANCH  20  21
ENDBRANCH  16  20
ENDBRANCH   9  16
ENDBRANCH   8   9
ENDBRANCH   7   8
ENDBRANCH   5   7
BRANCH   4  24
HETATM   24  O2  UNL     1      -4.779   4.799  10.488  1.00  0.00    -0.311 OA
BRANCH  24  25
HETATM   25  C6  UNL     1      -5.060   5.725   9.514  1.00  0.00     0.255 C 
HETATM   26  C7  UNL     1      -3.990   6.251   8.645  1.00  0.00     0.126 C 
HETATM   27  O3  UNL     1      -6.239   6.121   9.371  1.00  0.00    -0.266 OA
ENDBRANCH  24  25
ENDBRANCH   4  24
BRANCH   6  28
HETATM   28  O10 UNL     1      -5.157   1.748  11.473  1.00  0.00    -0.313 OA
BRANCH  28  29
HETATM   29  C18 UNL     1      -4.887   0.508  10.884  1.00  0.00     0.255 C 
HETATM   30  C19 UNL     1      -4.265  -0.616  11.594  1.00  0.00     0.126 C 
HETATM   31  O11 UNL     1      -5.213   0.392   9.675  1.00  0.00    -0.266 OA
ENDBRANCH  28  29
ENDBRANCH   6  28
BRANCH   3  32
HETATM   32  N1  UNL     1      -2.002   5.460  12.747  1.00  0.00    -0.220 N 
ATOM     33  H1  UNL     1      -1.439   6.148  12.247  1.00  0.00     0.200 HD
BRANCH  32  34
HETATM   34  N2  UNL     1      -1.489   4.887  13.710  1.00  0.00    -0.246 NA
BRANCH  34  35
HETATM   35  N3  UNL     1      -1.211   4.128  14.659  1.00  0.00    -0.261 N 
ATOM     36  H32 UNL     1      -2.181   4.099  14.973  1.00  0.00     0.193 HD
ATOM     37  H31 UNL     1      -0.755   3.527  15.344  1.00  0.00     0.193 HD
ENDBRANCH  34  35
ENDBRANCH  32  34
ENDBRANCH   3  32
BRANCH   1  38
HETATM   38  C2  UNL     1      -5.249   2.921  14.256  1.00  0.00    -0.003 C 
HETATM   39  C1  UNL     1      -4.408   2.114  14.865  1.00  0.00     0.009 C 
ENDBRANCH   1  38
TORSDOF 18
ENDMDL
MODEL 2
REMARK VINA RESULT: -6.613097660      3.211      6.500
REMARK  18 active torsions:
REMARK  status: ('A' for Active; 'I' for Inactive)
REMARK    1  A    between atoms: C2_2  and  C3_3 
REMARK    2  A    between atoms: C4_5  and  N1_6 
REMARK    3  A    between atoms: N1_6  and  N2_8 
REMARK    4  A    between atoms: N2_8  and  N3_9 
REMARK    5  A    between atoms: C5_12  and  O2_13 
REMARK    6  A    between atoms: O2_13  and  C6_14 
REMARK    7  A    between atoms: C8_17  and  C9_18 
REMARK    8  A    between atoms: C9_18  and  O4_19 
REMARK    9  A    between atoms: O4_19  and  C10_20 
REMARK   10  A    between atoms: C10_20  and  O5_21 
REMARK   11  A    between atoms: C10_20  and  C13_27 
REMARK   12  A    between atoms: O5_21  and  C11_22 
REMARK       I    between atoms: C11_22  and  N4_24 
REMARK   13  A    between atoms: C13_27  and  C14_28 
REMARK   14  A    between atoms: C13_27  and  O8_31 
REMARK   15  A    between atoms: C14_28  and  O7_29 
REMARK   16  A    between atoms: O8_31  and  C15_32 
REMARK   17  A    between atoms: C17_35  and  O10_36 
REMARK   18  A    between atoms: O10_36  and  C18_37 
ROOT
HETATM    1  C3  UNL     1      -3.151   6.589  13.178  1.00  0.00     0.176 C 
HETATM    2  O1  UNL     1      -2.052   5.840  13.368  1.00  0.00    -0.350 OA
HETATM    3  C4  UNL     1      -1.518   5.103  12.369  1.00  0.00     0.280 C 
HETATM    4  C5  UNL     1      -2.156   5.397  11.021  1.00  0.00     0.191 C 
HETATM    5  C8  UNL     1      -3.620   5.296  11.078  1.00  0.00     0.076 C 
HETATM    6  C17 UNL     1      -4.205   6.079  12.244  1.00  0.00     0.173 C 
ENDROOT
BRANCH   5   7
HETATM    7  C9  UNL     1      -4.159   3.907  11.062  1.00  0.00     0.181 C 
BRANCH   7   8
HETATM    8  O4  UNL     1      -4.751   3.454  12.109  1.00  0.00    -0.357 OA
BRANCH   8   9
HETATM    9  C10 UNL     1      -4.783   2.383  12.843  1.00  0.00     0.302 C 
BRANCH   9  10
HETATM   10  O5  UNL     1      -3.660   1.490  12.600  1.00  0.00    -0.270 OA
BRANCH  10  11
HETATM   11  C11 UNL     1      -3.771   0.388  11.779  1.00  0.00     0.362 C 
HETATM   12  O6  UNL     1      -3.647   0.482  10.546  1.00  0.00    -0.238 OA
HETATM   13  N4  UNL     1      -4.034  -0.897  12.342  1.00  0.00    -0.341 N 
HETATM   14  C12 UNL     1      -4.154  -2.067  11.506  1.00  0.00     0.151 C 
ATOM     15  H4  UNL     1      -4.139  -0.989  13.353  1.00  0.00     0.164 HD
ENDBRANCH  10  11
ENDBRANCH   9  10
BRANCH   9  16
HETATM   16  C13 UNL     1      -4.674   2.811  14.329  1.00  0.00     0.211 C 
BRANCH  16  17
HETATM   17  C14 UNL     1      -5.959   3.283  14.881  1.00  0.00     0.201 C 
BRANCH  17  18
HETATM   18  O7  UNL     1      -6.545   4.178  13.988  1.00  0.00    -0.398 OA
ATOM     19  H7  UNL     1      -7.137   3.707  13.414  1.00  0.00     0.209 HD
ENDBRANCH  17  18
ENDBRANCH  16  17
BRANCH  16  20
HETATM   20  O8  UNL     1      -4.096   1.716  14.976  1.00  0.00    -0.309 OA
BRANCH  20  21
HETATM   21  C15 UNL     1      -4.784   0.777  15.707  1.00  0.00     0.255 C 
HETATM   22  C16 UNL     1      -5.502   1.076  16.972  1.00  0.00     0.126 C 
HETATM   23  O9  UNL     1      -4.784  -0.391  15.249  1.00  0.00    -0.266 OA
ENDBRANCH  20  21
ENDBRANCH  16  20
ENDBRANCH   9  16
ENDBRANCH   8   9
ENDBRANCH   7   8
ENDBRANCH   5   7
BRANCH   4  24
HETATM   24  O2  UNL     1      -1.799   6.797  10.775  1.00  0.00    -0.311 OA
BRANCH  24  25
HETATM   25  C6  UNL     1      -1.959   7.387   9.546  1.00  0.00     0.255 C 
HETATM   26  C7  UNL     1      -2.637   8.691   9.420  1.00  0.00     0.126 C 
HETATM   27  O3  UNL     1      -1.520   6.804   8.529  1.00  0.00    -0.266 OA
ENDBRANCH  24  25
ENDBRANCH   4  24
BRANCH   6  28
HETATM   28  O10 UNL     1      -4.866   7.203  11.699  1.00  0.00    -0.313 OA
BRANCH  28  29
HETATM   29  C18 UNL     1      -6.257   7.333  11.754  1.00  0.00     0.255 C 
HETATM   30  C19 UNL     1      -7.031   8.207  10.865  1.00  0.00     0.126 C 
HETATM   31  O11 UNL     1      -6.839   6.645  12.631  1.00  0.00    -0.266 OA
ENDBRANCH  28  29
ENDBRANCH   6  28
BRANCH   3  32
HETATM   32  N1  UNL     1      -1.369   3.707  12.653  1.00  0.00    -0.220 N 
ATOM     33  H1  UNL     1      -1.529   3.397  13.612  1.00  0.00     0.200 HD
BRANCH  32  34
HETATM   34  N2  UNL     1      -1.060   2.856  11.818  1.00  0.00    -0.246 NA
BRANCH  34  35
HETATM   35  N3  UNL     1      -1.034   2.031  10.884  1.00  0.00    -0.261 N 
ATOM     36  H32 UNL     1      -2.046   2.067  10.769  1.00  0.00     0.193 HD
ATOM     37  H31 UNL     1      -0.769   1.360  10.163  1.00  0.00     0.193 HD
ENDBRANCH  34  35
ENDBRANCH  32  34
ENDBRANCH   3  32
BRANCH   1  38
HETATM   38  C2  UNL     1      -3.804   6.853  14.506  1.00  0.00    -0.003 C 
HETATM   39  C1  UNL     1      -3.342   7.832  15.254  1.00  0.00     0.009 C 
ENDBRANCH   1  38
TORSDOF 18
ENDMDL
MODEL 3
REMARK VINA RESULT: -6.466618952      2.662      6.473
REMARK  18 active torsions:
REMARK  status: ('A' for Active; 'I' for Inactive)
REMARK    1  A    between atoms: C2_2  and  C3_3 
REMARK    2  A    between atoms: C4_5  and  N1_6 
REMARK    3  A    between atoms: N1_6  and  N2_8 
REMARK    4  A    between atoms: N2_8  and  N3_9 
REMARK    5  A    between atoms: C5_12  and  O2_13 
REMARK    6  A    between atoms: O2_13  and  C6_14 
REMARK    7  A    between atoms: C8_17  and  C9_18 
REMARK    8  A    between atoms: C9_18  and  O4_19 
REMARK    9  A    between atoms: O4_19  and  C10_20 
REMARK   10  A    between atoms: C10_20  and  O5_21 
REMARK   11  A    between atoms: C10_20  and  C13_27 
REMARK   12  A    between atoms: O5_21  and  C11_22 
REMARK       I    between atoms: C11_22  and  N4_24 
REMARK   13  A    between atoms: C13_27  and  C14_28 
REMARK   14  A    between atoms: C13_27  and  O8_31 
REMARK   15  A    between atoms: C14_28  and  O7_29 
REMARK   16  A    between atoms: O8_31  and  C15_32 
REMARK   17  A    between atoms: C17_35  and  O10_36 
REMARK   18  A    between atoms: O10_36  and  C18_37 
ROOT
HETATM    1  C3  UNL     1      -3.122   6.894  11.725  1.00  0.00     0.176 C 
HETATM    2  O1  UNL     1      -2.039   6.233  12.166  1.00  0.00    -0.350 OA
HETATM    3  C4  UNL     1      -1.518   5.193  11.478  1.00  0.00     0.280 C 
HETATM    4  C5  UNL     1      -2.146   5.029  10.103  1.00  0.00     0.191 C 
HETATM    5  C8  UNL     1      -3.611   4.981  10.177  1.00  0.00     0.076 C 
HETATM    6  C17 UNL     1      -4.183   6.121  11.006  1.00  0.00     0.173 C 
ENDROOT
BRANCH   5   7
HETATM    7  C9  UNL     1      -4.180   3.677  10.623  1.00  0.00     0.181 C 
BRANCH   7   8
HETATM    8  O4  UNL     1      -4.443   3.503  11.868  1.00  0.00    -0.357 OA
BRANCH   8   9
HETATM    9  C10 UNL     1      -4.624   2.537  12.718  1.00  0.00     0.302 C 
BRANCH   9  10
HETATM   10  O5  UNL     1      -3.540   1.566  12.717  1.00  0.00    -0.270 OA
BRANCH  10  11
HETATM   11  C11 UNL     1      -3.746   0.245  12.383  1.00  0.00     0.362 C 
HETATM   12  O6  UNL     1      -4.544  -0.468  13.016  1.00  0.00    -0.238 OA
HETATM   13  N4  UNL     1      -3.035  -0.334  11.290  1.00  0.00    -0.341 N 
HETATM   14  C12 UNL     1      -3.231  -1.715  10.919  1.00  0.00     0.151 C 
ATOM     15  H4  UNL     1      -2.375   0.238  10.762  1.00  0.00     0.164 HD
ENDBRANCH  10  11
ENDBRANCH   9  10
BRANCH   9  16
HETATM   16  C13 UNL     1      -4.652   3.145  14.144  1.00  0.00     0.211 C 
BRANCH  16  17
HETATM   17  C14 UNL     1      -5.208   4.511  14.169  1.00  0.00     0.201 C 
BRANCH  17  18
HETATM   18  O7  UNL     1      -6.553   4.470  13.809  1.00  0.00    -0.398 OA
ATOM     19  H7  UNL     1      -7.080   4.297  14.580  1.00  0.00     0.209 HD
ENDBRANCH  17  18
ENDBRANCH  16  17
BRANCH  16  20
HETATM   20  O8  UNL     1      -5.323   2.198  14.923  1.00  0.00    -0.309 OA
BRANCH  20  21
HETATM   21  C15 UNL     1      -4.795   1.563  16.022  1.00  0.00     0.255 C 
HETATM   22  C16 UNL     1      -5.611   1.048  17.151  1.00  0.00     0.126 C 
HETATM   23  O9  UNL     1      -3.548   1.428  16.039  1.00  0.00    -0.266 OA
ENDBRANCH  20  21
ENDBRANCH  16  20
ENDBRANCH   9  16
ENDBRANCH   8   9
ENDBRANCH   7   8
ENDBRANCH   5   7
BRANCH   4  24
HETATM   24  O2  UNL     1      -1.759   6.258   9.406  1.00  0.00    -0.311 OA
BRANCH  24  25
HETATM   25  C6  UNL     1      -0.498   6.441   8.892  1.00  0.00     0.255 C 
HETATM   26  C7  UNL     1       0.322   7.594   9.307  1.00  0.00     0.126 C 
HETATM   27  O3  UNL     1      -0.052   5.614   8.065  1.00  0.00    -0.266 OA
ENDBRANCH  24  25
ENDBRANCH   4  24
BRANCH   6  28
HETATM   28  O10 UNL     1      -4.819   7.008  10.110  1.00  0.00    -0.313 OA
BRANCH  28  29
HETATM   29  C18 UNL     1      -6.212   7.117  10.048  1.00  0.00     0.255 C 
HETATM   30  C19 UNL     1      -6.991   8.079  10.836  1.00  0.00     0.126 C 
HETATM   31  O11 UNL     1      -6.790   6.326   9.261  1.00  0.00    -0.266 OA
ENDBRANCH  28  29
ENDBRANCH   6  28
BRANCH   3  32
HETATM   32  N1  UNL     1      -1.399   3.971  12.216  1.00  0.00    -0.220 N 
ATOM     33  H1  UNL     1      -1.339   3.100  11.687  1.00  0.00     0.200 HD
BRANCH  32  34
HETATM   34  N2  UNL     1      -1.364   3.901  13.446  1.00  0.00    -0.246 NA
BRANCH  34  35
HETATM   35  N3  UNL     1      -1.257   4.122  14.667  1.00  0.00    -0.261 N 
ATOM     36  H32 UNL     1      -0.529   3.415  14.773  1.00  0.00     0.193 HD
ATOM     37  H31 UNL     1      -1.346   4.469  15.622  1.00  0.00     0.193 HD
ENDBRANCH  34  35
ENDBRANCH  32  34
ENDBRANCH   3  32
BRANCH   1  38
HETATM   38  C2  UNL     1      -3.772   7.602  12.881  1.00  0.00    -0.003 C 
HETATM   39  C1  UNL     1      -3.158   7.610  14.045  1.00  0.00     0.009 C 
ENDBRANCH   1  38
TORSDOF 18
ENDMDL
MODEL 4
REMARK VINA RESULT: -6.425692741      2.722      6.430
REMARK  18 active torsions:
REMARK  status: ('A' for Active; 'I' for Inactive)
REMARK    1  A    between atoms: C2_2  and  C3_3 
REMARK    2  A    between atoms: C4_5  and  N1_6 
REMARK    3  A    between atoms: N1_6  and  N2_8 
REMARK    4  A    between atoms: N2_8  and  N3_9 
REMARK    5  A    between atoms: C5_12  and  O2_13 
REMARK    6  A    between atoms: O2_13  and  C6_14 
REMARK    7  A    between atoms: C8_17  and  C9_18 
REMARK    8  A    between atoms: C9_18  and  O4_19 
REMARK    9  A    between atoms: O4_19  and  C10_20 
REMARK   10  A    between atoms: C10_20  and  O5_21 
REMARK   11  A    between atoms: C10_20  and  C13_27 
REMARK   12  A    between atoms: O5_21  and  C11_22 
REMARK       I    between atoms: C11_22  and  N4_24 
REMARK   13  A    between atoms: C13_27  and  C14_28 
REMARK   14  A    between atoms: C13_27  and  O8_31 
REMARK   15  A    between atoms: C14_28  and  O7_29 
REMARK   16  A    between atoms: O8_31  and  C15_32 
REMARK   17  A    between atoms: C17_35  and  O10_36 
REMARK   18  A    between atoms: O10_36  and  C18_37 
ROOT
HETATM    1  C3  UNL     1      -1.363   6.935  10.842  1.00  0.00     0.176 C 
HETATM    2  O1  UNL     1      -0.384   6.344  10.136  1.00  0.00    -0.350 OA
HETATM    3  C4  UNL     1      -0.582   5.165   9.505  1.00  0.00     0.280 C 
HETATM    4  C5  UNL     1      -2.041   4.738   9.509  1.00  0.00     0.191 C 
HETATM    5  C8  UNL     1      -2.610   4.757  10.862  1.00  0.00     0.076 C 
HETATM    6  C17 UNL     1      -2.328   6.065  11.586  1.00  0.00     0.173 C 
ENDROOT
BRANCH   5   7
HETATM    7  C9  UNL     1      -2.239   3.597  11.720  1.00  0.00     0.181 C 
BRANCH   7   8
HETATM    8  O4  UNL     1      -3.166   2.942  12.323  1.00  0.00    -0.357 OA
BRANCH   8   9
HETATM    9  C10 UNL     1      -4.422   3.061  12.634  1.00  0.00     0.302 C 
BRANCH   9  10
HETATM   10  O5  UNL     1      -5.248   1.994  12.089  1.00  0.00    -0.270 OA
BRANCH  10  11
HETATM   11  C11 UNL     1      -4.716   0.985  11.316  1.00  0.00     0.362 C 
HETATM   12  O6  UNL     1      -4.959   0.902  10.099  1.00  0.00    -0.238 OA
HETATM   13  N4  UNL     1      -3.867   0.004  11.909  1.00  0.00    -0.341 N 
HETATM   14  C12 UNL     1      -3.297  -1.064  11.123  1.00  0.00     0.151 C 
ATOM     15  H4  UNL     1      -3.660   0.058  12.907  1.00  0.00     0.164 HD
ENDBRANCH  10  11
ENDBRANCH   9  10
BRANCH   9  16
HETATM   16  C13 UNL     1      -4.551   2.957  14.175  1.00  0.00     0.211 C 
BRANCH  16  17
HETATM   17  C14 UNL     1      -5.923   3.218  14.651  1.00  0.00     0.201 C 
BRANCH  17  18
HETATM   18  O7  UNL     1      -6.521   4.175  13.834  1.00  0.00    -0.398 OA
ATOM     19  H7  UNL     1      -6.166   4.105  12.956  1.00  0.00     0.209 HD
ENDBRANCH  17  18
ENDBRANCH  16  17
BRANCH  16  20
HETATM   20  O8  UNL     1      -4.021   1.703  14.494  1.00  0.00    -0.309 OA
BRANCH  20  21
HETATM   21  C15 UNL     1      -4.606   0.790  15.338  1.00  0.00     0.255 C 
HETATM   22  C16 UNL     1      -4.996   1.090  16.739  1.00  0.00     0.126 C 
HETATM   23  O9  UNL     1      -4.807  -0.354  14.864  1.00  0.00    -0.266 OA
ENDBRANCH  20  21
ENDBRANCH  16  20
ENDBRANCH   9  16
ENDBRANCH   8   9
ENDBRANCH   7   8
ENDBRANCH   5   7
BRANCH   4  24
HETATM   24  O2  UNL     1      -2.700   5.779   8.716  1.00  0.00    -0.311 OA
BRANCH  24  25
HETATM   25  C6  UNL     1      -3.631   5.483   7.751  1.00  0.00     0.255 C 
HETATM   26  C7  UNL     1      -4.960   6.123   7.767  1.00  0.00     0.126 C 
HETATM   27  O3  UNL     1      -3.337   4.662   6.853  1.00  0.00    -0.266 OA
ENDBRANCH  24  25
ENDBRANCH   4  24
BRANCH   6  28
HETATM   28  O10 UNL     1      -3.551   6.766  11.670  1.00  0.00    -0.313 OA
BRANCH  28  29
HETATM   29  C18 UNL     1      -4.361   6.695  12.808  1.00  0.00     0.255 C 
HETATM   30  C19 UNL     1      -3.845   6.731  14.182  1.00  0.00     0.126 C 
HETATM   31  O11 UNL     1      -5.596   6.594  12.597  1.00  0.00    -0.266 OA
ENDBRANCH  28  29
ENDBRANCH   6  28
BRANCH   3  32
HETATM   32  N1  UNL     1       0.333   4.122   9.859  1.00  0.00    -0.220 N 
ATOM     33  H1  UNL     1       0.267   3.239   9.352  1.00  0.00     0.200 HD
BRANCH  32  34
HETATM   34  N2  UNL     1       1.195   4.219  10.734  1.00  0.00    -0.246 NA
BRANCH  34  35
HETATM   35  N3  UNL     1       2.048   4.611  11.555  1.00  0.00    -0.261 N 
ATOM     36  H32 UNL     1       1.734   3.945  12.261  1.00  0.00     0.193 HD
ATOM     37  H31 UNL     1       2.807   5.085  12.043  1.00  0.00     0.193 HD
ENDBRANCH  34  35
ENDBRANCH  32  34
ENDBRANCH   3  32
BRANCH   1  38
HETATM   38  C2  UNL     1      -0.751   7.891  11.828  1.00  0.00    -0.003 C 
HETATM   39  C1  UNL     1      -0.306   7.421  12.972  1.00  0.00     0.009 C 
ENDBRANCH   1  38
TORSDOF 18
ENDMDL
MODEL 5
REMARK VINA RESULT: -6.417338027      3.286      6.897
REMARK  18 active torsions:
REMARK  status: ('A' for Active; 'I' for Inactive)
REMARK    1  A    between atoms: C2_2  and  C3_3 
REMARK    2  A    between atoms: C4_5  and  N1_6 
REMARK    3  A    between atoms: N1_6  and  N2_8 
REMARK    4  A    between atoms: N2_8  and  N3_9 
REMARK    5  A    between atoms: C5_12  and  O2_13 
REMARK    6  A    between atoms: O2_13  and  C6_14 
REMARK    7  A    between atoms: C8_17  and  C9_18 
REMARK    8  A    between atoms: C9_18  and  O4_19 
REMARK    9  A    between atoms: O4_19  and  C10_20 
REMARK   10  A    between atoms: C10_20  and  O5_21 
REMARK   11  A    between atoms: C10_20  and  C13_27 
REMARK   12  A    between atoms: O5_21  and  C11_22 
REMARK       I    between atoms: C11_22  and  N4_24 
REMARK   13  A    between atoms: C13_27  and  C14_28 
REMARK   14  A    between atoms: C13_27  and  O8_31 
REMARK   15  A    between atoms: C14_28  and  O7_29 
REMARK   16  A    between atoms: O8_31  and  C15_32 
REMARK   17  A    between atoms: C17_35  and  O10_36 
REMARK   18  A    between atoms: O10_36  and  C18_37 
ROOT
HETATM    1  C3  UNL     1      -1.596   7.568  11.548  1.00  0.00     0.176 C 
HETATM    2  O1  UNL     1      -1.622   6.677  10.542  1.00  0.00    -0.350 OA
HETATM    3  C4  UNL     1      -2.610   5.762  10.436  1.00  0.00     0.280 C 
HETATM    4  C5  UNL     1      -3.745   6.010  11.417  1.00  0.00     0.191 C 
HETATM    5  C8  UNL     1      -3.252   6.152  12.793  1.00  0.00     0.076 C 
HETATM    6  C17 UNL     1      -2.098   7.138  12.891  1.00  0.00     0.173 C 
ENDROOT
BRANCH   5   7
HETATM    7  C9  UNL     1      -2.904   4.874  13.475  1.00  0.00     0.181 C 
BRANCH   7   8
HETATM    8  O4  UNL     1      -3.488   3.790  13.110  1.00  0.00    -0.357 OA
BRANCH   8   9
HETATM    9  C10 UNL     1      -4.657   3.227  13.164  1.00  0.00     0.302 C 
BRANCH   9  10
HETATM   10  O5  UNL     1      -4.646   1.844  12.711  1.00  0.00    -0.270 OA
BRANCH  10  11
HETATM   11  C11 UNL     1      -3.986   1.459  11.564  1.00  0.00     0.362 C 
HETATM   12  O6  UNL     1      -4.570   1.399  10.468  1.00  0.00    -0.238 OA
HETATM   13  N4  UNL     1      -2.602   1.117  11.619  1.00  0.00    -0.341 N 
HETATM   14  C12 UNL     1      -1.886   0.711  10.433  1.00  0.00     0.151 C 
ATOM     15  H4  UNL     1      -2.110   1.160  12.511  1.00  0.00     0.164 HD
ENDBRANCH  10  11
ENDBRANCH   9  10
BRANCH   9  16
HETATM   16  C13 UNL     1      -5.107   3.187  14.648  1.00  0.00     0.211 C 
BRANCH  16  17
HETATM   17  C14 UNL     1      -6.318   3.992  14.897  1.00  0.00     0.201 C 
BRANCH  17  18
HETATM   18  O7  UNL     1      -6.547   4.832  13.810  1.00  0.00    -0.398 OA
ATOM     19  H7  UNL     1      -6.023   5.619  13.905  1.00  0.00     0.209 HD
ENDBRANCH  17  18
ENDBRANCH  16  17
BRANCH  16  20
HETATM   20  O8  UNL     1      -5.201   1.827  14.956  1.00  0.00    -0.309 OA
BRANCH  20  21
HETATM   21  C15 UNL     1      -4.791   1.255  16.136  1.00  0.00     0.255 C 
HETATM   22  C16 UNL     1      -5.720   0.806  17.204  1.00  0.00     0.126 C 
HETATM   23  O9  UNL     1      -3.553   1.119  16.286  1.00  0.00    -0.266 OA
ENDBRANCH  20  21
ENDBRANCH  16  20
ENDBRANCH   9  16
ENDBRANCH   8   9
ENDBRANCH   7   8
ENDBRANCH   5   7
BRANCH   4  24
HETATM   24  O2  UNL     1      -4.289   7.300  10.986  1.00  0.00    -0.311 OA
BRANCH  24  25
HETATM   25  C6  UNL     1      -5.610   7.631  11.160  1.00  0.00     0.255 C 
HETATM   26  C7  UNL     1      -6.107   8.967  10.783  1.00  0.00     0.126 C 
HETATM   27  O3  UNL     1      -6.392   6.781  11.644  1.00  0.00    -0.266 OA
ENDBRANCH  24  25
ENDBRANCH   4  24
BRANCH   6  28
HETATM   28  O10 UNL     1      -2.589   8.289  13.546  1.00  0.00    -0.313 OA
BRANCH  28  29
HETATM   29  C18 UNL     1      -2.157   8.645  14.828  1.00  0.00     0.255 C 
HETATM   30  C19 UNL     1      -3.035   8.686  16.003  1.00  0.00     0.126 C 
HETATM   31  O11 UNL     1      -0.940   8.940  14.935  1.00  0.00    -0.266 OA
ENDBRANCH  28  29
ENDBRANCH   6  28
BRANCH   3  32
HETATM   32  N1  UNL     1      -2.176   4.398  10.377  1.00  0.00    -0.220 N 
ATOM     33  H1  UNL     1      -2.821   3.710   9.986  1.00  0.00     0.200 HD
BRANCH  32  34
HETATM   34  N2  UNL     1      -1.077   4.000  10.766  1.00  0.00    -0.246 NA
BRANCH  34  35
HETATM   35  N3  UNL     1      -0.043   3.742  11.412  1.00  0.00    -0.261 N 
ATOM     36  H32 UNL     1      -0.322   2.771  11.550  1.00  0.00     0.193 HD
ATOM     37  H31 UNL     1       0.853   3.768  11.897  1.00  0.00     0.193 HD
ENDBRANCH  34  35
ENDBRANCH  32  34
ENDBRANCH   3  32
BRANCH   1  38
HETATM   38  C2  UNL     1      -0.190   8.073  11.722  1.00  0.00    -0.003 C 
HETATM   39  C1  UNL     1       0.779   7.200  11.896  1.00  0.00     0.009 C 
ENDBRANCH   1  38
TORSDOF 18
ENDMDL
