MODEL 1
REMARK VINA RESULT: -7.387189728      0.000      0.000
REMARK  3 active torsions:
REMARK  status: ('A' for Active; 'I' for Inactive)
REMARK    1  A    between atoms: S1_2  and  C2_3 
REMARK       I    between atoms: N3_9  and  C4_11 
REMARK    2  A    between atoms: C4_11  and  C5_13 
REMARK    3  A    between atoms: C5_13  and  N4_14 
ROOT
HETATM    1  N4  UNL     1      47.543  49.129  32.074  1.00  0.00    -0.273 N 
HETATM    2  C6  UNL     1      48.393  48.145  32.634  1.00  0.00     0.242 C 
HETATM    3  O2  UNL     1      49.173  48.324  33.589  1.00  0.00    -0.272 OA
HETATM    4  C7  UNL     1      48.184  46.915  31.897  1.00  0.00     0.118 C 
HETATM    5  C8  UNL     1      47.544  45.777  32.663  1.00  0.00     0.029 C 
HETATM    6  C9  UNL     1      48.617  44.865  32.120  1.00  0.00     0.013 C 
HETATM    7  C10 UNL     1      49.295  46.050  31.536  1.00  0.00    -0.009 A 
HETATM    8  C11 UNL     1      49.976  46.033  30.232  1.00  0.00     0.021 A 
HETATM    9  C12 UNL     1      50.706  46.268  31.576  1.00  0.00    -0.038 A 
HETATM   10  C13 UNL     1      51.576  45.079  32.013  1.00  0.00     0.015 C 
HETATM   11  C14 UNL     1      51.431  47.575  31.615  1.00  0.00     0.015 C 
HETATM   12  C15 UNL     1      47.271  47.280  30.755  1.00  0.00     0.239 C 
HETATM   13  O3  UNL     1      47.164  46.682  29.682  1.00  0.00    -0.288 OA
HETATM   14  C16 UNL     1      46.553  48.482  31.199  1.00  0.00     0.389 C 
HETATM   15  F1  UNL     1      46.172  49.306  30.173  1.00  0.00    -0.174 F 
HETATM   16  F2  UNL     1      45.477  48.184  32.019  1.00  0.00    -0.174 F 
ENDROOT
BRANCH   1  17
HETATM   17  C5  UNL     1      47.557  50.564  32.262  1.00  0.00     0.235 C 
BRANCH  17  18
HETATM   18  C4  UNL     1      46.957  50.956  33.561  1.00  0.00     0.241 C 
HETATM   19  N3  UNL     1      47.742  51.404  34.652  1.00  0.00    -0.305 N 
HETATM   20  C3  UNL     1      47.769  50.663  35.736  1.00  0.00     0.168 A 
ATOM     21  H3  UNL     1      48.270  52.275  34.597  1.00  0.00     0.171 HD
HETATM   22  N2  UNL     1      47.135  49.507  35.955  1.00  0.00    -0.278 N 
HETATM   23  S2  UNL     1      48.594  50.896  37.215  1.00  0.00    -0.026 SA
HETATM   24  N1  UNL     1      47.288  48.936  37.079  1.00  0.00    -0.286 N 
ATOM     25  H2  UNL     1      46.543  49.092  35.235  1.00  0.00     0.189 HD
HETATM   26  C2  UNL     1      48.060  49.482  38.005  1.00  0.00     0.129 A 
ATOM     27  H1  UNL     1      46.813  48.053  37.269  1.00  0.00     0.188 HD
HETATM   28  O1  UNL     1      45.701  50.878  33.669  1.00  0.00    -0.271 OA
BRANCH  26  29
HETATM   29  S1  UNL     1      48.410  48.839  39.659  1.00  0.00    -0.108 SA
HETATM   30  C1  UNL     1      46.881  48.124  40.318  1.00  0.00     0.097 C 
ENDBRANCH  26  29
ENDBRANCH  17  18
ENDBRANCH   1  17
TORSDOF 3
ENDMDL
MODEL 2
REMARK VINA RESULT: -7.340311605      2.576      3.650
REMARK  3 active torsions:
REMARK  status: ('A' for Active; 'I' for Inactive)
REMARK    1  A    between atoms: S1_2  and  C2_3 
REMARK       I    between atoms: N3_9  and  C4_11 
REMARK    2  A    between atoms: C4_11  and  C5_13 
REMARK    3  A    between atoms: C5_13  and  N4_14 
ROOT
HETATM    1  N4  UNL     1      45.486  51.102  31.915  1.00  0.00    -0.273 N 
HETATM    2  C6  UNL     1      45.374  49.752  31.506  1.00  0.00     0.242 C 
HETATM    3  O2  UNL     1      45.307  48.770  32.270  1.00  0.00    -0.272 OA
HETATM    4  C7  UNL     1      45.352  49.733  30.057  1.00  0.00     0.118 C 
HETATM    5  C8  UNL     1      44.056  49.292  29.413  1.00  0.00     0.029 C 
HETATM    6  C9  UNL     1      44.860  48.382  28.517  1.00  0.00     0.013 C 
HETATM    7  C10 UNL     1      46.074  48.723  29.302  1.00  0.00    -0.009 A 
HETATM    8  C11 UNL     1      47.405  48.895  28.700  1.00  0.00     0.021 A 
HETATM    9  C12 UNL     1      47.059  47.772  29.707  1.00  0.00    -0.038 A 
HETATM   10  C13 UNL     1      46.981  46.379  29.064  1.00  0.00     0.015 C 
HETATM   11  C14 UNL     1      47.922  47.811  30.928  1.00  0.00     0.015 C 
HETATM   12  C15 UNL     1      45.624  51.154  29.632  1.00  0.00     0.239 C 
HETATM   13  O3  UNL     1      46.092  51.519  28.552  1.00  0.00    -0.288 OA
HETATM   14  C16 UNL     1      45.214  51.986  30.771  1.00  0.00     0.389 C 
HETATM   15  F1  UNL     1      45.904  53.165  30.868  1.00  0.00    -0.174 F 
HETATM   16  F2  UNL     1      43.847  52.211  30.798  1.00  0.00    -0.174 F 
ENDROOT
BRANCH   1  17
HETATM   17  C5  UNL     1      45.810  51.639  33.220  1.00  0.00     0.235 C 
BRANCH  17  18
HETATM   18  C4  UNL     1      47.041  51.027  33.778  1.00  0.00     0.241 C 
HETATM   19  N3  UNL     1      47.012  49.838  34.547  1.00  0.00    -0.305 N 
HETATM   20  C3  UNL     1      47.372  49.912  35.808  1.00  0.00     0.168 A 
ATOM     21  H3  UNL     1      46.720  48.952  34.135  1.00  0.00     0.171 HD
HETATM   22  N2  UNL     1      47.775  50.992  36.484  1.00  0.00    -0.278 N 
HETATM   23  S2  UNL     1      47.456  48.697  37.008  1.00  0.00    -0.026 SA
HETATM   24  N1  UNL     1      48.084  50.861  37.708  1.00  0.00    -0.286 N 
ATOM     25  H2  UNL     1      47.832  51.902  36.026  1.00  0.00     0.189 HD
HETATM   26  C2  UNL     1      48.004  49.675  38.292  1.00  0.00     0.129 A 
ATOM     27  H1  UNL     1      48.395  51.671  38.244  1.00  0.00     0.188 HD
HETATM   28  O1  UNL     1      48.137  51.607  33.542  1.00  0.00    -0.271 OA
BRANCH  26  29
HETATM   29  S1  UNL     1      48.394  49.273  40.012  1.00  0.00    -0.108 SA
HETATM   30  C1  UNL     1      47.155  48.091  40.607  1.00  0.00     0.097 C 
ENDBRANCH  26  29
ENDBRANCH  17  18
ENDBRANCH   1  17
TORSDOF 3
ENDMDL
MODEL 3
REMARK VINA RESULT: -7.246762122      3.249      4.286
REMARK  3 active torsions:
REMARK  status: ('A' for Active; 'I' for Inactive)
REMARK    1  A    between atoms: S1_2  and  C2_3 
REMARK       I    between atoms: N3_9  and  C4_11 
REMARK    2  A    between atoms: C4_11  and  C5_13 
REMARK    3  A    between atoms: C5_13  and  N4_14 
ROOT
HETATM    1  N4  UNL     1      46.124  50.493  32.372  1.00  0.00    -0.273 N 
HETATM    2  C6  UNL     1      46.607  50.170  31.081  1.00  0.00     0.242 C 
HETATM    3  O2  UNL     1      47.757  50.403  30.662  1.00  0.00    -0.272 OA
HETATM    4  C7  UNL     1      45.527  49.532  30.355  1.00  0.00     0.118 C 
HETATM    5  C8  UNL     1      45.722  48.070  30.015  1.00  0.00     0.029 C 
HETATM    6  C9  UNL     1      45.281  48.383  28.607  1.00  0.00     0.013 C 
HETATM    7  C10 UNL     1      45.276  49.827  28.955  1.00  0.00    -0.009 A 
HETATM    8  C11 UNL     1      44.276  50.779  28.448  1.00  0.00     0.021 A 
HETATM    9  C12 UNL     1      45.783  50.858  28.107  1.00  0.00    -0.038 A 
HETATM   10  C13 UNL     1      46.101  50.465  26.656  1.00  0.00     0.015 C 
HETATM   11  C14 UNL     1      46.395  52.160  28.513  1.00  0.00     0.015 C 
HETATM   12  C15 UNL     1      44.319  49.645  31.251  1.00  0.00     0.239 C 
HETATM   13  O3  UNL     1      43.139  49.619  30.896  1.00  0.00    -0.288 OA
HETATM   14  C16 UNL     1      44.855  49.789  32.611  1.00  0.00     0.389 C 
HETATM   15  F1  UNL     1      44.037  50.495  33.453  1.00  0.00    -0.174 F 
HETATM   16  F2  UNL     1      45.209  48.573  33.172  1.00  0.00    -0.174 F 
ENDROOT
BRANCH   1  17
HETATM   17  C5  UNL     1      46.703  51.361  33.374  1.00  0.00     0.235 C 
BRANCH  17  18
HETATM   18  C4  UNL     1      47.808  50.697  34.108  1.00  0.00     0.241 C 
HETATM   19  N3  UNL     1      47.589  49.588  34.962  1.00  0.00    -0.305 N 
HETATM   20  C3  UNL     1      47.827  49.743  36.245  1.00  0.00     0.168 A 
ATOM     21  H3  UNL     1      47.256  48.698  34.593  1.00  0.00     0.171 HD
HETATM   22  N2  UNL     1      48.262  50.841  36.871  1.00  0.00    -0.278 N 
HETATM   23  S2  UNL     1      47.674  48.637  37.539  1.00  0.00    -0.026 SA
HETATM   24  N1  UNL     1      48.433  50.792  38.129  1.00  0.00    -0.286 N 
ATOM     25  H2  UNL     1      48.451  51.698  36.352  1.00  0.00     0.189 HD
HETATM   26  C2  UNL     1      48.183  49.674  38.793  1.00  0.00     0.129 A 
ATOM     27  H1  UNL     1      48.766  51.616  38.629  1.00  0.00     0.188 HD
HETATM   28  O1  UNL     1      48.973  51.157  33.946  1.00  0.00    -0.271 OA
BRANCH  26  29
HETATM   29  S1  UNL     1      48.359  49.395  40.572  1.00  0.00    -0.108 SA
HETATM   30  C1  UNL     1      47.618  47.788  40.964  1.00  0.00     0.097 C 
ENDBRANCH  26  29
ENDBRANCH  17  18
ENDBRANCH   1  17
TORSDOF 3
ENDMDL
MODEL 4
REMARK VINA RESULT: -7.199790184      2.736      4.154
REMARK  3 active torsions:
REMARK  status: ('A' for Active; 'I' for Inactive)
REMARK    1  A    between atoms: S1_2  and  C2_3 
REMARK       I    between atoms: N3_9  and  C4_11 
REMARK    2  A    between atoms: C4_11  and  C5_13 
REMARK    3  A    between atoms: C5_13  and  N4_14 
ROOT
HETATM    1  N4  UNL     1      46.166  50.069  33.743  1.00  0.00    -0.273 N 
HETATM    2  C6  UNL     1      45.955  48.834  33.085  1.00  0.00     0.242 C 
HETATM    3  O2  UNL     1      45.517  47.797  33.621  1.00  0.00    -0.272 OA
HETATM    4  C7  UNL     1      46.338  49.004  31.698  1.00  0.00     0.118 C 
HETATM    5  C8  UNL     1      45.221  48.923  30.681  1.00  0.00     0.029 C 
HETATM    6  C9  UNL     1      46.085  47.989  29.869  1.00  0.00     0.013 C 
HETATM    7  C10 UNL     1      47.068  47.971  30.982  1.00  0.00    -0.009 A 
HETATM    8  C11 UNL     1      48.524  47.941  30.776  1.00  0.00     0.021 A 
HETATM    9  C12 UNL     1      47.731  46.794  31.448  1.00  0.00    -0.038 A 
HETATM   10  C13 UNL     1      47.610  45.540  30.569  1.00  0.00     0.015 C 
HETATM   11  C14 UNL     1      48.210  46.501  32.833  1.00  0.00     0.015 C 
HETATM   12  C15 UNL     1      46.947  50.381  31.615  1.00  0.00     0.239 C 
HETATM   13  O3  UNL     1      47.753  50.775  30.770  1.00  0.00    -0.288 OA
HETATM   14  C16 UNL     1      46.375  51.128  32.743  1.00  0.00     0.389 C 
HETATM   15  F1  UNL     1      47.193  52.118  33.219  1.00  0.00    -0.174 F 
HETATM   16  F2  UNL     1      45.112  51.623  32.464  1.00  0.00    -0.174 F 
ENDROOT
BRANCH   1  17
HETATM   17  C5  UNL     1      46.194  50.358  35.161  1.00  0.00     0.235 C 
BRANCH  17  18
HETATM   18  C4  UNL     1      47.399  49.791  35.816  1.00  0.00     0.241 C 
HETATM   19  N3  UNL     1      48.602  50.527  35.950  1.00  0.00    -0.305 N 
HETATM   20  C3  UNL     1      49.663  50.095  35.307  1.00  0.00     0.168 A 
ATOM     21  H3  UNL     1      48.644  51.367  36.528  1.00  0.00     0.171 HD
HETATM   22  N2  UNL     1      49.762  49.021  34.518  1.00  0.00    -0.278 N 
HETATM   23  S2  UNL     1      51.251  50.725  35.244  1.00  0.00    -0.026 SA
HETATM   24  N1  UNL     1      50.884  48.766  33.980  1.00  0.00    -0.286 N 
ATOM     25  H2  UNL     1      48.955  48.420  34.351  1.00  0.00     0.189 HD
HETATM   26  C2  UNL     1      51.925  49.554  34.203  1.00  0.00     0.129 A 
ATOM     27  H1  UNL     1      50.985  47.951  33.376  1.00  0.00     0.188 HD
HETATM   28  O1  UNL     1      47.320  48.612  36.259  1.00  0.00    -0.271 OA
BRANCH  26  29
HETATM   29  S1  UNL     1      53.598  49.372  33.541  1.00  0.00    -0.108 SA
HETATM   30  C1  UNL     1      54.296  47.832  34.193  1.00  0.00     0.097 C 
ENDBRANCH  26  29
ENDBRANCH  17  18
ENDBRANCH   1  17
TORSDOF 3
ENDMDL
MODEL 5
REMARK VINA RESULT: -7.093967293      3.230      4.715
REMARK  3 active torsions:
REMARK  status: ('A' for Active; 'I' for Inactive)
REMARK    1  A    between atoms: S1_2  and  C2_3 
REMARK       I    between atoms: N3_9  and  C4_11 
REMARK    2  A    between atoms: C4_11  and  C5_13 
REMARK    3  A    between atoms: C5_13  and  N4_14 
ROOT
HETATM    1  N4  UNL     1      45.940  50.118  33.388  1.00  0.00    -0.273 N 
HETATM    2  C6  UNL     1      46.766  49.997  32.244  1.00  0.00     0.242 C 
HETATM    3  O2  UNL     1      47.980  50.273  32.200  1.00  0.00    -0.272 OA
HETATM    4  C7  UNL     1      45.944  49.500  31.159  1.00  0.00     0.118 C 
HETATM    5  C8  UNL     1      46.264  48.109  30.660  1.00  0.00     0.029 C 
HETATM    6  C9  UNL     1      46.218  48.649  29.252  1.00  0.00     0.013 C 
HETATM    7  C10 UNL     1      46.078  50.019  29.808  1.00  0.00    -0.009 A 
HETATM    8  C11 UNL     1      45.230  51.057  29.203  1.00  0.00     0.021 A 
HETATM    9  C12 UNL     1      46.770  51.163  29.306  1.00  0.00    -0.038 A 
HETATM   10  C13 UNL     1      47.484  51.000  27.956  1.00  0.00     0.015 C 
HETATM   11  C14 UNL     1      47.212  52.373  30.065  1.00  0.00     0.015 C 
HETATM   12  C15 UNL     1      44.534  49.491  31.695  1.00  0.00     0.239 C 
HETATM   13  O3  UNL     1      43.498  49.542  31.030  1.00  0.00    -0.288 OA
HETATM   14  C16 UNL     1      44.673  49.407  33.155  1.00  0.00     0.389 C 
HETATM   15  F1  UNL     1      43.637  49.984  33.840  1.00  0.00    -0.174 F 
HETATM   16  F2  UNL     1      44.893  48.111  33.593  1.00  0.00    -0.174 F 
ENDROOT
BRANCH   1  17
HETATM   17  C5  UNL     1      46.198  50.806  34.634  1.00  0.00     0.235 C 
BRANCH  17  18
HETATM   18  C4  UNL     1      47.213  50.100  35.454  1.00  0.00     0.241 C 
HETATM   19  N3  UNL     1      48.436  50.708  35.830  1.00  0.00    -0.305 N 
HETATM   20  C3  UNL     1      49.549  50.197  35.356  1.00  0.00     0.168 A 
ATOM     21  H3  UNL     1      48.452  51.517  36.451  1.00  0.00     0.171 HD
HETATM   22  N2  UNL     1      49.687  49.148  34.539  1.00  0.00    -0.278 N 
HETATM   23  S2  UNL     1      51.175  50.668  35.598  1.00  0.00    -0.026 SA
HETATM   24  N1  UNL     1      50.858  48.803  34.188  1.00  0.00    -0.286 N 
ATOM     25  H2  UNL     1      48.870  48.636  34.204  1.00  0.00     0.189 HD
HETATM   26  C2  UNL     1      51.911  49.476  34.626  1.00  0.00     0.129 A 
ATOM     27  H1  UNL     1      50.988  48.005  33.567  1.00  0.00     0.188 HD
HETATM   28  O1  UNL     1      46.951  48.918  35.814  1.00  0.00    -0.271 OA
BRANCH  26  29
HETATM   29  S1  UNL     1      53.650  49.154  34.250  1.00  0.00    -0.108 SA
HETATM   30  C1  UNL     1      54.386  48.310  35.676  1.00  0.00     0.097 C 
ENDBRANCH  26  29
ENDBRANCH  17  18
ENDBRANCH   1  17
TORSDOF 3
ENDMDL
