MODEL 1
REMARK VINA RESULT: -4.564534000      0.000      0.000
REMARK  6 active torsions:
REMARK  status: ('A' for Active; 'I' for Inactive)
REMARK    1  A    between atoms: C2_2  and  C3_3 
REMARK    2  A    between atoms: C3_3  and  C4_4 
REMARK    3  A    between atoms: C4_4  and  C5_5 
REMARK    4  A    between atoms: C5_5  and  C6_6 
REMARK    5  A    between atoms: C6_6  and  C7_7 
REMARK    6  A    between atoms: C7_7  and  N1_8 
ROOT
HETATM    1  C5  UNL     1      -6.015  -6.402 -18.319  1.00  0.00    -0.039 A 
HETATM    2  C8  UNL     1      -5.820  -6.376 -16.826  1.00  0.00     0.010 A 
HETATM    3  C9  UNL     1      -6.108  -5.095 -17.466  1.00  0.00     0.010 A 
ENDROOT
BRANCH   1   4
HETATM    4  C4  UNL     1      -7.342  -6.809 -18.851  1.00  0.00     0.013 C 
BRANCH   4   5
HETATM    5  C3  UNL     1      -7.804  -8.205 -18.667  1.00  0.00     0.027 C 
BRANCH   5   6
HETATM    6  C2  UNL     1      -9.129  -8.174 -17.914  1.00  0.00    -0.037 C 
HETATM    7  C1  UNL     1      -9.477  -7.164 -17.137  1.00  0.00     0.007 C 
ENDBRANCH   5   6
ENDBRANCH   4   5
ENDBRANCH   1   4
BRANCH   1   8
HETATM    8  C6  UNL     1      -4.737  -6.559 -19.085  1.00  0.00     0.036 C 
BRANCH   8   9
HETATM    9  C7  UNL     1      -3.737  -7.536 -18.639  1.00  0.00     0.230 C 
BRANCH   9  10
HETATM   10  N1  UNL     1      -2.527  -7.283 -19.491  1.00  0.00    -0.079 N 
ATOM     11  H13 UNL     1      -2.407  -7.960 -20.246  1.00  0.00     0.274 HD
ATOM     12  H12 UNL     1      -2.607  -6.457 -20.084  1.00  0.00     0.274 HD
ATOM     13  H11 UNL     1      -1.741  -7.249 -18.842  1.00  0.00     0.274 HD
ENDBRANCH   9  10
ENDBRANCH   8   9
ENDBRANCH   1   8
TORSDOF 6
ENDMDL
MODEL 2
REMARK VINA RESULT: -4.468397081      1.221      1.570
REMARK  6 active torsions:
REMARK  status: ('A' for Active; 'I' for Inactive)
REMARK    1  A    between atoms: C2_2  and  C3_3 
REMARK    2  A    between atoms: C3_3  and  C4_4 
REMARK    3  A    between atoms: C4_4  and  C5_5 
REMARK    4  A    between atoms: C5_5  and  C6_6 
REMARK    5  A    between atoms: C6_6  and  C7_7 
REMARK    6  A    between atoms: C7_7  and  N1_8 
ROOT
HETATM    1  C5  UNL     1      -5.599  -5.933 -17.844  1.00  0.00    -0.039 A 
HETATM    2  C8  UNL     1      -4.784  -5.560 -16.635  1.00  0.00     0.010 A 
HETATM    3  C9  UNL     1      -5.223  -4.458 -17.488  1.00  0.00     0.010 A 
ENDROOT
BRANCH   1   4
HETATM    4  C4  UNL     1      -7.052  -6.190 -17.665  1.00  0.00     0.013 C 
BRANCH   4   5
HETATM    5  C3  UNL     1      -7.846  -6.717 -18.799  1.00  0.00     0.027 C 
BRANCH   5   6
HETATM    6  C2  UNL     1      -8.449  -8.052 -18.381  1.00  0.00    -0.037 C 
HETATM    7  C1  UNL     1      -7.953  -9.209 -18.782  1.00  0.00     0.007 C 
ENDBRANCH   5   6
ENDBRANCH   4   5
ENDBRANCH   1   4
BRANCH   1   8
HETATM    8  C6  UNL     1      -4.786  -6.536 -18.949  1.00  0.00     0.036 C 
BRANCH   8   9
HETATM    9  C7  UNL     1      -3.686  -7.452 -18.626  1.00  0.00     0.230 C 
BRANCH   9  10
HETATM   10  N1  UNL     1      -4.343  -8.743 -18.235  1.00  0.00    -0.079 N 
ATOM     11  H13 UNL     1      -4.927  -8.670 -17.401  1.00  0.00     0.274 HD
ATOM     12  H12 UNL     1      -5.082  -9.037 -18.873  1.00  0.00     0.274 HD
ATOM     13  H11 UNL     1      -3.583  -9.418 -18.147  1.00  0.00     0.274 HD
ENDBRANCH   9  10
ENDBRANCH   8   9
ENDBRANCH   1   8
TORSDOF 6
ENDMDL
MODEL 3
REMARK VINA RESULT: -4.446299409      2.165      2.781
REMARK  6 active torsions:
REMARK  status: ('A' for Active; 'I' for Inactive)
REMARK    1  A    between atoms: C2_2  and  C3_3 
REMARK    2  A    between atoms: C3_3  and  C4_4 
REMARK    3  A    between atoms: C4_4  and  C5_5 
REMARK    4  A    between atoms: C5_5  and  C6_6 
REMARK    5  A    between atoms: C6_6  and  C7_7 
REMARK    6  A    between atoms: C7_7  and  N1_8 
ROOT
HETATM    1  C5  UNL     1      -5.452  -5.864 -17.419  1.00  0.00    -0.039 A 
HETATM    2  C8  UNL     1      -4.708  -7.153 -17.641  1.00  0.00     0.010 A 
HETATM    3  C9  UNL     1      -4.981  -6.791 -16.252  1.00  0.00     0.010 A 
ENDROOT
BRANCH   1   4
HETATM    4  C4  UNL     1      -6.931  -5.869 -17.564  1.00  0.00     0.013 C 
BRANCH   4   5
HETATM    5  C3  UNL     1      -7.546  -6.507 -18.752  1.00  0.00     0.027 C 
BRANCH   5   6
HETATM    6  C2  UNL     1      -8.473  -7.617 -18.272  1.00  0.00    -0.037 C 
HETATM    7  C1  UNL     1      -9.242  -7.485 -17.206  1.00  0.00     0.007 C 
ENDBRANCH   5   6
ENDBRANCH   4   5
ENDBRANCH   1   4
BRANCH   1   8
HETATM    8  C6  UNL     1      -4.609  -4.644 -17.628  1.00  0.00     0.036 C 
BRANCH   8   9
HETATM    9  C7  UNL     1      -5.160  -3.317 -17.328  1.00  0.00     0.230 C 
BRANCH   9  10
HETATM   10  N1  UNL     1      -4.222  -2.715 -16.322  1.00  0.00    -0.079 N 
ATOM     11  H13 UNL     1      -3.888  -3.379 -15.623  1.00  0.00     0.274 HD
ATOM     12  H12 UNL     1      -3.308  -2.475 -16.705  1.00  0.00     0.274 HD
ATOM     13  H11 UNL     1      -4.724  -1.920 -15.927  1.00  0.00     0.274 HD
ENDBRANCH   9  10
ENDBRANCH   8   9
ENDBRANCH   1   8
TORSDOF 6
ENDMDL
MODEL 4
REMARK VINA RESULT: -4.414584142      1.724      2.669
REMARK  6 active torsions:
REMARK  status: ('A' for Active; 'I' for Inactive)
REMARK    1  A    between atoms: C2_2  and  C3_3 
REMARK    2  A    between atoms: C3_3  and  C4_4 
REMARK    3  A    between atoms: C4_4  and  C5_5 
REMARK    4  A    between atoms: C5_5  and  C6_6 
REMARK    5  A    between atoms: C6_6  and  C7_7 
REMARK    6  A    between atoms: C7_7  and  N1_8 
ROOT
HETATM    1  C5  UNL     1      -5.895  -6.380 -18.217  1.00  0.00    -0.039 A 
HETATM    2  C8  UNL     1      -4.702  -6.591 -19.109  1.00  0.00     0.010 A 
HETATM    3  C9  UNL     1      -5.002  -7.662 -18.163  1.00  0.00     0.010 A 
ENDROOT
BRANCH   1   4
HETATM    4  C4  UNL     1      -7.246  -6.672 -18.764  1.00  0.00     0.013 C 
BRANCH   4   5
HETATM    5  C3  UNL     1      -8.404  -6.754 -17.845  1.00  0.00     0.027 C 
BRANCH   5   6
HETATM    6  C2  UNL     1      -8.915  -8.190 -17.847  1.00  0.00    -0.037 C 
HETATM    7  C1  UNL     1      -8.410  -9.119 -18.638  1.00  0.00     0.007 C 
ENDBRANCH   5   6
ENDBRANCH   4   5
ENDBRANCH   1   4
BRANCH   1   8
HETATM    8  C6  UNL     1      -5.648  -5.400 -17.111  1.00  0.00     0.036 C 
BRANCH   8   9
HETATM    9  C7  UNL     1      -5.494  -3.974 -17.424  1.00  0.00     0.230 C 
BRANCH   9  10
HETATM   10  N1  UNL     1      -4.126  -3.604 -16.929  1.00  0.00    -0.079 N 
ATOM     11  H13 UNL     1      -3.698  -4.315 -16.335  1.00  0.00     0.274 HD
ATOM     12  H12 UNL     1      -3.411  -3.609 -17.656  1.00  0.00     0.274 HD
ATOM     13  H11 UNL     1      -4.240  -2.700 -16.470  1.00  0.00     0.274 HD
ENDBRANCH   9  10
ENDBRANCH   8   9
ENDBRANCH   1   8
TORSDOF 6
ENDMDL
MODEL 5
REMARK VINA RESULT: -4.303381548      2.637      3.954
REMARK  6 active torsions:
REMARK  status: ('A' for Active; 'I' for Inactive)
REMARK    1  A    between atoms: C2_2  and  C3_3 
REMARK    2  A    between atoms: C3_3  and  C4_4 
REMARK    3  A    between atoms: C4_4  and  C5_5 
REMARK    4  A    between atoms: C5_5  and  C6_6 
REMARK    5  A    between atoms: C6_6  and  C7_7 
REMARK    6  A    between atoms: C7_7  and  N1_8 
ROOT
HETATM    1  C5  UNL     1      -9.406  -7.915 -17.956  1.00  0.00    -0.039 A 
HETATM    2  C8  UNL     1      -8.998  -7.898 -16.508  1.00  0.00     0.010 A 
HETATM    3  C9  UNL     1      -9.652  -6.693 -17.013  1.00  0.00     0.010 A 
ENDROOT
BRANCH   1   4
HETATM    4  C4  UNL     1     -10.677  -8.593 -18.323  1.00  0.00     0.013 C 
BRANCH   4   5
HETATM    5  C3  UNL     1     -10.640  -9.795 -19.189  1.00  0.00     0.027 C 
BRANCH   5   6
HETATM    6  C2  UNL     1     -12.064 -10.314 -19.345  1.00  0.00    -0.037 C 
HETATM    7  C1  UNL     1     -12.332 -11.496 -19.870  1.00  0.00     0.007 C 
ENDBRANCH   5   6
ENDBRANCH   4   5
ENDBRANCH   1   4
BRANCH   1   8
HETATM    8  C6  UNL     1      -8.255  -7.753 -18.903  1.00  0.00     0.036 C 
BRANCH   8   9
HETATM    9  C7  UNL     1      -7.108  -8.664 -18.815  1.00  0.00     0.230 C 
BRANCH   9  10
HETATM   10  N1  UNL     1      -5.940  -7.798 -18.440  1.00  0.00    -0.079 N 
ATOM     11  H13 UNL     1      -6.018  -7.384 -17.511  1.00  0.00     0.274 HD
ATOM     12  H12 UNL     1      -5.081  -8.319 -18.267  1.00  0.00     0.274 HD
ATOM     13  H11 UNL     1      -5.861  -7.111 -19.191  1.00  0.00     0.274 HD
ENDBRANCH   9  10
ENDBRANCH   8   9
ENDBRANCH   1   8
TORSDOF 6
ENDMDL
