MODEL 1
REMARK VINA RESULT: -8.921871595      0.000      0.000
REMARK  11 active torsions:
REMARK  status: ('A' for Active; 'I' for Inactive)
REMARK    1  A    between atoms: C2_2  and  C3_3 
REMARK    2  A    between atoms: C3_3  and  N1_4 
REMARK    3  A    between atoms: N1_4  and  C4_5 
REMARK       I    between atoms: N1_4  and  C17_26 
REMARK    4  A    between atoms: C4_5  and  C5_6 
REMARK       I    between atoms: C5_6  and  N2_8 
REMARK    5  A    between atoms: N2_8  and  C6_10 
REMARK    6  A    between atoms: C11_15  and  S1_16 
REMARK    7  A    between atoms: S1_16  and  C12_17 
REMARK    8  A    between atoms: C12_17  and  C13_18 
REMARK       I    between atoms: C13_18  and  N3_20 
REMARK    9  A    between atoms: C17_26  and  C18_28 
REMARK   10  A    between atoms: C18_28  and  C19_29 
REMARK   11  A    between atoms: C19_29  and  C20_30 
REMARK       I    between atoms: C20_30  and  N5_32 
ROOT
HETATM    1  C13 UNL     1      12.330  20.553  15.040  1.00  0.00     0.240 C 
HETATM    2  O2  UNL     1      12.019  21.680  14.672  1.00  0.00    -0.272 OA
HETATM    3  N3  UNL     1      13.664  20.130  14.616  1.00  0.00    -0.263 N 
ATOM      4  H3  UNL     1      14.010  19.206  14.874  1.00  0.00     0.181 HD
HETATM    5  C14 UNL     1      14.458  20.979  13.863  1.00  0.00     0.184 C 
HETATM    6  N4  UNL     1      15.128  21.687  13.217  1.00  0.00    -0.172 NA
ENDROOT
BRANCH   1   7
HETATM    7  C12 UNL     1      11.544  19.603  15.836  1.00  0.00     0.183 C 
BRANCH   7   8
HETATM    8  S1  UNL     1      11.427  19.929  17.550  1.00  0.00    -0.119 SA
BRANCH   8   9
HETATM    9  C11 UNL     1      12.753  19.448  18.597  1.00  0.00     0.015 A 
HETATM   10  C9  UNL     1      12.752  18.266  19.270  1.00  0.00    -0.044 A 
HETATM   11  C8  UNL     1      13.795  18.000  20.132  1.00  0.00     0.010 A 
HETATM   12  C10 UNL     1      11.718  17.187  19.080  1.00  0.00     0.049 C 
HETATM   13  C7  UNL     1      14.842  18.911  20.323  1.00  0.00     0.031 A 
HETATM   14  C6  UNL     1      14.866  20.112  19.651  1.00  0.00     0.042 A 
HETATM   15  C15 UNL     1      13.798  20.336  18.798  1.00  0.00    -0.018 A 
HETATM   16  C16 UNL     1      13.756  21.602  18.036  1.00  0.00     0.052 C 
BRANCH  14  17
HETATM   17  N2  UNL     1      15.852  21.097  19.784  1.00  0.00    -0.325 N 
HETATM   18  C5  UNL     1      17.003  21.329  19.033  1.00  0.00     0.240 C 
HETATM   19  O1  UNL     1      17.253  20.555  18.044  1.00  0.00    -0.271 OA
ATOM     20  H2  UNL     1      15.704  21.751  20.553  1.00  0.00     0.169 HD
BRANCH  18  21
HETATM   21  C4  UNL     1      17.966  22.405  19.281  1.00  0.00     0.228 C 
BRANCH  21  22
HETATM   22  N1  UNL     1      17.920  23.561  18.460  1.00  0.00    -0.343 N 
HETATM   23  C17 UNL     1      19.141  24.308  18.283  1.00  0.00     0.220 C 
HETATM   24  O3  UNL     1      20.186  23.863  18.770  1.00  0.00    -0.273 OA
BRANCH  22  25
HETATM   25  C3  UNL     1      16.693  24.073  17.909  1.00  0.00     0.126 C 
BRANCH  25  26
HETATM   26  C2  UNL     1      16.276  23.753  16.546  1.00  0.00     0.015 C 
HETATM   27  C1  UNL     1      17.259  23.129  15.629  1.00  0.00     0.006 C 
ENDBRANCH  25  26
ENDBRANCH  22  25
BRANCH  23  28
HETATM   28  C18 UNL     1      19.163  25.584  17.536  1.00  0.00     0.112 C 
BRANCH  28  29
HETATM   29  C19 UNL     1      20.537  25.894  16.982  1.00  0.00     0.112 C 
BRANCH  29  30
HETATM   30  C20 UNL     1      20.443  25.819  15.497  1.00  0.00     0.223 C 
HETATM   31  O4  UNL     1      20.492  24.677  14.907  1.00  0.00    -0.273 OA
HETATM   32  N5  UNL     1      20.300  26.918  14.640  1.00  0.00    -0.312 N 
HETATM   33  C21 UNL     1      21.119  27.865  14.423  1.00  0.00     0.130 A 
ATOM     34  H5  UNL     1      19.422  26.964  14.122  1.00  0.00     0.170 HD
HETATM   35  C22 UNL     1      22.361  28.059  14.972  1.00  0.00     0.084 A 
HETATM   36  N6  UNL     1      20.938  28.927  13.579  1.00  0.00    -0.245 N 
HETATM   37  C23 UNL     1      22.877  29.234  14.434  1.00  0.00     0.076 A 
HETATM   38  C24 UNL     1      24.213  29.784  14.786  1.00  0.00     0.079 C 
HETATM   39  O5  UNL     1      21.982  29.690  13.622  1.00  0.00    -0.241 OA
ATOM     40  H6  UNL     1      20.110  29.091  13.007  1.00  0.00     0.196 HD
ENDBRANCH  29  30
ENDBRANCH  28  29
ENDBRANCH  23  28
ENDBRANCH  21  22
ENDBRANCH  18  21
ENDBRANCH  14  17
ENDBRANCH   8   9
ENDBRANCH   7   8
ENDBRANCH   1   7
TORSDOF 11
ENDMDL
MODEL 2
REMARK VINA RESULT: -8.864551562      2.038      2.886
REMARK  11 active torsions:
REMARK  status: ('A' for Active; 'I' for Inactive)
REMARK    1  A    between atoms: C2_2  and  C3_3 
REMARK    2  A    between atoms: C3_3  and  N1_4 
REMARK    3  A    between atoms: N1_4  and  C4_5 
REMARK       I    between atoms: N1_4  and  C17_26 
REMARK    4  A    between atoms: C4_5  and  C5_6 
REMARK       I    between atoms: C5_6  and  N2_8 
REMARK    5  A    between atoms: N2_8  and  C6_10 
REMARK    6  A    between atoms: C11_15  and  S1_16 
REMARK    7  A    between atoms: S1_16  and  C12_17 
REMARK    8  A    between atoms: C12_17  and  C13_18 
REMARK       I    between atoms: C13_18  and  N3_20 
REMARK    9  A    between atoms: C17_26  and  C18_28 
REMARK   10  A    between atoms: C18_28  and  C19_29 
REMARK   11  A    between atoms: C19_29  and  C20_30 
REMARK       I    between atoms: C20_30  and  N5_32 
ROOT
HETATM    1  C13 UNL     1      11.816  19.489  13.644  1.00  0.00     0.240 C 
HETATM    2  O2  UNL     1      10.752  19.871  13.171  1.00  0.00    -0.272 OA
HETATM    3  N3  UNL     1      11.876  18.050  13.901  1.00  0.00    -0.263 N 
ATOM      4  H3  UNL     1      12.722  17.639  14.295  1.00  0.00     0.181 HD
HETATM    5  C14 UNL     1      10.787  17.244  13.612  1.00  0.00     0.184 C 
HETATM    6  N4  UNL     1       9.866  16.560  13.381  1.00  0.00    -0.172 NA
ENDROOT
BRANCH   1   7
HETATM    7  C12 UNL     1      13.007  20.281  13.974  1.00  0.00     0.183 C 
BRANCH   7   8
HETATM    8  S1  UNL     1      12.908  21.277  15.407  1.00  0.00    -0.119 SA
BRANCH   8   9
HETATM    9  C11 UNL     1      13.653  20.702  16.891  1.00  0.00     0.015 A 
HETATM   10  C9  UNL     1      12.953  20.011  17.832  1.00  0.00    -0.044 A 
HETATM   11  C8  UNL     1      13.594  19.664  19.003  1.00  0.00     0.010 A 
HETATM   12  C10 UNL     1      11.538  19.530  17.648  1.00  0.00     0.049 C 
HETATM   13  C7  UNL     1      14.932  20.004  19.238  1.00  0.00     0.031 A 
HETATM   14  C6  UNL     1      15.660  20.700  18.300  1.00  0.00     0.042 A 
HETATM   15  C15 UNL     1      14.976  21.027  17.141  1.00  0.00    -0.018 A 
HETATM   16  C16 UNL     1      15.693  21.772  16.084  1.00  0.00     0.052 C 
BRANCH  14  17
HETATM   17  N2  UNL     1      16.993  21.104  18.444  1.00  0.00    -0.325 N 
HETATM   18  C5  UNL     1      17.547  22.134  19.204  1.00  0.00     0.240 C 
HETATM   19  O1  UNL     1      16.764  22.858  19.912  1.00  0.00    -0.271 OA
ATOM     20  H2  UNL     1      17.667  20.558  17.907  1.00  0.00     0.169 HD
BRANCH  18  21
HETATM   21  C4  UNL     1      18.973  22.459  19.266  1.00  0.00     0.228 C 
BRANCH  21  22
HETATM   22  N1  UNL     1      19.409  23.713  18.765  1.00  0.00    -0.343 N 
HETATM   23  C17 UNL     1      19.359  23.922  17.339  1.00  0.00     0.220 C 
HETATM   24  O3  UNL     1      18.856  23.045  16.628  1.00  0.00    -0.273 OA
BRANCH  22  25
HETATM   25  C3  UNL     1      20.003  24.719  19.606  1.00  0.00     0.126 C 
BRANCH  25  26
HETATM   26  C2  UNL     1      20.312  24.456  21.009  1.00  0.00     0.015 C 
HETATM   27  C1  UNL     1      21.733  24.404  21.426  1.00  0.00     0.006 C 
ENDBRANCH  25  26
ENDBRANCH  22  25
BRANCH  23  28
HETATM   28  C18 UNL     1      19.894  25.153  16.720  1.00  0.00     0.112 C 
BRANCH  28  29
HETATM   29  C19 UNL     1      18.828  25.918  15.965  1.00  0.00     0.112 C 
BRANCH  29  30
HETATM   30  C20 UNL     1      19.220  25.919  14.527  1.00  0.00     0.223 C 
HETATM   31  O4  UNL     1      19.257  24.814  13.870  1.00  0.00    -0.273 OA
HETATM   32  N5  UNL     1      19.568  27.057  13.786  1.00  0.00    -0.312 N 
HETATM   33  C21 UNL     1      20.568  27.826  13.938  1.00  0.00     0.130 A 
ATOM     34  H5  UNL     1      18.935  27.299  13.024  1.00  0.00     0.170 HD
HETATM   35  C22 UNL     1      21.571  27.743  14.871  1.00  0.00     0.084 A 
HETATM   36  N6  UNL     1      20.870  28.933  13.194  1.00  0.00    -0.245 N 
HETATM   37  C23 UNL     1      22.438  28.810  14.648  1.00  0.00     0.076 A 
HETATM   38  C24 UNL     1      23.657  29.064  15.460  1.00  0.00     0.079 C 
HETATM   39  O5  UNL     1      21.959  29.467  13.644  1.00  0.00    -0.241 OA
ATOM     40  H6  UNL     1      20.322  29.283  12.408  1.00  0.00     0.196 HD
ENDBRANCH  29  30
ENDBRANCH  28  29
ENDBRANCH  23  28
ENDBRANCH  21  22
ENDBRANCH  18  21
ENDBRANCH  14  17
ENDBRANCH   8   9
ENDBRANCH   7   8
ENDBRANCH   1   7
TORSDOF 11
ENDMDL
MODEL 3
REMARK VINA RESULT: -8.826070511      1.305      1.971
REMARK  11 active torsions:
REMARK  status: ('A' for Active; 'I' for Inactive)
REMARK    1  A    between atoms: C2_2  and  C3_3 
REMARK    2  A    between atoms: C3_3  and  N1_4 
REMARK    3  A    between atoms: N1_4  and  C4_5 
REMARK       I    between atoms: N1_4  and  C17_26 
REMARK    4  A    between atoms: C4_5  and  C5_6 
REMARK       I    between atoms: C5_6  and  N2_8 
REMARK    5  A    between atoms: N2_8  and  C6_10 
REMARK    6  A    between atoms: C11_15  and  S1_16 
REMARK    7  A    between atoms: S1_16  and  C12_17 
REMARK    8  A    between atoms: C12_17  and  C13_18 
REMARK       I    between atoms: C13_18  and  N3_20 
REMARK    9  A    between atoms: C17_26  and  C18_28 
REMARK   10  A    between atoms: C18_28  and  C19_29 
REMARK   11  A    between atoms: C19_29  and  C20_30 
REMARK       I    between atoms: C20_30  and  N5_32 
ROOT
HETATM    1  C13 UNL     1      12.444  20.569  15.126  1.00  0.00     0.240 C 
HETATM    2  O2  UNL     1      12.094  21.693  14.783  1.00  0.00    -0.272 OA
HETATM    3  N3  UNL     1      13.774  20.185  14.653  1.00  0.00    -0.263 N 
ATOM      4  H3  UNL     1      14.151  19.266  14.888  1.00  0.00     0.181 HD
HETATM    5  C14 UNL     1      14.523  21.063  13.886  1.00  0.00     0.184 C 
HETATM    6  N4  UNL     1      15.154  21.795  13.229  1.00  0.00    -0.172 NA
ENDROOT
BRANCH   1   7
HETATM    7  C12 UNL     1      11.708  19.590  15.934  1.00  0.00     0.183 C 
BRANCH   7   8
HETATM    8  S1  UNL     1      11.601  19.915  17.648  1.00  0.00    -0.119 SA
BRANCH   8   9
HETATM    9  C11 UNL     1      13.049  19.760  18.632  1.00  0.00     0.015 A 
HETATM   10  C9  UNL     1      13.307  18.645  19.369  1.00  0.00    -0.044 A 
HETATM   11  C8  UNL     1      14.427  18.636  20.175  1.00  0.00     0.010 A 
HETATM   12  C10 UNL     1      12.488  17.383  19.307  1.00  0.00     0.049 C 
HETATM   13  C7  UNL     1      15.291  19.736  20.246  1.00  0.00     0.031 A 
HETATM   14  C6  UNL     1      15.052  20.873  19.508  1.00  0.00     0.042 A 
HETATM   15  C15 UNL     1      13.917  20.837  18.715  1.00  0.00    -0.018 A 
HETATM   16  C16 UNL     1      13.594  22.020  17.889  1.00  0.00     0.052 C 
BRANCH  14  17
HETATM   17  N2  UNL     1      15.839  22.031  19.521  1.00  0.00    -0.325 N 
HETATM   18  C5  UNL     1      17.218  22.186  19.387  1.00  0.00     0.240 C 
HETATM   19  O1  UNL     1      17.936  21.140  19.212  1.00  0.00    -0.271 OA
ATOM     20  H2  UNL     1      15.321  22.900  19.650  1.00  0.00     0.169 HD
BRANCH  18  21
HETATM   21  C4  UNL     1      17.927  23.467  19.423  1.00  0.00     0.228 C 
BRANCH  21  22
HETATM   22  N1  UNL     1      18.594  23.908  18.251  1.00  0.00    -0.343 N 
HETATM   23  C17 UNL     1      17.795  24.163  17.078  1.00  0.00     0.220 C 
HETATM   24  O3  UNL     1      16.565  24.080  17.167  1.00  0.00    -0.273 OA
BRANCH  22  25
HETATM   25  C3  UNL     1      20.028  23.989  18.159  1.00  0.00     0.126 C 
BRANCH  25  26
HETATM   26  C2  UNL     1      20.794  24.927  18.977  1.00  0.00     0.015 C 
HETATM   27  C1  UNL     1      20.770  26.365  18.620  1.00  0.00     0.006 C 
ENDBRANCH  25  26
ENDBRANCH  22  25
BRANCH  23  28
HETATM   28  C18 UNL     1      18.415  24.519  15.784  1.00  0.00     0.112 C 
BRANCH  28  29
HETATM   29  C19 UNL     1      17.995  25.895  15.313  1.00  0.00     0.112 C 
BRANCH  29  30
HETATM   30  C20 UNL     1      18.565  26.088  13.949  1.00  0.00     0.223 C 
HETATM   31  O4  UNL     1      18.514  25.131  13.090  1.00  0.00    -0.273 OA
HETATM   32  N5  UNL     1      19.177  27.261  13.487  1.00  0.00    -0.312 N 
HETATM   33  C21 UNL     1      20.255  27.802  13.886  1.00  0.00     0.130 A 
ATOM     34  H5  UNL     1      18.692  27.745  12.731  1.00  0.00     0.170 HD
HETATM   35  C22 UNL     1      21.105  27.376  14.876  1.00  0.00     0.084 A 
HETATM   36  N6  UNL     1      20.818  28.954  13.411  1.00  0.00    -0.245 N 
HETATM   37  C23 UNL     1      22.148  28.295  14.955  1.00  0.00     0.076 A 
HETATM   38  C24 UNL     1      23.276  28.179  15.915  1.00  0.00     0.079 C 
HETATM   39  O5  UNL     1      21.910  29.198  14.062  1.00  0.00    -0.241 OA
ATOM     40  H6  UNL     1      20.436  29.532  12.662  1.00  0.00     0.196 HD
ENDBRANCH  29  30
ENDBRANCH  28  29
ENDBRANCH  23  28
ENDBRANCH  21  22
ENDBRANCH  18  21
ENDBRANCH  14  17
ENDBRANCH   8   9
ENDBRANCH   7   8
ENDBRANCH   1   7
TORSDOF 11
ENDMDL
MODEL 4
REMARK VINA RESULT: -8.801679678      3.603     11.074
REMARK  11 active torsions:
REMARK  status: ('A' for Active; 'I' for Inactive)
REMARK    1  A    between atoms: C2_2  and  C3_3 
REMARK    2  A    between atoms: C3_3  and  N1_4 
REMARK    3  A    between atoms: N1_4  and  C4_5 
REMARK       I    between atoms: N1_4  and  C17_26 
REMARK    4  A    between atoms: C4_5  and  C5_6 
REMARK       I    between atoms: C5_6  and  N2_8 
REMARK    5  A    between atoms: N2_8  and  C6_10 
REMARK    6  A    between atoms: C11_15  and  S1_16 
REMARK    7  A    between atoms: S1_16  and  C12_17 
REMARK    8  A    between atoms: C12_17  and  C13_18 
REMARK       I    between atoms: C13_18  and  N3_20 
REMARK    9  A    between atoms: C17_26  and  C18_28 
REMARK   10  A    between atoms: C18_28  and  C19_29 
REMARK   11  A    between atoms: C19_29  and  C20_30 
REMARK       I    between atoms: C20_30  and  N5_32 
ROOT
HETATM    1  C13 UNL     1      24.470  26.370  16.524  1.00  0.00     0.240 C 
HETATM    2  O2  UNL     1      25.362  25.613  16.156  1.00  0.00    -0.272 OA
HETATM    3  N3  UNL     1      24.020  26.144  17.897  1.00  0.00    -0.263 N 
ATOM      4  H3  UNL     1      23.280  26.725  18.291  1.00  0.00     0.181 HD
HETATM    5  C14 UNL     1      24.594  25.143  18.663  1.00  0.00     0.184 C 
HETATM    6  N4  UNL     1      25.066  24.291  19.311  1.00  0.00    -0.172 NA
ENDROOT
BRANCH   1   7
HETATM    7  C12 UNL     1      23.819  27.448  15.771  1.00  0.00     0.183 C 
BRANCH   7   8
HETATM    8  S1  UNL     1      22.164  27.812  16.203  1.00  0.00    -0.119 SA
BRANCH   8   9
HETATM    9  C11 UNL     1      20.866  27.136  15.229  1.00  0.00     0.015 A 
HETATM   10  C9  UNL     1      20.467  27.706  14.059  1.00  0.00    -0.044 A 
HETATM   11  C8  UNL     1      19.389  27.157  13.397  1.00  0.00     0.010 A 
HETATM   12  C10 UNL     1      21.174  28.859  13.397  1.00  0.00     0.049 C 
HETATM   13  C7  UNL     1      18.710  26.039  13.896  1.00  0.00     0.031 A 
HETATM   14  C6  UNL     1      19.097  25.445  15.076  1.00  0.00     0.042 A 
HETATM   15  C15 UNL     1      20.182  26.030  15.706  1.00  0.00    -0.018 A 
HETATM   16  C16 UNL     1      20.661  25.445  16.977  1.00  0.00     0.052 C 
BRANCH  14  17
HETATM   17  N2  UNL     1      18.476  24.340  15.670  1.00  0.00    -0.325 N 
HETATM   18  C5  UNL     1      17.508  24.280  16.672  1.00  0.00     0.240 C 
HETATM   19  O1  UNL     1      17.070  25.377  17.164  1.00  0.00    -0.271 OA
ATOM     20  H2  UNL     1      18.779  23.433  15.313  1.00  0.00     0.169 HD
BRANCH  18  21
HETATM   21  C4  UNL     1      16.936  23.046  17.214  1.00  0.00     0.228 C 
BRANCH  21  22
HETATM   22  N1  UNL     1      15.573  22.752  16.945  1.00  0.00    -0.343 N 
HETATM   23  C17 UNL     1      15.232  22.301  15.619  1.00  0.00     0.220 C 
HETATM   24  O3  UNL     1      16.143  22.100  14.807  1.00  0.00    -0.273 OA
BRANCH  22  25
HETATM   25  C3  UNL     1      14.524  23.002  17.898  1.00  0.00     0.126 C 
BRANCH  25  26
HETATM   26  C2  UNL     1      14.147  22.007  18.899  1.00  0.00     0.015 C 
HETATM   27  C1  UNL     1      15.219  21.243  19.579  1.00  0.00     0.006 C 
ENDBRANCH  25  26
ENDBRANCH  22  25
BRANCH  23  28
HETATM   28  C18 UNL     1      13.827  22.077  15.217  1.00  0.00     0.112 C 
BRANCH  28  29
HETATM   29  C19 UNL     1      13.432  20.620  15.322  1.00  0.00     0.112 C 
BRANCH  29  30
HETATM   30  C20 UNL     1      11.946  20.572  15.424  1.00  0.00     0.223 C 
HETATM   31  O4  UNL     1      11.244  21.594  15.082  1.00  0.00    -0.273 OA
HETATM   32  N5  UNL     1      11.203  19.473  15.876  1.00  0.00    -0.312 N 
HETATM   33  C21 UNL     1      11.182  18.953  17.035  1.00  0.00     0.130 A 
ATOM     34  H5  UNL     1      10.598  19.032  15.182  1.00  0.00     0.170 HD
HETATM   35  C22 UNL     1      11.884  19.333  18.151  1.00  0.00     0.084 A 
HETATM   36  N6  UNL     1      10.444  17.873  17.435  1.00  0.00    -0.245 N 
HETATM   37  C23 UNL     1      11.538  18.462  19.180  1.00  0.00     0.076 A 
HETATM   38  C24 UNL     1      12.093  18.550  20.556  1.00  0.00     0.079 C 
HETATM   39  O5  UNL     1      10.685  17.628  18.683  1.00  0.00    -0.241 OA
ATOM     40  H6  UNL     1       9.804  17.344  16.843  1.00  0.00     0.196 HD
ENDBRANCH  29  30
ENDBRANCH  28  29
ENDBRANCH  23  28
ENDBRANCH  21  22
ENDBRANCH  18  21
ENDBRANCH  14  17
ENDBRANCH   8   9
ENDBRANCH   7   8
ENDBRANCH   1   7
TORSDOF 11
ENDMDL
MODEL 5
REMARK VINA RESULT: -8.615842976      2.670      3.450
REMARK  11 active torsions:
REMARK  status: ('A' for Active; 'I' for Inactive)
REMARK    1  A    between atoms: C2_2  and  C3_3 
REMARK    2  A    between atoms: C3_3  and  N1_4 
REMARK    3  A    between atoms: N1_4  and  C4_5 
REMARK       I    between atoms: N1_4  and  C17_26 
REMARK    4  A    between atoms: C4_5  and  C5_6 
REMARK       I    between atoms: C5_6  and  N2_8 
REMARK    5  A    between atoms: N2_8  and  C6_10 
REMARK    6  A    between atoms: C11_15  and  S1_16 
REMARK    7  A    between atoms: S1_16  and  C12_17 
REMARK    8  A    between atoms: C12_17  and  C13_18 
REMARK       I    between atoms: C13_18  and  N3_20 
REMARK    9  A    between atoms: C17_26  and  C18_28 
REMARK   10  A    between atoms: C18_28  and  C19_29 
REMARK   11  A    between atoms: C19_29  and  C20_30 
REMARK       I    between atoms: C20_30  and  N5_32 
ROOT
HETATM    1  C13 UNL     1      10.305  16.832  16.894  1.00  0.00     0.240 C 
HETATM    2  O2  UNL     1      10.382  17.344  15.783  1.00  0.00    -0.272 OA
HETATM    3  N3  UNL     1       9.261  15.814  17.014  1.00  0.00    -0.263 N 
ATOM      4  H3  UNL     1       9.121  15.333  17.903  1.00  0.00     0.181 HD
HETATM    5  C14 UNL     1       8.462  15.502  15.927  1.00  0.00     0.184 C 
HETATM    6  N4  UNL     1       7.777  15.244  15.015  1.00  0.00    -0.172 NA
ENDROOT
BRANCH   1   7
HETATM    7  C12 UNL     1      11.114  17.110  18.087  1.00  0.00     0.183 C 
BRANCH   7   8
HETATM    8  S1  UNL     1      11.496  18.788  18.396  1.00  0.00    -0.119 SA
BRANCH   8   9
HETATM    9  C11 UNL     1      12.934  19.171  19.330  1.00  0.00     0.015 A 
HETATM   10  C9  UNL     1      13.241  18.520  20.486  1.00  0.00    -0.044 A 
HETATM   11  C8  UNL     1      14.346  18.936  21.199  1.00  0.00     0.010 A 
HETATM   12  C10 UNL     1      12.493  17.320  21.004  1.00  0.00     0.049 C 
HETATM   13  C7  UNL     1      15.148  19.997  20.761  1.00  0.00     0.031 A 
HETATM   14  C6  UNL     1      14.858  20.668  19.595  1.00  0.00     0.042 A 
HETATM   15  C15 UNL     1      13.740  20.218  18.913  1.00  0.00    -0.018 A 
HETATM   16  C16 UNL     1      13.367  20.885  17.648  1.00  0.00     0.052 C 
BRANCH  14  17
HETATM   17  N2  UNL     1      15.581  21.752  19.081  1.00  0.00    -0.325 N 
HETATM   18  C5  UNL     1      16.764  21.779  18.343  1.00  0.00     0.240 C 
HETATM   19  O1  UNL     1      17.325  20.667  18.048  1.00  0.00    -0.271 OA
ATOM     20  H2  UNL     1      15.178  22.668  19.277  1.00  0.00     0.169 HD
BRANCH  18  21
HETATM   21  C4  UNL     1      17.426  22.993  17.862  1.00  0.00     0.228 C 
BRANCH  21  22
HETATM   22  N1  UNL     1      17.230  23.387  16.513  1.00  0.00    -0.343 N 
HETATM   23  C17 UNL     1      18.323  24.042  15.838  1.00  0.00     0.220 C 
HETATM   24  O3  UNL     1      19.406  24.146  16.424  1.00  0.00    -0.273 OA
BRANCH  22  25
HETATM   25  C3  UNL     1      15.959  23.269  15.848  1.00  0.00     0.126 C 
BRANCH  25  26
HETATM   26  C2  UNL     1      15.653  22.133  14.981  1.00  0.00     0.015 C 
HETATM   27  C1  UNL     1      14.352  22.110  14.273  1.00  0.00     0.006 C 
ENDBRANCH  25  26
ENDBRANCH  22  25
BRANCH  23  28
HETATM   28  C18 UNL     1      18.173  24.584  14.471  1.00  0.00     0.112 C 
BRANCH  28  29
HETATM   29  C19 UNL     1      19.473  25.141  13.935  1.00  0.00     0.112 C 
BRANCH  29  30
HETATM   30  C20 UNL     1      19.499  26.596  14.260  1.00  0.00     0.223 C 
HETATM   31  O4  UNL     1      19.113  27.456  13.385  1.00  0.00    -0.273 OA
HETATM   32  N5  UNL     1      19.920  27.144  15.479  1.00  0.00    -0.312 N 
HETATM   33  C21 UNL     1      21.080  27.128  15.996  1.00  0.00     0.130 A 
ATOM     34  H5  UNL     1      19.199  27.618  16.023  1.00  0.00     0.170 HD
HETATM   35  C22 UNL     1      22.228  26.569  15.494  1.00  0.00     0.084 A 
HETATM   36  N6  UNL     1      21.450  27.672  17.195  1.00  0.00    -0.245 N 
HETATM   37  C23 UNL     1      23.244  26.800  16.416  1.00  0.00     0.076 A 
HETATM   38  C24 UNL     1      24.646  26.343  16.230  1.00  0.00     0.079 C 
HETATM   39  O5  UNL     1      22.710  27.456  17.393  1.00  0.00    -0.241 OA
ATOM     40  H6  UNL     1      20.829  28.170  17.833  1.00  0.00     0.196 HD
ENDBRANCH  29  30
ENDBRANCH  28  29
ENDBRANCH  23  28
ENDBRANCH  21  22
ENDBRANCH  18  21
ENDBRANCH  14  17
ENDBRANCH   8   9
ENDBRANCH   7   8
ENDBRANCH   1   7
TORSDOF 11
ENDMDL
