MODEL 1
REMARK VINA RESULT: -8.525746337      0.000      0.000
REMARK  14 active torsions:
REMARK  status: ('A' for Active; 'I' for Inactive)
REMARK    1  A    between atoms: N1_2  and  C2_4 
REMARK    2  A    between atoms: C2_4  and  C3_5 
REMARK    3  A    between atoms: C5_8  and  C6_9 
REMARK    4  A    between atoms: C6_9  and  N2_10 
REMARK    5  A    between atoms: N2_10  and  C7_12 
REMARK    6  A    between atoms: C7_12  and  C8_13 
REMARK    7  A    between atoms: C7_12  and  N5_33 
REMARK    8  A    between atoms: C8_13  and  C9_14 
REMARK    9  A    between atoms: C9_14  and  C10_15 
REMARK   10  A    between atoms: C10_15  and  C11_16 
REMARK       I    between atoms: C11_16  and  N3_18 
REMARK   11  A    between atoms: N3_18  and  C12_20 
REMARK   12  A    between atoms: C12_20  and  C13_21 
REMARK   13  A    between atoms: C14_22  and  N4_23 
REMARK   14  A    between atoms: N5_33  and  C21_34 
ROOT
HETATM    1  C8  UNL     1     -17.868 -17.718 -17.053  1.00  0.00     0.092 C 
ENDROOT
BRANCH   1   2
HETATM    2  C7  UNL     1     -19.037 -18.604 -17.406  1.00  0.00     0.145 C 
BRANCH   2   3
HETATM    3  N2  UNL     1     -19.955 -18.823 -16.325  1.00  0.00    -0.364 N 
ATOM      4  H2  UNL     1     -20.762 -19.428 -16.478  1.00  0.00     0.162 HD
BRANCH   3   5
HETATM    5  C6  UNL     1     -19.775 -18.215 -15.029  1.00  0.00     0.168 C 
BRANCH   5   6
HETATM    6  C5  UNL     1     -20.514 -16.899 -15.013  1.00  0.00     0.001 A 
HETATM    7  S1  UNL     1     -20.043 -15.410 -14.336  1.00  0.00    -0.104 SA
HETATM    8  C4  UNL     1     -21.407 -14.476 -14.746  1.00  0.00     0.058 A 
HETATM    9  C3  UNL     1     -22.212 -15.372 -15.416  1.00  0.00    -0.033 A 
HETATM   10  C25 UNL     1     -21.743 -16.617 -15.548  1.00  0.00     0.025 A 
BRANCH   9  11
HETATM   11  C2  UNL     1     -23.561 -14.913 -15.959  1.00  0.00     0.152 C 
BRANCH  11  12
HETATM   12  N1  UNL     1     -23.682 -15.216 -17.347  1.00  0.00    -0.422 N 
HETATM   13  C1  UNL     1     -24.792 -16.018 -17.713  1.00  0.00     0.140 C 
ATOM     14  H1  UNL     1     -23.011 -14.876 -18.036  1.00  0.00     0.153 HD
ENDBRANCH  11  12
ENDBRANCH   9  11
ENDBRANCH   5   6
ENDBRANCH   3   5
ENDBRANCH   2   3
BRANCH   2  15
HETATM   15  N5  UNL     1     -19.188 -19.070 -18.476  1.00  0.00    -0.425 NA
BRANCH  15  16
HETATM   16  C21 UNL     1     -19.252 -19.593 -19.710  1.00  0.00     0.084 C 
HETATM   17  C22 UNL     1     -18.503 -18.695 -20.718  1.00  0.00     0.053 C 
HETATM   18  C23 UNL     1     -20.721 -19.632 -20.180  1.00  0.00     0.053 C 
HETATM   19  C24 UNL     1     -18.670 -20.996 -19.886  1.00  0.00     0.053 C 
ENDBRANCH  15  16
ENDBRANCH   2  15
ENDBRANCH   1   2
BRANCH   1  20
HETATM   20  C9  UNL     1     -16.573 -18.544 -17.073  1.00  0.00     0.018 C 
BRANCH  20  21
HETATM   21  C10 UNL     1     -16.169 -18.669 -15.615  1.00  0.00     0.103 C 
BRANCH  21  22
HETATM   22  C11 UNL     1     -15.813 -20.047 -15.242  1.00  0.00     0.217 C 
HETATM   23  O1  UNL     1     -16.647 -20.979 -15.337  1.00  0.00    -0.274 OA
HETATM   24  N3  UNL     1     -14.496 -20.318 -14.769  1.00  0.00    -0.357 N 
ATOM     25  H3  UNL     1     -13.807 -19.570 -14.687  1.00  0.00     0.162 HD
BRANCH  24  26
HETATM   26  C12 UNL     1     -14.155 -21.682 -14.404  1.00  0.00     0.167 C 
BRANCH  26  27
HETATM   27  C13 UNL     1     -12.907 -22.084 -15.112  1.00  0.00     0.045 A 
HETATM   28  C14 UNL     1     -12.639 -22.371 -16.427  1.00  0.00     0.103 A 
HETATM   29  C19 UNL     1     -11.300 -22.593 -16.078  1.00  0.00     0.249 A 
HETATM   30  O3  UNL     1     -10.276 -22.921 -16.707  1.00  0.00    -0.282 OA
HETATM   31  C20 UNL     1     -11.591 -22.304 -14.771  1.00  0.00     0.234 A 
HETATM   32  O4  UNL     1     -10.940 -22.256 -13.706  1.00  0.00    -0.283 OA
BRANCH  28  33
HETATM   33  N4  UNL     1     -13.339 -22.452 -17.668  1.00  0.00    -0.314 N 
HETATM   34  C15 UNL     1     -13.388 -23.660 -18.472  1.00  0.00     0.133 C 
HETATM   35  C16 UNL     1     -14.049 -23.271 -19.739  1.00  0.00     0.029 C 
HETATM   36  C17 UNL     1     -14.968 -22.126 -19.319  1.00  0.00     0.105 C 
HETATM   37  C18 UNL     1     -14.077 -21.442 -18.311  1.00  0.00     0.224 C 
HETATM   38  O2  UNL     1     -14.053 -20.218 -18.139  1.00  0.00    -0.273 OA
ENDBRANCH  28  33
ENDBRANCH  26  27
ENDBRANCH  24  26
ENDBRANCH  21  22
ENDBRANCH  20  21
ENDBRANCH   1  20
TORSDOF 14
ENDMDL
MODEL 2
REMARK VINA RESULT: -8.356685953      1.089      1.439
REMARK  14 active torsions:
REMARK  status: ('A' for Active; 'I' for Inactive)
REMARK    1  A    between atoms: N1_2  and  C2_4 
REMARK    2  A    between atoms: C2_4  and  C3_5 
REMARK    3  A    between atoms: C5_8  and  C6_9 
REMARK    4  A    between atoms: C6_9  and  N2_10 
REMARK    5  A    between atoms: N2_10  and  C7_12 
REMARK    6  A    between atoms: C7_12  and  C8_13 
REMARK    7  A    between atoms: C7_12  and  N5_33 
REMARK    8  A    between atoms: C8_13  and  C9_14 
REMARK    9  A    between atoms: C9_14  and  C10_15 
REMARK   10  A    between atoms: C10_15  and  C11_16 
REMARK       I    between atoms: C11_16  and  N3_18 
REMARK   11  A    between atoms: N3_18  and  C12_20 
REMARK   12  A    between atoms: C12_20  and  C13_21 
REMARK   13  A    between atoms: C14_22  and  N4_23 
REMARK   14  A    between atoms: N5_33  and  C21_34 
ROOT
HETATM    1  C8  UNL     1     -17.778 -17.821 -17.104  1.00  0.00     0.092 C 
ENDROOT
BRANCH   1   2
HETATM    2  C7  UNL     1     -19.074 -18.191 -17.780  1.00  0.00     0.145 C 
BRANCH   2   3
HETATM    3  N2  UNL     1     -20.237 -17.600 -17.183  1.00  0.00    -0.364 N 
ATOM      4  H2  UNL     1     -20.774 -18.143 -16.506  1.00  0.00     0.162 HD
BRANCH   3   5
HETATM    5  C6  UNL     1     -20.673 -16.263 -17.507  1.00  0.00     0.168 C 
BRANCH   5   6
HETATM    6  C5  UNL     1     -20.982 -15.537 -16.220  1.00  0.00     0.001 A 
HETATM    7  S1  UNL     1     -20.050 -15.421 -14.801  1.00  0.00    -0.104 SA
HETATM    8  C4  UNL     1     -21.093 -14.453 -13.863  1.00  0.00     0.058 A 
HETATM    9  C3  UNL     1     -22.165 -14.241 -14.703  1.00  0.00    -0.033 A 
HETATM   10  C25 UNL     1     -22.099 -14.804 -15.914  1.00  0.00     0.025 A 
BRANCH   9  11
HETATM   11  C2  UNL     1     -23.343 -13.401 -14.224  1.00  0.00     0.152 C 
BRANCH  11  12
HETATM   12  N1  UNL     1     -24.021 -12.797 -15.324  1.00  0.00    -0.422 N 
HETATM   13  C1  UNL     1     -25.341 -13.254 -15.566  1.00  0.00     0.140 C 
ATOM     14  H1  UNL     1     -23.582 -12.080 -15.901  1.00  0.00     0.153 HD
ENDBRANCH  11  12
ENDBRANCH   9  11
ENDBRANCH   5   6
ENDBRANCH   3   5
ENDBRANCH   2   3
BRANCH   2  15
HETATM   15  N5  UNL     1     -19.128 -18.898 -18.719  1.00  0.00    -0.425 NA
BRANCH  15  16
HETATM   16  C21 UNL     1     -19.203 -19.615 -19.851  1.00  0.00     0.084 C 
HETATM   17  C22 UNL     1     -18.518 -20.986 -19.668  1.00  0.00     0.053 C 
HETATM   18  C23 UNL     1     -18.425 -18.894 -20.972  1.00  0.00     0.053 C 
HETATM   19  C24 UNL     1     -20.607 -19.914 -20.376  1.00  0.00     0.053 C 
ENDBRANCH  15  16
ENDBRANCH   2  15
ENDBRANCH   1   2
BRANCH   1  20
HETATM   20  C9  UNL     1     -17.680 -18.542 -15.751  1.00  0.00     0.018 C 
BRANCH  20  21
HETATM   21  C10 UNL     1     -16.190 -18.699 -15.502  1.00  0.00     0.103 C 
BRANCH  21  22
HETATM   22  C11 UNL     1     -15.818 -20.080 -15.154  1.00  0.00     0.217 C 
HETATM   23  O1  UNL     1     -16.641 -21.020 -15.267  1.00  0.00    -0.274 OA
HETATM   24  N3  UNL     1     -14.498 -20.344 -14.685  1.00  0.00    -0.357 N 
ATOM     25  H3  UNL     1     -13.818 -19.590 -14.590  1.00  0.00     0.162 HD
BRANCH  24  26
HETATM   26  C12 UNL     1     -14.141 -21.711 -14.346  1.00  0.00     0.167 C 
BRANCH  26  27
HETATM   27  C13 UNL     1     -12.891 -22.086 -15.065  1.00  0.00     0.045 A 
HETATM   28  C14 UNL     1     -12.625 -22.350 -16.385  1.00  0.00     0.103 A 
HETATM   29  C19 UNL     1     -11.283 -22.561 -16.046  1.00  0.00     0.249 A 
HETATM   30  O3  UNL     1     -10.258 -22.866 -16.684  1.00  0.00    -0.282 OA
HETATM   31  C20 UNL     1     -11.571 -22.294 -14.733  1.00  0.00     0.234 A 
HETATM   32  O4  UNL     1     -10.915 -22.254 -13.671  1.00  0.00    -0.283 OA
BRANCH  28  33
HETATM   33  N4  UNL     1     -13.331 -22.422 -17.624  1.00  0.00    -0.314 N 
HETATM   34  C15 UNL     1     -13.326 -23.602 -18.470  1.00  0.00     0.133 C 
HETATM   35  C16 UNL     1     -14.015 -23.203 -19.719  1.00  0.00     0.029 C 
HETATM   36  C17 UNL     1     -14.987 -22.120 -19.253  1.00  0.00     0.105 C 
HETATM   37  C18 UNL     1     -14.123 -21.428 -18.227  1.00  0.00     0.224 C 
HETATM   38  O2  UNL     1     -14.158 -20.212 -18.011  1.00  0.00    -0.273 OA
ENDBRANCH  28  33
ENDBRANCH  26  27
ENDBRANCH  24  26
ENDBRANCH  21  22
ENDBRANCH  20  21
ENDBRANCH   1  20
TORSDOF 14
ENDMDL
MODEL 3
REMARK VINA RESULT: -8.335421212      1.675      3.056
REMARK  14 active torsions:
REMARK  status: ('A' for Active; 'I' for Inactive)
REMARK    1  A    between atoms: N1_2  and  C2_4 
REMARK    2  A    between atoms: C2_4  and  C3_5 
REMARK    3  A    between atoms: C5_8  and  C6_9 
REMARK    4  A    between atoms: C6_9  and  N2_10 
REMARK    5  A    between atoms: N2_10  and  C7_12 
REMARK    6  A    between atoms: C7_12  and  C8_13 
REMARK    7  A    between atoms: C7_12  and  N5_33 
REMARK    8  A    between atoms: C8_13  and  C9_14 
REMARK    9  A    between atoms: C9_14  and  C10_15 
REMARK   10  A    between atoms: C10_15  and  C11_16 
REMARK       I    between atoms: C11_16  and  N3_18 
REMARK   11  A    between atoms: N3_18  and  C12_20 
REMARK   12  A    between atoms: C12_20  and  C13_21 
REMARK   13  A    between atoms: C14_22  and  N4_23 
REMARK   14  A    between atoms: N5_33  and  C21_34 
ROOT
HETATM    1  C8  UNL     1     -19.031 -19.576 -16.525  1.00  0.00     0.092 C 
ENDROOT
BRANCH   1   2
HETATM    2  C7  UNL     1     -19.208 -18.777 -17.792  1.00  0.00     0.145 C 
BRANCH   2   3
HETATM    3  N2  UNL     1     -19.170 -17.356 -17.600  1.00  0.00    -0.364 N 
ATOM      4  H2  UNL     1     -18.284 -16.916 -17.347  1.00  0.00     0.162 HD
BRANCH   3   5
HETATM    5  C6  UNL     1     -20.341 -16.527 -17.752  1.00  0.00     0.168 C 
BRANCH   5   6
HETATM    6  C5  UNL     1     -20.626 -15.856 -16.430  1.00  0.00     0.001 A 
HETATM    7  S1  UNL     1     -19.799 -16.001 -14.951  1.00  0.00    -0.104 SA
HETATM    8  C4  UNL     1     -20.739 -14.943 -14.003  1.00  0.00     0.058 A 
HETATM    9  C3  UNL     1     -21.696 -14.494 -14.887  1.00  0.00    -0.033 A 
HETATM   10  C25 UNL     1     -21.629 -14.970 -16.135  1.00  0.00     0.025 A 
BRANCH   9  11
HETATM   11  C2  UNL     1     -22.755 -13.506 -14.414  1.00  0.00     0.152 C 
BRANCH  11  12
HETATM   12  N1  UNL     1     -23.630 -13.145 -15.481  1.00  0.00    -0.422 N 
HETATM   13  C1  UNL     1     -24.987 -13.526 -15.326  1.00  0.00     0.140 C 
ATOM     14  H1  UNL     1     -23.300 -12.643 -16.305  1.00  0.00     0.153 HD
ENDBRANCH  11  12
ENDBRANCH   9  11
ENDBRANCH   5   6
ENDBRANCH   3   5
ENDBRANCH   2   3
BRANCH   2  15
HETATM   15  N5  UNL     1     -19.359 -19.275 -18.848  1.00  0.00    -0.425 NA
BRANCH  15  16
HETATM   16  C21 UNL     1     -19.517 -19.744 -20.095  1.00  0.00     0.084 C 
HETATM   17  C22 UNL     1     -18.678 -18.918 -21.093  1.00  0.00     0.053 C 
HETATM   18  C23 UNL     1     -20.988 -19.574 -20.529  1.00  0.00     0.053 C 
HETATM   19  C24 UNL     1     -19.128 -21.203 -20.328  1.00  0.00     0.053 C 
ENDBRANCH  15  16
ENDBRANCH   2  15
ENDBRANCH   1   2
BRANCH   1  20
HETATM   20  C9  UNL     1     -17.546 -19.928 -16.343  1.00  0.00     0.018 C 
BRANCH  20  21
HETATM   21  C10 UNL     1     -17.397 -21.312 -16.947  1.00  0.00     0.103 C 
BRANCH  21  22
HETATM   22  C11 UNL     1     -16.282 -21.396 -17.902  1.00  0.00     0.217 C 
HETATM   23  O1  UNL     1     -16.018 -20.442 -18.674  1.00  0.00    -0.274 OA
HETATM   24  N3  UNL     1     -15.492 -22.581 -17.943  1.00  0.00    -0.357 N 
ATOM     25  H3  UNL     1     -15.694 -23.364 -17.321  1.00  0.00     0.162 HD
BRANCH  24  26
HETATM   26  C12 UNL     1     -14.392 -22.653 -18.890  1.00  0.00     0.167 C 
BRANCH  26  27
HETATM   27  C13 UNL     1     -13.114 -22.839 -18.147  1.00  0.00     0.045 A 
HETATM   28  C14 UNL     1     -12.721 -22.494 -16.878  1.00  0.00     0.103 A 
HETATM   29  C19 UNL     1     -11.473 -23.075 -17.135  1.00  0.00     0.249 A 
HETATM   30  O3  UNL     1     -10.425 -23.221 -16.478  1.00  0.00    -0.282 OA
HETATM   31  C20 UNL     1     -11.886 -23.409 -18.398  1.00  0.00     0.234 A 
HETATM   32  O4  UNL     1     -11.370 -23.990 -19.376  1.00  0.00    -0.283 OA
BRANCH  28  33
HETATM   33  N4  UNL     1     -13.259 -21.827 -15.737  1.00  0.00    -0.314 N 
HETATM   34  C15 UNL     1     -13.708 -20.446 -15.766  1.00  0.00     0.133 C 
HETATM   35  C16 UNL     1     -14.016 -20.095 -14.360  1.00  0.00     0.029 C 
HETATM   36  C17 UNL     1     -14.431 -21.432 -13.748  1.00  0.00     0.105 C 
HETATM   37  C18 UNL     1     -13.452 -22.345 -14.444  1.00  0.00     0.224 C 
HETATM   38  O2  UNL     1     -12.953 -23.344 -13.914  1.00  0.00    -0.273 OA
ENDBRANCH  28  33
ENDBRANCH  26  27
ENDBRANCH  24  26
ENDBRANCH  21  22
ENDBRANCH  20  21
ENDBRANCH   1  20
TORSDOF 14
ENDMDL
MODEL 4
REMARK VINA RESULT: -8.309950084      1.553      2.123
REMARK  14 active torsions:
REMARK  status: ('A' for Active; 'I' for Inactive)
REMARK    1  A    between atoms: N1_2  and  C2_4 
REMARK    2  A    between atoms: C2_4  and  C3_5 
REMARK    3  A    between atoms: C5_8  and  C6_9 
REMARK    4  A    between atoms: C6_9  and  N2_10 
REMARK    5  A    between atoms: N2_10  and  C7_12 
REMARK    6  A    between atoms: C7_12  and  C8_13 
REMARK    7  A    between atoms: C7_12  and  N5_33 
REMARK    8  A    between atoms: C8_13  and  C9_14 
REMARK    9  A    between atoms: C9_14  and  C10_15 
REMARK   10  A    between atoms: C10_15  and  C11_16 
REMARK       I    between atoms: C11_16  and  N3_18 
REMARK   11  A    between atoms: N3_18  and  C12_20 
REMARK   12  A    between atoms: C12_20  and  C13_21 
REMARK   13  A    between atoms: C14_22  and  N4_23 
REMARK   14  A    between atoms: N5_33  and  C21_34 
ROOT
HETATM    1  C8  UNL     1     -18.162 -17.815 -16.610  1.00  0.00     0.092 C 
ENDROOT
BRANCH   1   2
HETATM    2  C7  UNL     1     -19.264 -18.119 -17.593  1.00  0.00     0.145 C 
BRANCH   2   3
HETATM    3  N2  UNL     1     -20.507 -17.463 -17.303  1.00  0.00    -0.364 N 
ATOM      4  H2  UNL     1     -21.256 -17.998 -16.862  1.00  0.00     0.162 HD
BRANCH   3   5
HETATM    5  C6  UNL     1     -20.733 -16.073 -17.614  1.00  0.00     0.168 C 
BRANCH   5   6
HETATM    6  C5  UNL     1     -21.147 -15.361 -16.349  1.00  0.00     0.001 A 
HETATM    7  S1  UNL     1     -20.294 -15.184 -14.887  1.00  0.00    -0.104 SA
HETATM    8  C4  UNL     1     -21.437 -14.277 -14.008  1.00  0.00     0.058 A 
HETATM    9  C3  UNL     1     -22.478 -14.134 -14.899  1.00  0.00    -0.033 A 
HETATM   10  C25 UNL     1     -22.319 -14.696 -16.102  1.00  0.00     0.025 A 
BRANCH   9  11
HETATM   11  C2  UNL     1     -23.725 -13.364 -14.482  1.00  0.00     0.152 C 
BRANCH  11  12
HETATM   12  N1  UNL     1     -24.342 -12.743 -15.609  1.00  0.00    -0.422 N 
HETATM   13  C1  UNL     1     -25.644 -13.200 -15.935  1.00  0.00     0.140 C 
ATOM     14  H1  UNL     1     -23.874 -12.013 -16.147  1.00  0.00     0.153 HD
ENDBRANCH  11  12
ENDBRANCH   9  11
ENDBRANCH   5   6
ENDBRANCH   3   5
ENDBRANCH   2   3
BRANCH   2  15
HETATM   15  N5  UNL     1     -19.117 -18.827 -18.522  1.00  0.00    -0.425 NA
BRANCH  15  16
HETATM   16  C21 UNL     1     -19.022 -19.573 -19.633  1.00  0.00     0.084 C 
HETATM   17  C22 UNL     1     -18.274 -18.800 -20.740  1.00  0.00     0.053 C 
HETATM   18  C23 UNL     1     -20.433 -19.858 -20.188  1.00  0.00     0.053 C 
HETATM   19  C24 UNL     1     -18.296 -20.911 -19.494  1.00  0.00     0.053 C 
ENDBRANCH  15  16
ENDBRANCH   2  15
ENDBRANCH   1   2
BRANCH   1  20
HETATM   20  C9  UNL     1     -18.472 -18.490 -15.265  1.00  0.00     0.018 C 
BRANCH  20  21
HETATM   21  C10 UNL     1     -17.155 -19.101 -14.823  1.00  0.00     0.103 C 
BRANCH  21  22
HETATM   22  C11 UNL     1     -16.626 -20.070 -15.795  1.00  0.00     0.217 C 
HETATM   23  O1  UNL     1     -17.216 -21.155 -16.013  1.00  0.00    -0.274 OA
HETATM   24  N3  UNL     1     -15.424 -19.762 -16.497  1.00  0.00    -0.357 N 
ATOM     25  H3  UNL     1     -14.934 -18.883 -16.330  1.00  0.00     0.162 HD
BRANCH  24  26
HETATM   26  C12 UNL     1     -14.912 -20.726 -17.455  1.00  0.00     0.167 C 
BRANCH  26  27
HETATM   27  C13 UNL     1     -13.800 -21.499 -16.831  1.00  0.00     0.045 A 
HETATM   28  C14 UNL     1     -13.036 -22.546 -17.277  1.00  0.00     0.103 A 
HETATM   29  C19 UNL     1     -12.338 -22.521 -16.063  1.00  0.00     0.249 A 
HETATM   30  O3  UNL     1     -11.400 -23.183 -15.580  1.00  0.00    -0.282 OA
HETATM   31  C20 UNL     1     -13.114 -21.475 -15.637  1.00  0.00     0.234 A 
HETATM   32  O4  UNL     1     -13.178 -20.782 -14.600  1.00  0.00    -0.283 OA
BRANCH  28  33
HETATM   33  N4  UNL     1     -12.929 -23.375 -18.435  1.00  0.00    -0.314 N 
HETATM   34  C15 UNL     1     -14.081 -23.812 -19.204  1.00  0.00     0.133 C 
HETATM   35  C16 UNL     1     -13.557 -24.783 -20.193  1.00  0.00     0.029 C 
HETATM   36  C17 UNL     1     -12.124 -24.307 -20.427  1.00  0.00     0.105 C 
HETATM   37  C18 UNL     1     -11.761 -23.893 -19.022  1.00  0.00     0.224 C 
HETATM   38  O2  UNL     1     -10.628 -24.017 -18.544  1.00  0.00    -0.273 OA
ENDBRANCH  28  33
ENDBRANCH  26  27
ENDBRANCH  24  26
ENDBRANCH  21  22
ENDBRANCH  20  21
ENDBRANCH   1  20
TORSDOF 14
ENDMDL
MODEL 5
REMARK VINA RESULT: -8.217797038      2.738      4.672
REMARK  14 active torsions:
REMARK  status: ('A' for Active; 'I' for Inactive)
REMARK    1  A    between atoms: N1_2  and  C2_4 
REMARK    2  A    between atoms: C2_4  and  C3_5 
REMARK    3  A    between atoms: C5_8  and  C6_9 
REMARK    4  A    between atoms: C6_9  and  N2_10 
REMARK    5  A    between atoms: N2_10  and  C7_12 
REMARK    6  A    between atoms: C7_12  and  C8_13 
REMARK    7  A    between atoms: C7_12  and  N5_33 
REMARK    8  A    between atoms: C8_13  and  C9_14 
REMARK    9  A    between atoms: C9_14  and  C10_15 
REMARK   10  A    between atoms: C10_15  and  C11_16 
REMARK       I    between atoms: C11_16  and  N3_18 
REMARK   11  A    between atoms: N3_18  and  C12_20 
REMARK   12  A    between atoms: C12_20  and  C13_21 
REMARK   13  A    between atoms: C14_22  and  N4_23 
REMARK   14  A    between atoms: N5_33  and  C21_34 
ROOT
HETATM    1  C8  UNL     1     -16.430 -20.005 -14.876  1.00  0.00     0.092 C 
ENDROOT
BRANCH   1   2
HETATM    2  C7  UNL     1     -16.813 -18.840 -15.754  1.00  0.00     0.145 C 
BRANCH   2   3
HETATM    3  N2  UNL     1     -15.926 -18.624 -16.861  1.00  0.00    -0.364 N 
ATOM      4  H2  UNL     1     -14.944 -18.881 -16.764  1.00  0.00     0.162 HD
BRANCH   3   5
HETATM    5  C6  UNL     1     -16.378 -18.055 -18.108  1.00  0.00     0.168 C 
BRANCH   5   6
HETATM    6  C5  UNL     1     -17.236 -19.077 -18.815  1.00  0.00     0.001 A 
HETATM    7  S1  UNL     1     -16.920 -20.721 -19.119  1.00  0.00    -0.104 SA
HETATM    8  C4  UNL     1     -18.355 -21.132 -19.940  1.00  0.00     0.058 A 
HETATM    9  C3  UNL     1     -19.059 -19.947 -19.955  1.00  0.00    -0.033 A 
HETATM   10  C25 UNL     1     -18.474 -18.895 -19.373  1.00  0.00     0.025 A 
BRANCH   9  11
HETATM   11  C2  UNL     1     -20.431 -19.895 -20.616  1.00  0.00     0.152 C 
BRANCH  11  12
HETATM   12  N1  UNL     1     -21.387 -19.272 -19.760  1.00  0.00    -0.422 N 
HETATM   13  C1  UNL     1     -22.611 -18.893 -20.367  1.00  0.00     0.140 C 
ATOM     14  H1  UNL     1     -21.201 -19.109 -18.770  1.00  0.00     0.153 HD
ENDBRANCH  11  12
ENDBRANCH   9  11
ENDBRANCH   5   6
ENDBRANCH   3   5
ENDBRANCH   2   3
BRANCH   2  15
HETATM   15  N5  UNL     1     -17.759 -18.170 -15.553  1.00  0.00    -0.425 NA
BRANCH  15  16
HETATM   16  C21 UNL     1     -18.816 -17.415 -15.217  1.00  0.00     0.084 C 
HETATM   17  C22 UNL     1     -18.465 -16.488 -14.033  1.00  0.00     0.053 C 
HETATM   18  C23 UNL     1     -19.964 -18.322 -14.725  1.00  0.00     0.053 C 
HETATM   19  C24 UNL     1     -19.377 -16.505 -16.309  1.00  0.00     0.053 C 
ENDBRANCH  15  16
ENDBRANCH   2  15
ENDBRANCH   1   2
BRANCH   1  20
HETATM   20  C9  UNL     1     -15.427 -20.901 -15.619  1.00  0.00     0.018 C 
BRANCH  20  21
HETATM   21  C10 UNL     1     -14.491 -21.415 -14.540  1.00  0.00     0.103 C 
BRANCH  21  22
HETATM   22  C11 UNL     1     -13.102 -21.541 -15.009  1.00  0.00     0.217 C 
HETATM   23  O1  UNL     1     -12.263 -20.632 -14.800  1.00  0.00    -0.274 OA
HETATM   24  N3  UNL     1     -12.712 -22.719 -15.710  1.00  0.00    -0.357 N 
ATOM     25  H3  UNL     1     -13.384 -23.467 -15.886  1.00  0.00     0.162 HD
BRANCH  24  26
HETATM   26  C12 UNL     1     -11.338 -22.834 -16.168  1.00  0.00     0.167 C 
BRANCH  26  27
HETATM   27  C13 UNL     1     -11.098 -24.218 -16.665  1.00  0.00     0.045 A 
HETATM   28  C14 UNL     1     -11.468 -24.865 -17.817  1.00  0.00     0.103 A 
HETATM   29  C19 UNL     1     -10.796 -26.006 -17.360  1.00  0.00     0.249 A 
HETATM   30  O3  UNL     1     -10.608 -27.151 -17.815  1.00  0.00    -0.282 OA
HETATM   31  C20 UNL     1     -10.438 -25.341 -16.217  1.00  0.00     0.234 A 
HETATM   32  O4  UNL     1      -9.786 -25.626 -15.191  1.00  0.00    -0.283 OA
BRANCH  28  33
HETATM   33  N4  UNL     1     -12.215 -24.595 -19.003  1.00  0.00    -0.314 N 
HETATM   34  C15 UNL     1     -11.713 -24.876 -20.336  1.00  0.00     0.133 C 
HETATM   35  C16 UNL     1     -12.703 -24.290 -21.269  1.00  0.00     0.029 C 
HETATM   36  C17 UNL     1     -14.014 -24.373 -20.487  1.00  0.00     0.105 C 
HETATM   37  C18 UNL     1     -13.505 -24.044 -19.104  1.00  0.00     0.224 C 
HETATM   38  O2  UNL     1     -14.156 -23.406 -18.270  1.00  0.00    -0.273 OA
ENDBRANCH  28  33
ENDBRANCH  26  27
ENDBRANCH  24  26
ENDBRANCH  21  22
ENDBRANCH  20  21
ENDBRANCH   1  20
TORSDOF 14
ENDMDL
