MODEL 1
REMARK VINA RESULT: -9.320116253      0.000      0.000
REMARK  11 active torsions:
REMARK  status: ('A' for Active; 'I' for Inactive)
REMARK    1  A    between atoms: C2_2  and  C3_3 
REMARK    2  A    between atoms: C3_3  and  C4_4 
REMARK    3  A    between atoms: C4_4  and  C5_5 
REMARK    4  A    between atoms: C7_7  and  C8_8 
REMARK    5  A    between atoms: N1_9  and  N2_11 
REMARK    6  A    between atoms: C12_18  and  N5_19 
REMARK    7  A    between atoms: N7_28  and  C18_29 
REMARK    8  A    between atoms: C18_29  and  C19_30 
REMARK    9  A    between atoms: C19_30  and  C20_31 
REMARK   10  A    between atoms: C20_31  and  C21_32 
REMARK   11  A    between atoms: C21_32  and  N8_33 
ROOT
HETATM    1  N5  UNL     1     -15.965 -20.270 -16.154  1.00  0.00    -0.191 N 
ATOM      2  H5  UNL     1     -15.658 -20.252 -17.126  1.00  0.00     0.184 HD
HETATM    3  C13 UNL     1     -15.193 -20.900 -15.362  1.00  0.00     0.684 A 
HETATM    4  N6  UNL     1     -14.050 -21.483 -15.860  1.00  0.00    -0.175 N 
ATOM      5  H6  UNL     1     -13.822 -21.402 -16.851  1.00  0.00     0.186 HD
HETATM    6  C14 UNL     1     -13.237 -22.157 -15.034  1.00  0.00     0.134 A 
HETATM    7  C15 UNL     1     -13.542 -22.267 -13.698  1.00  0.00     0.026 A 
HETATM    8  C16 UNL     1     -12.525 -23.016 -13.133  1.00  0.00     0.034 A 
HETATM    9  C17 UNL     1     -11.667 -23.320 -14.138  1.00  0.00     0.093 A 
HETATM   10  N7  UNL     1     -12.065 -22.814 -15.311  1.00  0.00    -0.342 N 
HETATM   11  C27 UNL     1     -14.710 -21.668 -13.205  1.00  0.00     0.121 A 
HETATM   12  N10 UNL     1     -15.492 -21.005 -14.063  1.00  0.00    -0.201 N 
ATOM     13  H10 UNL     1     -16.344 -20.564 -13.716  1.00  0.00     0.183 HD
ENDROOT
BRANCH   1  14
HETATM   14  C12 UNL     1     -17.168 -19.600 -15.905  1.00  0.00     0.055 A 
HETATM   15  C5  UNL     1     -18.327 -19.733 -16.614  1.00  0.00    -0.030 A 
HETATM   16  C6  UNL     1     -19.462 -19.048 -16.290  1.00  0.00     0.022 A 
HETATM   17  C7  UNL     1     -19.495 -18.192 -15.237  1.00  0.00    -0.019 A 
HETATM   18  C10 UNL     1     -18.343 -18.018 -14.480  1.00  0.00     0.015 A 
HETATM   19  C11 UNL     1     -17.203 -18.712 -14.813  1.00  0.00     0.031 A 
BRANCH  15  20
HETATM   20  C4  UNL     1     -18.336 -20.663 -17.760  1.00  0.00     0.041 C 
BRANCH  20  21
HETATM   21  C3  UNL     1     -18.194 -20.029 -19.097  1.00  0.00     0.004 C 
BRANCH  21  22
HETATM   22  C2  UNL     1     -17.820 -21.007 -20.169  1.00  0.00    -0.004 C 
HETATM   23  C1  UNL     1     -19.069 -21.463 -20.896  1.00  0.00     0.005 C 
ENDBRANCH  21  22
ENDBRANCH  20  21
ENDBRANCH  15  20
BRANCH  17  24
HETATM   24  C8  UNL     1     -20.732 -17.440 -14.908  1.00  0.00     0.118 C 
HETATM   25  N1  UNL     1     -21.541 -17.247 -15.782  1.00  0.00    -0.309 N 
ATOM     26  H1  UNL     1     -21.082 -17.710 -16.566  1.00  0.00     0.186 HD
BRANCH  25  27
HETATM   27  N2  UNL     1     -22.627 -16.823 -16.359  1.00  0.00    -0.276 N 
HETATM   28  C9  UNL     1     -22.780 -16.174 -17.459  1.00  0.00     0.215 C 
HETATM   29  N3  UNL     1     -21.632 -15.830 -18.224  1.00  0.00    -0.065 NA
HETATM   30  N4  UNL     1     -24.071 -15.817 -17.869  1.00  0.00    -0.065 NA
ATOM     31  H2  UNL     1     -23.491 -17.039 -15.862  1.00  0.00     0.189 HD
ENDBRANCH  25  27
ENDBRANCH  17  24
ENDBRANCH   1  14
BRANCH  10  32
HETATM   32  C18 UNL     1     -11.469 -22.867 -16.629  1.00  0.00     0.130 C 
BRANCH  32  33
HETATM   33  C19 UNL     1     -10.415 -23.909 -16.764  1.00  0.00     0.022 C 
BRANCH  33  34
HETATM   34  C20 UNL     1     -10.799 -25.175 -17.434  1.00  0.00     0.032 C 
BRANCH  34  35
HETATM   35  C21 UNL     1     -10.713 -25.138 -18.924  1.00  0.00     0.272 C 
BRANCH  35  36
HETATM   36  N8  UNL     1     -11.931 -25.653 -19.524  1.00  0.00     0.091 N 
HETATM   37  C22 UNL     1     -12.032 -25.117 -20.853  1.00  0.00     0.302 C 
HETATM   38  C23 UNL     1     -12.692 -23.749 -20.876  1.00  0.00     0.302 C 
HETATM   39  N9  UNL     1     -13.984 -23.838 -20.271  1.00  0.00     0.087 N 
HETATM   40  C24 UNL     1     -14.214 -22.778 -19.312  1.00  0.00     0.310 C 
HETATM   41  C25 UNL     1     -14.255 -25.097 -19.631  1.00  0.00     0.302 C 
HETATM   42  C26 UNL     1     -13.090 -25.414 -18.723  1.00  0.00     0.302 C 
ENDBRANCH  35  36
ENDBRANCH  34  35
ENDBRANCH  33  34
ENDBRANCH  32  33
ENDBRANCH  10  32
TORSDOF 11
ENDMDL
MODEL 2
REMARK VINA RESULT: -9.134087967      3.079      7.061
REMARK  11 active torsions:
REMARK  status: ('A' for Active; 'I' for Inactive)
REMARK    1  A    between atoms: C2_2  and  C3_3 
REMARK    2  A    between atoms: C3_3  and  C4_4 
REMARK    3  A    between atoms: C4_4  and  C5_5 
REMARK    4  A    between atoms: C7_7  and  C8_8 
REMARK    5  A    between atoms: N1_9  and  N2_11 
REMARK    6  A    between atoms: C12_18  and  N5_19 
REMARK    7  A    between atoms: N7_28  and  C18_29 
REMARK    8  A    between atoms: C18_29  and  C19_30 
REMARK    9  A    between atoms: C19_30  and  C20_31 
REMARK   10  A    between atoms: C20_31  and  C21_32 
REMARK   11  A    between atoms: C21_32  and  N8_33 
ROOT
HETATM    1  N5  UNL     1     -20.770 -17.359 -16.477  1.00  0.00    -0.191 N 
ATOM      2  H5  UNL     1     -20.439 -17.947 -15.711  1.00  0.00     0.184 HD
HETATM    3  C13 UNL     1     -20.342 -17.693 -17.628  1.00  0.00     0.684 A 
HETATM    4  N6  UNL     1     -19.500 -18.776 -17.744  1.00  0.00    -0.175 N 
ATOM      5  H6  UNL     1     -19.232 -19.308 -16.917  1.00  0.00     0.186 HD
HETATM    6  C14 UNL     1     -19.037 -19.126 -18.953  1.00  0.00     0.134 A 
HETATM    7  C15 UNL     1     -19.398 -18.409 -20.069  1.00  0.00     0.026 A 
HETATM    8  C16 UNL     1     -18.756 -19.012 -21.136  1.00  0.00     0.034 A 
HETATM    9  C17 UNL     1     -18.048 -20.048 -20.623  1.00  0.00     0.093 A 
HETATM   10  N7  UNL     1     -18.193 -20.151 -19.298  1.00  0.00    -0.342 N 
HETATM   11  C27 UNL     1     -20.256 -17.308 -19.935  1.00  0.00     0.121 A 
HETATM   12  N10 UNL     1     -20.696 -16.994 -18.712  1.00  0.00    -0.201 N 
ATOM     13  H10 UNL     1     -21.322 -16.196 -18.602  1.00  0.00     0.183 HD
ENDROOT
BRANCH   1  14
HETATM   14  C12 UNL     1     -21.621 -16.317 -16.093  1.00  0.00     0.055 A 
HETATM   15  C5  UNL     1     -21.280 -15.238 -15.329  1.00  0.00    -0.030 A 
HETATM   16  C6  UNL     1     -22.175 -14.257 -15.013  1.00  0.00     0.022 A 
HETATM   17  C7  UNL     1     -23.461 -14.306 -15.449  1.00  0.00    -0.019 A 
HETATM   18  C10 UNL     1     -23.861 -15.382 -16.230  1.00  0.00     0.015 A 
HETATM   19  C11 UNL     1     -22.954 -16.367 -16.543  1.00  0.00     0.031 A 
BRANCH  15  20
HETATM   20  C4  UNL     1     -19.890 -15.142 -14.845  1.00  0.00     0.041 C 
BRANCH  20  21
HETATM   21  C3  UNL     1     -19.485 -16.174 -13.855  1.00  0.00     0.004 C 
BRANCH  21  22
HETATM   22  C2  UNL     1     -18.061 -16.612 -14.019  1.00  0.00    -0.004 C 
HETATM   23  C1  UNL     1     -18.024 -18.073 -14.422  1.00  0.00     0.005 C 
ENDBRANCH  21  22
ENDBRANCH  20  21
ENDBRANCH  15  20
BRANCH  17  24
HETATM   24  C8  UNL     1     -24.427 -13.240 -15.082  1.00  0.00     0.118 C 
HETATM   25  N1  UNL     1     -24.639 -12.354 -15.874  1.00  0.00    -0.309 N 
ATOM     26  H1  UNL     1     -24.026 -12.637 -16.638  1.00  0.00     0.186 HD
BRANCH  25  27
HETATM   27  N2  UNL     1     -25.152 -11.267 -16.371  1.00  0.00    -0.276 N 
HETATM   28  C9  UNL     1     -26.374 -10.868 -16.399  1.00  0.00     0.215 C 
HETATM   29  N3  UNL     1     -27.382 -11.684 -15.816  1.00  0.00    -0.065 NA
HETATM   30  N4  UNL     1     -26.680  -9.645 -17.012  1.00  0.00    -0.065 NA
ATOM     31  H2  UNL     1     -24.481 -10.634 -16.805  1.00  0.00     0.189 HD
ENDBRANCH  25  27
ENDBRANCH  17  24
ENDBRANCH   1  14
BRANCH  10  32
HETATM   32  C18 UNL     1     -17.650 -21.096 -18.344  1.00  0.00     0.130 C 
BRANCH  32  33
HETATM   33  C19 UNL     1     -16.272 -21.551 -18.677  1.00  0.00     0.022 C 
BRANCH  33  34
HETATM   34  C20 UNL     1     -15.293 -21.609 -17.565  1.00  0.00     0.032 C 
BRANCH  34  35
HETATM   35  C21 UNL     1     -14.646 -20.303 -17.240  1.00  0.00     0.272 C 
BRANCH  35  36
HETATM   36  N8  UNL     1     -14.906 -19.927 -15.862  1.00  0.00     0.091 N 
HETATM   37  C22 UNL     1     -13.678 -19.443 -15.295  1.00  0.00     0.302 C 
HETATM   38  C23 UNL     1     -12.815 -20.565 -14.743  1.00  0.00     0.302 C 
HETATM   39  N9  UNL     1     -13.561 -21.302 -13.771  1.00  0.00     0.087 N 
HETATM   40  C24 UNL     1     -13.462 -22.732 -13.972  1.00  0.00     0.310 C 
HETATM   41  C25 UNL     1     -14.953 -20.948 -13.699  1.00  0.00     0.302 C 
HETATM   42  C26 UNL     1     -15.511 -20.976 -15.103  1.00  0.00     0.302 C 
ENDBRANCH  35  36
ENDBRANCH  34  35
ENDBRANCH  33  34
ENDBRANCH  32  33
ENDBRANCH  10  32
TORSDOF 11
ENDMDL
MODEL 3
REMARK VINA RESULT: -9.072337433      2.566     10.449
REMARK  11 active torsions:
REMARK  status: ('A' for Active; 'I' for Inactive)
REMARK    1  A    between atoms: C2_2  and  C3_3 
REMARK    2  A    between atoms: C3_3  and  C4_4 
REMARK    3  A    between atoms: C4_4  and  C5_5 
REMARK    4  A    between atoms: C7_7  and  C8_8 
REMARK    5  A    between atoms: N1_9  and  N2_11 
REMARK    6  A    between atoms: C12_18  and  N5_19 
REMARK    7  A    between atoms: N7_28  and  C18_29 
REMARK    8  A    between atoms: C18_29  and  C19_30 
REMARK    9  A    between atoms: C19_30  and  C20_31 
REMARK   10  A    between atoms: C20_31  and  C21_32 
REMARK   11  A    between atoms: C21_32  and  N8_33 
ROOT
HETATM    1  N5  UNL     1     -19.384 -19.291 -17.260  1.00  0.00    -0.191 N 
ATOM      2  H5  UNL     1     -20.256 -19.591 -17.696  1.00  0.00     0.184 HD
HETATM    3  C13 UNL     1     -19.491 -18.279 -16.495  1.00  0.00     0.684 A 
HETATM    4  N6  UNL     1     -20.725 -17.694 -16.323  1.00  0.00    -0.175 N 
ATOM      5  H6  UNL     1     -21.544 -18.074 -16.798  1.00  0.00     0.186 HD
HETATM    6  C14 UNL     1     -20.844 -16.622 -15.528  1.00  0.00     0.134 A 
HETATM    7  C15 UNL     1     -19.741 -16.108 -14.887  1.00  0.00     0.026 A 
HETATM    8  C16 UNL     1     -20.191 -15.018 -14.163  1.00  0.00     0.034 A 
HETATM    9  C17 UNL     1     -21.524 -14.926 -14.396  1.00  0.00     0.093 A 
HETATM   10  N7  UNL     1     -21.959 -15.884 -15.221  1.00  0.00    -0.342 N 
HETATM   11  C27 UNL     1     -18.490 -16.714 -15.072  1.00  0.00     0.121 A 
HETATM   12  N10 UNL     1     -18.417 -17.782 -15.873  1.00  0.00    -0.201 N 
ATOM     13  H10 UNL     1     -17.513 -18.232 -16.014  1.00  0.00     0.183 HD
ENDROOT
BRANCH   1  14
HETATM   14  C12 UNL     1     -18.263 -20.056 -17.599  1.00  0.00     0.055 A 
HETATM   15  C5  UNL     1     -17.471 -19.882 -18.697  1.00  0.00    -0.030 A 
HETATM   16  C6  UNL     1     -16.383 -20.670 -18.943  1.00  0.00     0.022 A 
HETATM   17  C7  UNL     1     -16.032 -21.674 -18.099  1.00  0.00    -0.019 A 
HETATM   18  C10 UNL     1     -16.803 -21.895 -16.965  1.00  0.00     0.015 A 
HETATM   19  C11 UNL     1     -17.898 -21.097 -16.725  1.00  0.00     0.031 A 
BRANCH  15  20
HETATM   20  C4  UNL     1     -17.811 -18.794 -19.634  1.00  0.00     0.041 C 
BRANCH  20  21
HETATM   21  C3  UNL     1     -18.321 -19.230 -20.960  1.00  0.00     0.004 C 
BRANCH  21  22
HETATM   22  C2  UNL     1     -19.470 -20.187 -20.857  1.00  0.00    -0.004 C 
HETATM   23  C1  UNL     1     -19.080 -21.515 -21.476  1.00  0.00     0.005 C 
ENDBRANCH  21  22
ENDBRANCH  20  21
ENDBRANCH  15  20
BRANCH  17  24
HETATM   24  C8  UNL     1     -14.857 -22.534 -18.389  1.00  0.00     0.118 C 
HETATM   25  N1  UNL     1     -13.937 -22.539 -17.608  1.00  0.00    -0.309 N 
ATOM     26  H1  UNL     1     -14.283 -21.883 -16.909  1.00  0.00     0.186 HD
BRANCH  25  27
HETATM   27  N2  UNL     1     -12.784 -22.851 -17.093  1.00  0.00    -0.276 N 
HETATM   28  C9  UNL     1     -11.733 -23.337 -17.650  1.00  0.00     0.215 C 
HETATM   29  N3  UNL     1     -11.751 -23.602 -19.047  1.00  0.00    -0.065 NA
HETATM   30  N4  UNL     1     -10.602 -23.600 -16.865  1.00  0.00    -0.065 NA
ATOM     31  H2  UNL     1     -12.702 -22.683 -16.090  1.00  0.00     0.189 HD
ENDBRANCH  25  27
ENDBRANCH  17  24
ENDBRANCH   1  14
BRANCH  10  32
HETATM   32  C18 UNL     1     -23.281 -16.184 -15.729  1.00  0.00     0.130 C 
BRANCH  32  33
HETATM   33  C19 UNL     1     -23.526 -15.656 -17.099  1.00  0.00     0.022 C 
BRANCH  33  34
HETATM   34  C20 UNL     1     -24.079 -16.602 -18.098  1.00  0.00     0.032 C 
BRANCH  34  35
HETATM   35  C21 UNL     1     -25.255 -17.389 -17.623  1.00  0.00     0.272 C 
BRANCH  35  36
HETATM   36  N8  UNL     1     -26.110 -17.761 -18.736  1.00  0.00     0.091 N 
HETATM   37  C22 UNL     1     -26.121 -19.195 -18.825  1.00  0.00     0.302 C 
HETATM   38  C23 UNL     1     -24.957 -19.733 -19.641  1.00  0.00     0.302 C 
HETATM   39  N9  UNL     1     -24.985 -19.148 -20.945  1.00  0.00     0.087 N 
HETATM   40  C24 UNL     1     -23.686 -18.655 -21.353  1.00  0.00     0.310 C 
HETATM   41  C25 UNL     1     -25.942 -18.086 -21.100  1.00  0.00     0.302 C 
HETATM   42  C26 UNL     1     -25.746 -17.116 -19.958  1.00  0.00     0.302 C 
ENDBRANCH  35  36
ENDBRANCH  34  35
ENDBRANCH  33  34
ENDBRANCH  32  33
ENDBRANCH  10  32
TORSDOF 11
ENDMDL
MODEL 4
REMARK VINA RESULT: -9.043667951      2.577     10.938
REMARK  11 active torsions:
REMARK  status: ('A' for Active; 'I' for Inactive)
REMARK    1  A    between atoms: C2_2  and  C3_3 
REMARK    2  A    between atoms: C3_3  and  C4_4 
REMARK    3  A    between atoms: C4_4  and  C5_5 
REMARK    4  A    between atoms: C7_7  and  C8_8 
REMARK    5  A    between atoms: N1_9  and  N2_11 
REMARK    6  A    between atoms: C12_18  and  N5_19 
REMARK    7  A    between atoms: N7_28  and  C18_29 
REMARK    8  A    between atoms: C18_29  and  C19_30 
REMARK    9  A    between atoms: C19_30  and  C20_31 
REMARK   10  A    between atoms: C20_31  and  C21_32 
REMARK   11  A    between atoms: C21_32  and  N8_33 
ROOT
HETATM    1  N5  UNL     1     -19.457 -19.097 -17.323  1.00  0.00    -0.191 N 
ATOM      2  H5  UNL     1     -20.307 -19.318 -17.842  1.00  0.00     0.184 HD
HETATM    3  C13 UNL     1     -19.567 -18.128 -16.505  1.00  0.00     0.684 A 
HETATM    4  N6  UNL     1     -20.776 -17.481 -16.389  1.00  0.00    -0.175 N 
ATOM      5  H6  UNL     1     -21.575 -17.782 -16.947  1.00  0.00     0.186 HD
HETATM    6  C14 UNL     1     -20.897 -16.453 -15.537  1.00  0.00     0.134 A 
HETATM    7  C15 UNL     1     -19.820 -16.046 -14.785  1.00  0.00     0.026 A 
HETATM    8  C16 UNL     1     -20.265 -14.976 -14.027  1.00  0.00     0.034 A 
HETATM    9  C17 UNL     1     -21.568 -14.790 -14.353  1.00  0.00     0.093 A 
HETATM   10  N7  UNL     1     -21.990 -15.669 -15.268  1.00  0.00    -0.342 N 
HETATM   11  C27 UNL     1     -18.595 -16.715 -14.914  1.00  0.00     0.121 A 
HETATM   12  N10 UNL     1     -18.518 -17.735 -15.774  1.00  0.00    -0.201 N 
ATOM     13  H10 UNL     1     -17.632 -18.230 -15.876  1.00  0.00     0.183 HD
ENDROOT
BRANCH   1  14
HETATM   14  C12 UNL     1     -18.357 -19.907 -17.626  1.00  0.00     0.055 A 
HETATM   15  C5  UNL     1     -17.549 -19.794 -18.721  1.00  0.00    -0.030 A 
HETATM   16  C6  UNL     1     -16.485 -20.622 -18.931  1.00  0.00     0.022 A 
HETATM   17  C7  UNL     1     -16.173 -21.608 -18.051  1.00  0.00    -0.019 A 
HETATM   18  C10 UNL     1     -16.961 -21.768 -16.919  1.00  0.00     0.015 A 
HETATM   19  C11 UNL     1     -18.033 -20.930 -16.715  1.00  0.00     0.031 A 
BRANCH  15  20
HETATM   20  C4  UNL     1     -17.848 -18.727 -19.696  1.00  0.00     0.041 C 
BRANCH  20  21
HETATM   21  C3  UNL     1     -18.358 -19.190 -21.013  1.00  0.00     0.004 C 
BRANCH  21  22
HETATM   22  C2  UNL     1     -19.514 -20.135 -20.890  1.00  0.00    -0.004 C 
HETATM   23  C1  UNL     1     -19.142 -21.472 -21.499  1.00  0.00     0.005 C 
ENDBRANCH  21  22
ENDBRANCH  20  21
ENDBRANCH  15  20
BRANCH  17  24
HETATM   24  C8  UNL     1     -15.022 -22.513 -18.302  1.00  0.00     0.118 C 
HETATM   25  N1  UNL     1     -13.975 -22.285 -17.746  1.00  0.00    -0.309 N 
ATOM     26  H1  UNL     1     -14.225 -21.452 -17.214  1.00  0.00     0.186 HD
BRANCH  25  27
HETATM   27  N2  UNL     1     -12.731 -22.427 -17.396  1.00  0.00    -0.276 N 
HETATM   28  C9  UNL     1     -11.770 -23.042 -17.988  1.00  0.00     0.215 C 
HETATM   29  N3  UNL     1     -12.025 -23.692 -19.227  1.00  0.00    -0.065 NA
HETATM   30  N4  UNL     1     -10.501 -23.062 -17.394  1.00  0.00    -0.065 NA
ATOM     31  H2  UNL     1     -12.479 -21.981 -16.513  1.00  0.00     0.189 HD
ENDBRANCH  25  27
ENDBRANCH  17  24
ENDBRANCH   1  14
BRANCH  10  32
HETATM   32  C18 UNL     1     -23.283 -15.858 -15.891  1.00  0.00     0.130 C 
BRANCH  32  33
HETATM   33  C19 UNL     1     -24.238 -14.748 -15.627  1.00  0.00     0.022 C 
BRANCH  33  34
HETATM   34  C20 UNL     1     -25.681 -15.042 -15.805  1.00  0.00     0.032 C 
BRANCH  34  35
HETATM   35  C21 UNL     1     -25.985 -16.460 -16.158  1.00  0.00     0.272 C 
BRANCH  35  36
HETATM   36  N8  UNL     1     -26.735 -16.533 -17.399  1.00  0.00     0.091 N 
HETATM   37  C22 UNL     1     -27.226 -17.876 -17.543  1.00  0.00     0.302 C 
HETATM   38  C23 UNL     1     -26.208 -18.796 -18.195  1.00  0.00     0.302 C 
HETATM   39  N9  UNL     1     -25.832 -18.259 -19.466  1.00  0.00     0.087 N 
HETATM   40  C24 UNL     1     -24.397 -18.253 -19.657  1.00  0.00     0.310 C 
HETATM   41  C25 UNL     1     -26.330 -16.935 -19.722  1.00  0.00     0.302 C 
HETATM   42  C26 UNL     1     -25.990 -16.073 -18.528  1.00  0.00     0.302 C 
ENDBRANCH  35  36
ENDBRANCH  34  35
ENDBRANCH  33  34
ENDBRANCH  32  33
ENDBRANCH  10  32
TORSDOF 11
ENDMDL
MODEL 5
REMARK VINA RESULT: -9.029734724      2.573      6.470
REMARK  11 active torsions:
REMARK  status: ('A' for Active; 'I' for Inactive)
REMARK    1  A    between atoms: C2_2  and  C3_3 
REMARK    2  A    between atoms: C3_3  and  C4_4 
REMARK    3  A    between atoms: C4_4  and  C5_5 
REMARK    4  A    between atoms: C7_7  and  C8_8 
REMARK    5  A    between atoms: N1_9  and  N2_11 
REMARK    6  A    between atoms: C12_18  and  N5_19 
REMARK    7  A    between atoms: N7_28  and  C18_29 
REMARK    8  A    between atoms: C18_29  and  C19_30 
REMARK    9  A    between atoms: C19_30  and  C20_31 
REMARK   10  A    between atoms: C20_31  and  C21_32 
REMARK   11  A    between atoms: C21_32  and  N8_33 
ROOT
HETATM    1  N5  UNL     1     -19.321 -17.125 -17.068  1.00  0.00    -0.191 N 
ATOM      2  H5  UNL     1     -18.340 -17.133 -16.789  1.00  0.00     0.184 HD
HETATM    3  C13 UNL     1     -19.612 -17.919 -18.019  1.00  0.00     0.684 A 
HETATM    4  N6  UNL     1     -18.619 -18.695 -18.574  1.00  0.00    -0.175 N 
ATOM      5  H6  UNL     1     -17.665 -18.639 -18.219  1.00  0.00     0.186 HD
HETATM    6  C14 UNL     1     -18.916 -19.526 -19.583  1.00  0.00     0.134 A 
HETATM    7  C15 UNL     1     -20.202 -19.603 -20.063  1.00  0.00     0.026 A 
HETATM    8  C16 UNL     1     -20.173 -20.530 -21.090  1.00  0.00     0.034 A 
HETATM    9  C17 UNL     1     -18.891 -20.963 -21.182  1.00  0.00     0.093 A 
HETATM   10  N7  UNL     1     -18.096 -20.376 -20.281  1.00  0.00    -0.342 N 
HETATM   11  C27 UNL     1     -21.203 -18.807 -19.488  1.00  0.00     0.121 A 
HETATM   12  N10 UNL     1     -20.864 -17.992 -18.483  1.00  0.00    -0.201 N 
ATOM     13  H10 UNL     1     -21.583 -17.409 -18.056  1.00  0.00     0.183 HD
ENDROOT
BRANCH   1  14
HETATM   14  C12 UNL     1     -20.131 -16.243 -16.345  1.00  0.00     0.055 A 
HETATM   15  C5  UNL     1     -19.898 -15.790 -15.078  1.00  0.00    -0.030 A 
HETATM   16  C6  UNL     1     -20.738 -14.915 -14.450  1.00  0.00     0.022 A 
HETATM   17  C7  UNL     1     -21.856 -14.447 -15.062  1.00  0.00    -0.019 A 
HETATM   18  C10 UNL     1     -22.141 -14.875 -16.352  1.00  0.00     0.015 A 
HETATM   19  C11 UNL     1     -21.291 -15.757 -16.977  1.00  0.00     0.031 A 
BRANCH  15  20
HETATM   20  C4  UNL     1     -18.687 -16.265 -14.382  1.00  0.00     0.041 C 
BRANCH  20  21
HETATM   21  C3  UNL     1     -18.752 -17.659 -13.867  1.00  0.00     0.004 C 
BRANCH  21  22
HETATM   22  C2  UNL     1     -17.742 -18.563 -14.507  1.00  0.00    -0.004 C 
HETATM   23  C1  UNL     1     -16.728 -17.733 -15.267  1.00  0.00     0.005 C 
ENDBRANCH  21  22
ENDBRANCH  20  21
ENDBRANCH  15  20
BRANCH  17  24
HETATM   24  C8  UNL     1     -22.769 -13.510 -14.360  1.00  0.00     0.118 C 
HETATM   25  N1  UNL     1     -23.733 -13.090 -14.952  1.00  0.00    -0.309 N 
ATOM     26  H1  UNL     1     -23.618 -13.557 -15.851  1.00  0.00     0.186 HD
BRANCH  25  27
HETATM   27  N2  UNL     1     -24.826 -12.419 -15.170  1.00  0.00    -0.276 N 
HETATM   28  C9  UNL     1     -25.890 -12.756 -15.808  1.00  0.00     0.215 C 
HETATM   29  N3  UNL     1     -25.964 -14.050 -16.393  1.00  0.00    -0.065 NA
HETATM   30  N4  UNL     1     -26.944 -11.839 -15.915  1.00  0.00    -0.065 NA
ATOM     31  H2  UNL     1     -24.840 -11.479 -14.775  1.00  0.00     0.189 HD
ENDBRANCH  25  27
ENDBRANCH  17  24
ENDBRANCH   1  14
BRANCH  10  32
HETATM   32  C18 UNL     1     -16.684 -20.533 -20.002  1.00  0.00     0.130 C 
BRANCH  32  33
HETATM   33  C19 UNL     1     -16.397 -21.526 -18.931  1.00  0.00     0.022 C 
BRANCH  33  34
HETATM   34  C20 UNL     1     -14.993 -21.983 -18.793  1.00  0.00     0.032 C 
BRANCH  34  35
HETATM   35  C21 UNL     1     -14.616 -22.419 -17.415  1.00  0.00     0.272 C 
BRANCH  35  36
HETATM   36  N8  UNL     1     -13.682 -21.484 -16.816  1.00  0.00     0.091 N 
HETATM   37  C22 UNL     1     -12.809 -22.223 -15.947  1.00  0.00     0.302 C 
HETATM   38  C23 UNL     1     -13.397 -22.404 -14.557  1.00  0.00     0.302 C 
HETATM   39  N9  UNL     1     -13.693 -21.122 -13.999  1.00  0.00     0.087 N 
HETATM   40  C24 UNL     1     -15.017 -21.071 -13.415  1.00  0.00     0.310 C 
HETATM   41  C25 UNL     1     -13.561 -20.028 -14.922  1.00  0.00     0.302 C 
HETATM   42  C26 UNL     1     -14.329 -20.383 -16.174  1.00  0.00     0.302 C 
ENDBRANCH  35  36
ENDBRANCH  34  35
ENDBRANCH  33  34
ENDBRANCH  32  33
ENDBRANCH  10  32
TORSDOF 11
ENDMDL
