MODEL 1
REMARK VINA RESULT: -8.509258321      0.000      0.000
REMARK  13 active torsions:
REMARK  status: ('A' for Active; 'I' for Inactive)
REMARK    1  A    between atoms: C2_2  and  N1_3 
REMARK       I    between atoms: N1_3  and  C3_5 
REMARK    2  A    between atoms: C3_5  and  C4_7 
REMARK    3  A    between atoms: C4_7  and  C5_9 
REMARK    4  A    between atoms: C5_9  and  C6_10 
REMARK    5  A    between atoms: C5_9  and  N2_18 
REMARK    6  A    between atoms: C6_10  and  C7_11 
REMARK       I    between atoms: N2_18  and  C13_20 
REMARK    7  A    between atoms: C13_20  and  C14_22 
REMARK    8  A    between atoms: C14_22  and  C15_23 
REMARK    9  A    between atoms: C15_23  and  C16_24 
REMARK   10  A    between atoms: C16_24  and  C20_32 
REMARK       I    between atoms: N3_25  and  C17_27 
REMARK   11  A    between atoms: C17_27  and  O5_29 
REMARK   12  A    between atoms: O5_29  and  C18_30 
REMARK       I    between atoms: C20_32  and  N4_34 
REMARK   13  A    between atoms: N4_34  and  C21_36 
ROOT
HETATM    1  N2  UNL     1      10.968  21.149  18.460  1.00  0.00    -0.349 N 
ATOM      2  H2  UNL     1      10.996  20.183  18.134  1.00  0.00     0.163 HD
HETATM    3  C13 UNL     1      10.039  21.535  19.424  1.00  0.00     0.218 C 
HETATM    4  O3  UNL     1       9.926  22.697  19.887  1.00  0.00    -0.274 OA
ENDROOT
BRANCH   3   5
HETATM    5  C14 UNL     1       9.084  20.516  19.976  1.00  0.00     0.109 C 
BRANCH   5   6
HETATM    6  C15 UNL     1       9.393  19.128  19.470  1.00  0.00     0.072 C 
BRANCH   6   7
HETATM    7  C16 UNL     1       8.201  18.580  18.810  1.00  0.00     0.082 C 
HETATM    8  N3  UNL     1       8.289  18.247  17.569  1.00  0.00    -0.301 N 
HETATM    9  C17 UNL     1       9.427  18.354  16.759  1.00  0.00     0.365 C 
ATOM     10  H3  UNL     1       7.448  17.870  17.134  1.00  0.00     0.171 HD
HETATM   11  O4  UNL     1      10.349  17.509  16.898  1.00  0.00    -0.238 OA
BRANCH   9  12
HETATM   12  O5  UNL     1       9.617  19.334  15.803  1.00  0.00    -0.304 OA
BRANCH  12  13
HETATM   13  C18 UNL     1       8.847  19.457  14.642  1.00  0.00     0.176 C 
HETATM   14  C19 UNL     1       8.657  18.117  13.936  1.00  0.00     0.034 C 
ENDBRANCH  12  13
ENDBRANCH   9  12
BRANCH   7  15
HETATM   15  C20 UNL     1       6.973  18.365  19.527  1.00  0.00     0.264 C 
HETATM   16  O6  UNL     1       6.960  17.441  20.413  1.00  0.00    -0.266 OA
HETATM   17  N4  UNL     1       5.773  19.081  19.338  1.00  0.00    -0.348 N 
ATOM     18  H4  UNL     1       5.717  19.825  18.641  1.00  0.00     0.163 HD
BRANCH  17  19
HETATM   19  C21 UNL     1       4.619  18.741  20.153  1.00  0.00     0.022 C 
HETATM   20  C22 UNL     1       4.987  18.799  21.623  1.00  0.00     0.037 C 
HETATM   21  C23 UNL     1       4.164  17.342  19.780  1.00  0.00     0.037 C 
HETATM   22  C24 UNL     1       3.531  19.746  19.848  1.00  0.00     0.037 C 
ENDBRANCH  17  19
ENDBRANCH   7  15
ENDBRANCH   6   7
ENDBRANCH   5   6
ENDBRANCH   3   5
BRANCH   1  23
HETATM   23  C5  UNL     1      11.926  22.157  17.904  1.00  0.00     0.169 C 
BRANCH  23  24
HETATM   24  C4  UNL     1      11.732  22.131  16.441  1.00  0.00     0.239 C 
HETATM   25  O2  UNL     1      10.785  22.830  15.927  1.00  0.00    -0.285 OA
BRANCH  24  26
HETATM   26  C3  UNL     1      12.515  21.387  15.481  1.00  0.00     0.289 C 
HETATM   27  N1  UNL     1      12.424  19.981  15.318  1.00  0.00    -0.355 N 
ATOM     28  H1  UNL     1      11.771  19.472  15.913  1.00  0.00     0.162 HD
HETATM   29  O1  UNL     1      13.320  21.989  14.744  1.00  0.00    -0.264 OA
BRANCH  27  30
HETATM   30  C2  UNL     1      13.192  19.234  14.373  1.00  0.00     0.118 C 
HETATM   31  C1  UNL     1      12.273  18.742  13.280  1.00  0.00     0.026 C 
ENDBRANCH  27  30
ENDBRANCH  24  26
ENDBRANCH  23  24
BRANCH  23  32
HETATM   32  C6  UNL     1      13.246  21.658  18.386  1.00  0.00     0.079 C 
BRANCH  32  33
HETATM   33  C7  UNL     1      14.358  22.624  18.482  1.00  0.00    -0.014 A 
HETATM   34  C8  UNL     1      14.674  23.495  19.495  1.00  0.00     0.022 A 
HETATM   35  C9  UNL     1      15.762  24.256  19.360  1.00  0.00    -0.048 A 
HETATM   36  C10 UNL     1      16.217  25.262  20.416  1.00  0.00     0.049 C 
HETATM   37  C11 UNL     1      16.493  24.111  18.207  1.00  0.00    -0.015 A 
HETATM   38  C12 UNL     1      17.747  24.841  17.813  1.00  0.00     0.057 C 
HETATM   39  S1  UNL     1      15.636  22.920  17.354  1.00  0.00    -0.099 SA
ENDBRANCH  32  33
ENDBRANCH  23  32
ENDBRANCH   1  23
TORSDOF 13
ENDMDL
MODEL 2
REMARK VINA RESULT: -8.114641164      3.138      5.099
REMARK  13 active torsions:
REMARK  status: ('A' for Active; 'I' for Inactive)
REMARK    1  A    between atoms: C2_2  and  N1_3 
REMARK       I    between atoms: N1_3  and  C3_5 
REMARK    2  A    between atoms: C3_5  and  C4_7 
REMARK    3  A    between atoms: C4_7  and  C5_9 
REMARK    4  A    between atoms: C5_9  and  C6_10 
REMARK    5  A    between atoms: C5_9  and  N2_18 
REMARK    6  A    between atoms: C6_10  and  C7_11 
REMARK       I    between atoms: N2_18  and  C13_20 
REMARK    7  A    between atoms: C13_20  and  C14_22 
REMARK    8  A    between atoms: C14_22  and  C15_23 
REMARK    9  A    between atoms: C15_23  and  C16_24 
REMARK   10  A    between atoms: C16_24  and  C20_32 
REMARK       I    between atoms: N3_25  and  C17_27 
REMARK   11  A    between atoms: C17_27  and  O5_29 
REMARK   12  A    between atoms: O5_29  and  C18_30 
REMARK       I    between atoms: C20_32  and  N4_34 
REMARK   13  A    between atoms: N4_34  and  C21_36 
ROOT
HETATM    1  N2  UNL     1      14.456  21.488  14.507  1.00  0.00    -0.349 N 
ATOM      2  H2  UNL     1      15.001  20.756  14.052  1.00  0.00     0.163 HD
HETATM    3  C13 UNL     1      13.128  21.255  14.856  1.00  0.00     0.218 C 
HETATM    4  O3  UNL     1      12.376  22.091  15.416  1.00  0.00    -0.274 OA
ENDROOT
BRANCH   3   5
HETATM    5  C14 UNL     1      12.511  19.918  14.559  1.00  0.00     0.109 C 
BRANCH   5   6
HETATM    6  C15 UNL     1      11.024  19.921  14.813  1.00  0.00     0.072 C 
BRANCH   6   7
HETATM    7  C16 UNL     1      10.732  19.062  15.969  1.00  0.00     0.082 C 
HETATM    8  N3  UNL     1      10.232  17.895  15.751  1.00  0.00    -0.301 N 
HETATM    9  C17 UNL     1       9.928  17.341  14.500  1.00  0.00     0.365 C 
ATOM     10  H3  UNL     1      10.039  17.318  16.568  1.00  0.00     0.171 HD
HETATM   11  O4  UNL     1      10.868  16.909  13.785  1.00  0.00    -0.238 OA
BRANCH   9  12
HETATM   12  O5  UNL     1       8.650  17.234  13.983  1.00  0.00    -0.304 OA
BRANCH  12  13
HETATM   13  C18 UNL     1       7.724  16.265  14.379  1.00  0.00     0.176 C 
HETATM   14  C19 UNL     1       7.789  15.017  13.502  1.00  0.00     0.034 C 
ENDBRANCH  12  13
ENDBRANCH   9  12
BRANCH   7  15
HETATM   15  C20 UNL     1      11.038  19.474  17.312  1.00  0.00     0.264 C 
HETATM   16  O6  UNL     1      11.988  18.863  17.916  1.00  0.00    -0.266 OA
HETATM   17  N4  UNL     1      10.379  20.493  18.030  1.00  0.00    -0.348 N 
ATOM     18  H4  UNL     1       9.609  21.012  17.607  1.00  0.00     0.163 HD
BRANCH  17  19
HETATM   19  C21 UNL     1      10.818  20.791  19.384  1.00  0.00     0.022 C 
HETATM   20  C22 UNL     1      12.220  21.366  19.360  1.00  0.00     0.037 C 
HETATM   21  C23 UNL     1      10.791  19.505  20.190  1.00  0.00     0.037 C 
HETATM   22  C24 UNL     1       9.851  21.797  19.967  1.00  0.00     0.037 C 
ENDBRANCH  17  19
ENDBRANCH   7  15
ENDBRANCH   6   7
ENDBRANCH   5   6
ENDBRANCH   3   5
BRANCH   1  23
HETATM   23  C5  UNL     1      15.081  22.817  14.800  1.00  0.00     0.169 C 
BRANCH  23  24
HETATM   24  C4  UNL     1      15.590  23.316  13.506  1.00  0.00     0.239 C 
HETATM   25  O2  UNL     1      14.883  23.134  12.449  1.00  0.00    -0.285 OA
BRANCH  24  26
HETATM   26  C3  UNL     1      16.833  24.015  13.282  1.00  0.00     0.289 C 
HETATM   27  N1  UNL     1      16.961  25.426  13.351  1.00  0.00    -0.355 N 
ATOM     28  H1  UNL     1      16.128  25.972  13.571  1.00  0.00     0.162 HD
HETATM   29  O1  UNL     1      17.865  23.369  13.011  1.00  0.00    -0.264 OA
BRANCH  27  30
HETATM   30  C2  UNL     1      18.185  26.130  13.132  1.00  0.00     0.118 C 
HETATM   31  C1  UNL     1      17.879  27.600  12.972  1.00  0.00     0.026 C 
ENDBRANCH  27  30
ENDBRANCH  24  26
ENDBRANCH  23  24
BRANCH  23  32
HETATM   32  C6  UNL     1      16.123  22.475  15.811  1.00  0.00     0.079 C 
BRANCH  32  33
HETATM   33  C7  UNL     1      16.163  23.266  17.057  1.00  0.00    -0.014 A 
HETATM   34  C8  UNL     1      15.349  23.201  18.160  1.00  0.00     0.022 A 
HETATM   35  C9  UNL     1      15.610  24.010  19.189  1.00  0.00    -0.048 A 
HETATM   36  C10 UNL     1      14.778  24.031  20.470  1.00  0.00     0.049 C 
HETATM   37  C11 UNL     1      16.683  24.857  19.067  1.00  0.00    -0.015 A 
HETATM   38  C12 UNL     1      17.186  25.859  20.070  1.00  0.00     0.057 C 
HETATM   39  S1  UNL     1      17.289  24.495  17.524  1.00  0.00    -0.099 SA
ENDBRANCH  32  33
ENDBRANCH  23  32
ENDBRANCH   1  23
TORSDOF 13
ENDMDL
MODEL 3
REMARK VINA RESULT: -8.071716889      3.255      9.172
REMARK  13 active torsions:
REMARK  status: ('A' for Active; 'I' for Inactive)
REMARK    1  A    between atoms: C2_2  and  N1_3 
REMARK       I    between atoms: N1_3  and  C3_5 
REMARK    2  A    between atoms: C3_5  and  C4_7 
REMARK    3  A    between atoms: C4_7  and  C5_9 
REMARK    4  A    between atoms: C5_9  and  C6_10 
REMARK    5  A    between atoms: C5_9  and  N2_18 
REMARK    6  A    between atoms: C6_10  and  C7_11 
REMARK       I    between atoms: N2_18  and  C13_20 
REMARK    7  A    between atoms: C13_20  and  C14_22 
REMARK    8  A    between atoms: C14_22  and  C15_23 
REMARK    9  A    between atoms: C15_23  and  C16_24 
REMARK   10  A    between atoms: C16_24  and  C20_32 
REMARK       I    between atoms: N3_25  and  C17_27 
REMARK   11  A    between atoms: C17_27  and  O5_29 
REMARK   12  A    between atoms: O5_29  and  C18_30 
REMARK       I    between atoms: C20_32  and  N4_34 
REMARK   13  A    between atoms: N4_34  and  C21_36 
ROOT
HETATM    1  N2  UNL     1      12.917  20.758  18.821  1.00  0.00    -0.349 N 
ATOM      2  H2  UNL     1      13.702  20.194  19.146  1.00  0.00     0.163 HD
HETATM    3  C13 UNL     1      12.981  22.148  18.890  1.00  0.00     0.218 C 
HETATM    4  O3  UNL     1      12.068  22.927  18.519  1.00  0.00    -0.274 OA
ENDROOT
BRANCH   3   5
HETATM    5  C14 UNL     1      14.214  22.804  19.444  1.00  0.00     0.109 C 
BRANCH   5   6
HETATM    6  C15 UNL     1      14.580  24.047  18.671  1.00  0.00     0.072 C 
BRANCH   6   7
HETATM    7  C16 UNL     1      15.661  23.725  17.729  1.00  0.00     0.082 C 
HETATM    8  N3  UNL     1      16.836  24.196  17.966  1.00  0.00    -0.301 N 
HETATM    9  C17 UNL     1      17.206  25.001  19.051  1.00  0.00     0.365 C 
ATOM     10  H3  UNL     1      17.569  23.959  17.298  1.00  0.00     0.171 HD
HETATM   11  O4  UNL     1      17.356  24.464  20.178  1.00  0.00    -0.238 OA
BRANCH   9  12
HETATM   12  O5  UNL     1      17.423  26.364  18.975  1.00  0.00    -0.304 OA
BRANCH  12  13
HETATM   13  C18 UNL     1      17.619  27.061  17.779  1.00  0.00     0.176 C 
HETATM   14  C19 UNL     1      19.093  27.130  17.391  1.00  0.00     0.034 C 
ENDBRANCH  12  13
ENDBRANCH   9  12
BRANCH   7  15
HETATM   15  C20 UNL     1      15.444  22.868  16.595  1.00  0.00     0.264 C 
HETATM   16  O6  UNL     1      15.384  21.607  16.810  1.00  0.00    -0.266 OA
HETATM   17  N4  UNL     1      15.294  23.293  15.259  1.00  0.00    -0.348 N 
ATOM     18  H4  UNL     1      15.339  24.284  15.021  1.00  0.00     0.163 HD
BRANCH  17  19
HETATM   19  C21 UNL     1      15.074  22.293  14.227  1.00  0.00     0.022 C 
HETATM   20  C22 UNL     1      16.190  21.268  14.252  1.00  0.00     0.037 C 
HETATM   21  C23 UNL     1      15.035  22.994  12.881  1.00  0.00     0.037 C 
HETATM   22  C24 UNL     1      13.747  21.626  14.511  1.00  0.00     0.037 C 
ENDBRANCH  17  19
ENDBRANCH   7  15
ENDBRANCH   6   7
ENDBRANCH   5   6
ENDBRANCH   3   5
BRANCH   1  23
HETATM   23  C5  UNL     1      11.693  20.095  18.270  1.00  0.00     0.169 C 
BRANCH  23  24
HETATM   24  C4  UNL     1      10.856  19.761  19.440  1.00  0.00     0.239 C 
HETATM   25  O2  UNL     1      11.365  19.058  20.387  1.00  0.00    -0.285 OA
BRANCH  24  26
HETATM   26  C3  UNL     1       9.482  20.151  19.656  1.00  0.00     0.289 C 
HETATM   27  N1  UNL     1       8.388  19.255  19.547  1.00  0.00    -0.355 N 
ATOM     28  H1  UNL     1       8.587  18.285  19.302  1.00  0.00     0.162 HD
HETATM   29  O1  UNL     1       9.216  21.332  19.955  1.00  0.00    -0.264 OA
BRANCH  27  30
HETATM   30  C2  UNL     1       7.025  19.627  19.758  1.00  0.00     0.118 C 
HETATM   31  C1  UNL     1       6.356  18.568  20.600  1.00  0.00     0.026 C 
ENDBRANCH  27  30
ENDBRANCH  24  26
ENDBRANCH  23  24
BRANCH  23  32
HETATM   32  C6  UNL     1      12.255  18.929  17.529  1.00  0.00     0.079 C 
BRANCH  32  33
HETATM   33  C7  UNL     1      11.527  18.451  16.337  1.00  0.00    -0.014 A 
HETATM   34  C8  UNL     1      11.860  18.555  15.010  1.00  0.00     0.022 A 
HETATM   35  C9  UNL     1      11.043  18.007  14.107  1.00  0.00    -0.048 A 
HETATM   36  C10 UNL     1      11.304  18.057  12.603  1.00  0.00     0.049 C 
HETATM   37  C11 UNL     1       9.920  17.375  14.577  1.00  0.00    -0.015 A 
HETATM   38  C12 UNL     1       8.848  16.684  13.778  1.00  0.00     0.057 C 
HETATM   39  S1  UNL     1      10.042  17.566  16.259  1.00  0.00    -0.099 SA
ENDBRANCH  32  33
ENDBRANCH  23  32
ENDBRANCH   1  23
TORSDOF 13
ENDMDL
MODEL 4
REMARK VINA RESULT: -8.066981941      1.194      3.788
REMARK  13 active torsions:
REMARK  status: ('A' for Active; 'I' for Inactive)
REMARK    1  A    between atoms: C2_2  and  N1_3 
REMARK       I    between atoms: N1_3  and  C3_5 
REMARK    2  A    between atoms: C3_5  and  C4_7 
REMARK    3  A    between atoms: C4_7  and  C5_9 
REMARK    4  A    between atoms: C5_9  and  C6_10 
REMARK    5  A    between atoms: C5_9  and  N2_18 
REMARK    6  A    between atoms: C6_10  and  C7_11 
REMARK       I    between atoms: N2_18  and  C13_20 
REMARK    7  A    between atoms: C13_20  and  C14_22 
REMARK    8  A    between atoms: C14_22  and  C15_23 
REMARK    9  A    between atoms: C15_23  and  C16_24 
REMARK   10  A    between atoms: C16_24  and  C20_32 
REMARK       I    between atoms: N3_25  and  C17_27 
REMARK   11  A    between atoms: C17_27  and  O5_29 
REMARK   12  A    between atoms: O5_29  and  C18_30 
REMARK       I    between atoms: C20_32  and  N4_34 
REMARK   13  A    between atoms: N4_34  and  C21_36 
ROOT
HETATM    1  N2  UNL     1      11.122  21.160  18.442  1.00  0.00    -0.349 N 
ATOM      2  H2  UNL     1      11.251  20.181  18.186  1.00  0.00     0.163 HD
HETATM    3  C13 UNL     1      10.068  21.531  19.274  1.00  0.00     0.218 C 
HETATM    4  O3  UNL     1       9.826  22.707  19.644  1.00  0.00    -0.274 OA
ENDROOT
BRANCH   3   5
HETATM    5  C14 UNL     1       9.130  20.478  19.790  1.00  0.00     0.109 C 
BRANCH   5   6
HETATM    6  C15 UNL     1       9.570  19.092  19.387  1.00  0.00     0.072 C 
BRANCH   6   7
HETATM    7  C16 UNL     1       8.611  18.546  18.418  1.00  0.00     0.082 C 
HETATM    8  N3  UNL     1       7.448  18.190  18.844  1.00  0.00    -0.301 N 
HETATM    9  C17 UNL     1       6.987  18.270  20.165  1.00  0.00     0.365 C 
ATOM     10  H3  UNL     1       6.800  17.815  18.153  1.00  0.00     0.171 HD
HETATM   11  O4  UNL     1       6.648  19.392  20.621  1.00  0.00    -0.238 OA
BRANCH   9  12
HETATM   12  O5  UNL     1       6.877  17.189  21.021  1.00  0.00    -0.304 OA
BRANCH  12  13
HETATM   13  C18 UNL     1       7.966  16.536  21.604  1.00  0.00     0.176 C 
HETATM   14  C19 UNL     1       8.422  15.334  20.782  1.00  0.00     0.034 C 
ENDBRANCH  12  13
ENDBRANCH   9  12
BRANCH   7  15
HETATM   15  C20 UNL     1       8.923  18.450  17.018  1.00  0.00     0.264 C 
HETATM   16  O6  UNL     1       9.871  19.186  16.572  1.00  0.00    -0.266 OA
HETATM   17  N4  UNL     1       8.272  17.618  16.084  1.00  0.00    -0.348 N 
ATOM     18  H4  UNL     1       7.503  17.013  16.375  1.00  0.00     0.163 HD
BRANCH  17  19
HETATM   19  C21 UNL     1       8.717  17.637  14.700  1.00  0.00     0.022 C 
HETATM   20  C22 UNL     1       8.374  18.969  14.064  1.00  0.00     0.037 C 
HETATM   21  C23 UNL     1       8.025  16.507  13.959  1.00  0.00     0.037 C 
HETATM   22  C24 UNL     1      10.214  17.427  14.698  1.00  0.00     0.037 C 
ENDBRANCH  17  19
ENDBRANCH   7  15
ENDBRANCH   6   7
ENDBRANCH   5   6
ENDBRANCH   3   5
BRANCH   1  23
HETATM   23  C5  UNL     1      12.064  22.202  17.923  1.00  0.00     0.169 C 
BRANCH  23  24
HETATM   24  C4  UNL     1      11.894  22.203  16.457  1.00  0.00     0.239 C 
HETATM   25  O2  UNL     1      10.920  22.866  15.944  1.00  0.00    -0.285 OA
BRANCH  24  26
HETATM   26  C3  UNL     1      12.729  21.524  15.493  1.00  0.00     0.289 C 
HETATM   27  N1  UNL     1      12.694  20.123  15.276  1.00  0.00    -0.355 N 
ATOM     28  H1  UNL     1      12.044  19.569  15.833  1.00  0.00     0.162 HD
HETATM   29  O1  UNL     1      13.532  22.181  14.801  1.00  0.00    -0.264 OA
BRANCH  27  30
HETATM   30  C2  UNL     1      13.514  19.440  14.326  1.00  0.00     0.118 C 
HETATM   31  C1  UNL     1      12.712  19.211  13.067  1.00  0.00     0.026 C 
ENDBRANCH  27  30
ENDBRANCH  24  26
ENDBRANCH  23  24
BRANCH  23  32
HETATM   32  C6  UNL     1      13.388  21.724  18.416  1.00  0.00     0.079 C 
BRANCH  32  33
HETATM   33  C7  UNL     1      14.479  22.712  18.536  1.00  0.00    -0.014 A 
HETATM   34  C8  UNL     1      14.757  23.587  19.556  1.00  0.00     0.022 A 
HETATM   35  C9  UNL     1      15.834  24.368  19.444  1.00  0.00    -0.048 A 
HETATM   36  C10 UNL     1      16.248  25.381  20.510  1.00  0.00     0.049 C 
HETATM   37  C11 UNL     1      16.590  24.239  18.306  1.00  0.00    -0.015 A 
HETATM   38  C12 UNL     1      17.838  24.993  17.938  1.00  0.00     0.057 C 
HETATM   39  S1  UNL     1      15.774  23.033  17.434  1.00  0.00    -0.099 SA
ENDBRANCH  32  33
ENDBRANCH  23  32
ENDBRANCH   1  23
TORSDOF 13
ENDMDL
MODEL 5
REMARK VINA RESULT: -8.059104235      3.929      9.738
REMARK  13 active torsions:
REMARK  status: ('A' for Active; 'I' for Inactive)
REMARK    1  A    between atoms: C2_2  and  N1_3 
REMARK       I    between atoms: N1_3  and  C3_5 
REMARK    2  A    between atoms: C3_5  and  C4_7 
REMARK    3  A    between atoms: C4_7  and  C5_9 
REMARK    4  A    between atoms: C5_9  and  C6_10 
REMARK    5  A    between atoms: C5_9  and  N2_18 
REMARK    6  A    between atoms: C6_10  and  C7_11 
REMARK       I    between atoms: N2_18  and  C13_20 
REMARK    7  A    between atoms: C13_20  and  C14_22 
REMARK    8  A    between atoms: C14_22  and  C15_23 
REMARK    9  A    between atoms: C15_23  and  C16_24 
REMARK   10  A    between atoms: C16_24  and  C20_32 
REMARK       I    between atoms: N3_25  and  C17_27 
REMARK   11  A    between atoms: C17_27  and  O5_29 
REMARK   12  A    between atoms: O5_29  and  C18_30 
REMARK       I    between atoms: C20_32  and  N4_34 
REMARK   13  A    between atoms: N4_34  and  C21_36 
ROOT
HETATM    1  N2  UNL     1      15.015  21.667  15.360  1.00  0.00    -0.349 N 
ATOM      2  H2  UNL     1      15.047  22.666  15.565  1.00  0.00     0.163 HD
HETATM    3  C13 UNL     1      15.919  21.111  14.457  1.00  0.00     0.218 C 
HETATM    4  O3  UNL     1      15.959  19.897  14.138  1.00  0.00    -0.274 OA
ENDROOT
BRANCH   3   5
HETATM    5  C14 UNL     1      16.937  21.995  13.794  1.00  0.00     0.109 C 
BRANCH   5   6
HETATM    6  C15 UNL     1      17.813  22.693  14.804  1.00  0.00     0.072 C 
BRANCH   6   7
HETATM    7  C16 UNL     1      17.558  24.138  14.744  1.00  0.00     0.082 C 
HETATM    8  N3  UNL     1      17.261  24.751  15.838  1.00  0.00    -0.301 N 
HETATM    9  C17 UNL     1      17.152  24.175  17.110  1.00  0.00     0.365 C 
ATOM     10  H3  UNL     1      17.088  25.753  15.771  1.00  0.00     0.171 HD
HETATM   11  O4  UNL     1      18.204  23.883  17.734  1.00  0.00    -0.238 OA
BRANCH   9  12
HETATM   12  O5  UNL     1      15.954  23.897  17.743  1.00  0.00    -0.304 OA
BRANCH  12  13
HETATM   13  C18 UNL     1      15.267  24.805  18.553  1.00  0.00     0.176 C 
HETATM   14  C19 UNL     1      15.293  24.395  20.023  1.00  0.00     0.034 C 
ENDBRANCH  12  13
ENDBRANCH   9  12
BRANCH   7  15
HETATM   15  C20 UNL     1      17.682  24.877  13.517  1.00  0.00     0.264 C 
HETATM   16  O6  UNL     1      18.724  24.667  12.803  1.00  0.00    -0.266 OA
HETATM   17  N4  UNL     1      16.756  25.821  13.028  1.00  0.00    -0.348 N 
ATOM     18  H4  UNL     1      15.909  26.038  13.553  1.00  0.00     0.163 HD
BRANCH  17  19
HETATM   19  C21 UNL     1      17.030  26.478  11.760  1.00  0.00     0.022 C 
HETATM   20  C22 UNL     1      17.497  25.459  10.739  1.00  0.00     0.037 C 
HETATM   21  C23 UNL     1      18.104  27.526  11.986  1.00  0.00     0.037 C 
HETATM   22  C24 UNL     1      15.747  27.131  11.296  1.00  0.00     0.037 C 
ENDBRANCH  17  19
ENDBRANCH   7  15
ENDBRANCH   6   7
ENDBRANCH   5   6
ENDBRANCH   3   5
BRANCH   1  23
HETATM   23  C5  UNL     1      13.998  20.795  16.027  1.00  0.00     0.169 C 
BRANCH  23  24
HETATM   24  C4  UNL     1      12.755  20.960  15.248  1.00  0.00     0.239 C 
HETATM   25  O2  UNL     1      12.172  22.105  15.241  1.00  0.00    -0.285 OA
BRANCH  24  26
HETATM   26  C3  UNL     1      12.093  19.948  14.457  1.00  0.00     0.289 C 
HETATM   27  N1  UNL     1      10.797  19.450  14.749  1.00  0.00    -0.355 N 
ATOM     28  H1  UNL     1      10.311  19.829  15.561  1.00  0.00     0.162 HD
HETATM   29  O1  UNL     1      12.669  19.469  13.460  1.00  0.00    -0.264 OA
BRANCH  27  30
HETATM   30  C2  UNL     1      10.131  18.450  13.975  1.00  0.00     0.118 C 
HETATM   31  C1  UNL     1       8.649  18.734  13.986  1.00  0.00     0.026 C 
ENDBRANCH  27  30
ENDBRANCH  24  26
ENDBRANCH  23  24
BRANCH  23  32
HETATM   32  C6  UNL     1      13.961  21.336  17.417  1.00  0.00     0.079 C 
BRANCH  32  33
HETATM   33  C7  UNL     1      12.810  20.975  18.269  1.00  0.00    -0.014 A 
HETATM   34  C8  UNL     1      12.033  21.773  19.071  1.00  0.00     0.022 A 
HETATM   35  C9  UNL     1      11.016  21.211  19.728  1.00  0.00    -0.048 A 
HETATM   36  C10 UNL     1      10.080  21.992  20.650  1.00  0.00     0.049 C 
HETATM   37  C11 UNL     1      10.821  19.864  19.553  1.00  0.00    -0.015 A 
HETATM   38  C12 UNL     1       9.758  18.998  20.172  1.00  0.00     0.057 C 
HETATM   39  S1  UNL     1      12.061  19.430  18.479  1.00  0.00    -0.099 SA
ENDBRANCH  32  33
ENDBRANCH  23  32
ENDBRANCH   1  23
TORSDOF 13
ENDMDL
