MODEL 1
REMARK VINA RESULT: -9.148772208      0.000      0.000
REMARK  13 active torsions:
REMARK  status: ('A' for Active; 'I' for Inactive)
REMARK    1  A    between atoms: C3_3  and  C4_4 
REMARK    2  A    between atoms: C4_4  and  C5_5 
REMARK    3  A    between atoms: C7_7  and  O1_8 
REMARK    4  A    between atoms: C9_10  and  O2_11 
REMARK    5  A    between atoms: C11_13  and  C12_14 
REMARK    6  A    between atoms: C12_14  and  C13_15 
REMARK    7  A    between atoms: C13_15  and  C14_16 
REMARK    8  A    between atoms: C14_16  and  C15_17 
REMARK    9  A    between atoms: C16_20  and  O5_21 
REMARK   10  A    between atoms: N2_29  and  C19_30 
REMARK   11  A    between atoms: C19_30  and  C20_31 
REMARK   12  A    between atoms: C20_31  and  C21_32 
REMARK   13  A    between atoms: C21_32  and  C22_33 
ROOT
HETATM    1  C1  UNL     1      10.967  21.593  16.557  1.00  0.00     0.044 C 
HETATM    2  C2  UNL     1      11.618  20.510  16.926  1.00  0.00     0.045 A 
HETATM    3  C3  UNL     1      12.908  20.612  17.408  1.00  0.00     0.059 A 
HETATM    4  C17 UNL     1      13.519  19.418  17.797  1.00  0.00     0.261 A 
HETATM    5  O6  UNL     1      14.698  19.390  18.254  1.00  0.00    -0.267 OA
HETATM    6  N1  UNL     1      12.857  18.271  17.691  1.00  0.00    -0.275 N 
ATOM      7  H1  UNL     1      13.313  17.406  17.979  1.00  0.00     0.173 HD
HETATM    8  C18 UNL     1      11.622  18.222  17.224  1.00  0.00     0.329 A 
HETATM    9  O7  UNL     1      11.013  17.108  17.134  1.00  0.00    -0.246 OA
HETATM   10  N2  UNL     1      10.965  19.317  16.829  1.00  0.00    -0.299 N 
ENDROOT
BRANCH   3  11
HETATM   11  C4  UNL     1      13.562  21.740  17.510  1.00  0.00     0.033 C 
BRANCH  11  12
HETATM   12  C5  UNL     1      14.678  22.177  16.681  1.00  0.00     0.001 A 
HETATM   13  C6  UNL     1      14.535  22.035  15.307  1.00  0.00     0.054 A 
HETATM   14  C7  UNL     1      15.573  22.411  14.481  1.00  0.00     0.103 A 
HETATM   15  C9  UNL     1      16.715  22.915  15.037  1.00  0.00     0.110 A 
HETATM   16  C11 UNL     1      16.906  23.076  16.391  1.00  0.00     0.012 A 
HETATM   17  C16 UNL     1      15.864  22.697  17.211  1.00  0.00     0.085 A 
BRANCH  14  18
HETATM   18  O1  UNL     1      15.397  22.256  13.116  1.00  0.00    -0.353 OA
HETATM   19  C8  UNL     1      14.227  21.731  12.565  1.00  0.00     0.210 C 
ENDBRANCH  14  18
BRANCH  15  20
HETATM   20  O2  UNL     1      17.737  23.284  14.188  1.00  0.00    -0.352 OA
HETATM   21  C10 UNL     1      17.609  24.496  13.473  1.00  0.00     0.210 C 
ENDBRANCH  15  20
BRANCH  16  22
HETATM   22  C12 UNL     1      18.159  23.624  16.890  1.00  0.00     0.045 C 
BRANCH  22  23
HETATM   23  C13 UNL     1      18.169  25.121  17.051  1.00  0.00     0.015 C 
BRANCH  23  24
HETATM   24  C14 UNL     1      18.563  25.434  18.493  1.00  0.00     0.113 C 
BRANCH  24  25
HETATM   25  C15 UNL     1      17.436  25.211  19.420  1.00  0.00     0.172 C 
HETATM   26  O3  UNL     1      16.342  25.742  19.177  1.00  0.00    -0.648 OA
HETATM   27  O4  UNL     1      17.583  24.429  20.540  1.00  0.00    -0.648 OA
ENDBRANCH  24  25
ENDBRANCH  23  24
ENDBRANCH  22  23
ENDBRANCH  16  22
BRANCH  17  28
HETATM   28  O5  UNL     1      15.962  22.821  18.567  1.00  0.00    -0.359 OA
ATOM     29  H5  UNL     1      16.281  22.075  19.063  1.00  0.00     0.217 HD
ENDBRANCH  17  28
ENDBRANCH  11  12
ENDBRANCH   3  11
BRANCH  10  30
HETATM   30  C19 UNL     1       9.626  19.180  16.300  1.00  0.00     0.134 C 
BRANCH  30  31
HETATM   31  C20 UNL     1       9.650  18.705  14.867  1.00  0.00     0.021 C 
BRANCH  31  32
HETATM   32  C21 UNL     1       8.246  18.582  14.304  1.00  0.00     0.006 C 
BRANCH  32  33
HETATM   33  C22 UNL     1       7.896  17.125  14.207  1.00  0.00    -0.014 C 
HETATM   34  C23 UNL     1       7.055  16.711  15.410  1.00  0.00     0.004 C 
HETATM   35  C24 UNL     1       6.488  15.342  15.114  1.00  0.00     0.000 C 
HETATM   36  C25 UNL     1       7.415  14.511  14.254  1.00  0.00     0.000 C 
HETATM   37  C26 UNL     1       8.872  14.874  14.518  1.00  0.00     0.000 C 
HETATM   38  C27 UNL     1       9.160  16.293  14.114  1.00  0.00     0.004 C 
ENDBRANCH  32  33
ENDBRANCH  31  32
ENDBRANCH  30  31
ENDBRANCH  10  30
TORSDOF 13
ENDMDL
MODEL 2
REMARK VINA RESULT: -8.977969761      1.800      3.013
REMARK  13 active torsions:
REMARK  status: ('A' for Active; 'I' for Inactive)
REMARK    1  A    between atoms: C3_3  and  C4_4 
REMARK    2  A    between atoms: C4_4  and  C5_5 
REMARK    3  A    between atoms: C7_7  and  O1_8 
REMARK    4  A    between atoms: C9_10  and  O2_11 
REMARK    5  A    between atoms: C11_13  and  C12_14 
REMARK    6  A    between atoms: C12_14  and  C13_15 
REMARK    7  A    between atoms: C13_15  and  C14_16 
REMARK    8  A    between atoms: C14_16  and  C15_17 
REMARK    9  A    between atoms: C16_20  and  O5_21 
REMARK   10  A    between atoms: N2_29  and  C19_30 
REMARK   11  A    between atoms: C19_30  and  C20_31 
REMARK   12  A    between atoms: C20_31  and  C21_32 
REMARK   13  A    between atoms: C21_32  and  C22_33 
ROOT
HETATM    1  C1  UNL     1      12.144  17.211  14.804  1.00  0.00     0.044 C 
HETATM    2  C2  UNL     1      11.144  17.966  15.205  1.00  0.00     0.045 A 
HETATM    3  C3  UNL     1      11.349  18.917  16.185  1.00  0.00     0.059 A 
HETATM    4  C17 UNL     1      10.240  19.691  16.538  1.00  0.00     0.261 A 
HETATM    5  O6  UNL     1      10.310  20.592  17.423  1.00  0.00    -0.267 OA
HETATM    6  N1  UNL     1       9.074  19.487  15.936  1.00  0.00    -0.275 N 
ATOM      7  H1  UNL     1       8.271  20.058  16.202  1.00  0.00     0.173 HD
HETATM    8  C18 UNL     1       8.925  18.564  15.003  1.00  0.00     0.329 A 
HETATM    9  O7  UNL     1       7.794  18.392  14.444  1.00  0.00    -0.246 OA
HETATM   10  N2  UNL     1       9.933  17.781  14.607  1.00  0.00    -0.299 N 
ENDROOT
BRANCH   3  11
HETATM   11  C4  UNL     1      12.497  19.117  16.780  1.00  0.00     0.033 C 
BRANCH  11  12
HETATM   12  C5  UNL     1      13.433  20.203  16.521  1.00  0.00     0.001 A 
HETATM   13  C6  UNL     1      13.644  20.551  15.193  1.00  0.00     0.054 A 
HETATM   14  C7  UNL     1      14.538  21.556  14.896  1.00  0.00     0.103 A 
HETATM   15  C9  UNL     1      15.194  22.185  15.916  1.00  0.00     0.110 A 
HETATM   16  C11 UNL     1      15.021  21.879  17.247  1.00  0.00     0.012 A 
HETATM   17  C16 UNL     1      14.125  20.872  17.537  1.00  0.00     0.085 A 
BRANCH  14  18
HETATM   18  O1  UNL     1      14.724  21.877  13.561  1.00  0.00    -0.353 OA
HETATM   19  C8  UNL     1      13.890  21.396  12.550  1.00  0.00     0.210 C 
ENDBRANCH  14  18
BRANCH  15  20
HETATM   20  O2  UNL     1      16.084  23.188  15.590  1.00  0.00    -0.352 OA
HETATM   21  C10 UNL     1      17.393  22.823  15.206  1.00  0.00     0.210 C 
ENDBRANCH  15  20
BRANCH  16  22
HETATM   22  C12 UNL     1      15.765  22.607  18.264  1.00  0.00     0.045 C 
BRANCH  22  23
HETATM   23  C13 UNL     1      15.041  23.795  18.841  1.00  0.00     0.015 C 
BRANCH  23  24
HETATM   24  C14 UNL     1      15.391  23.880  20.326  1.00  0.00     0.113 C 
BRANCH  24  25
HETATM   25  C15 UNL     1      16.551  24.764  20.556  1.00  0.00     0.172 C 
HETATM   26  O3  UNL     1      16.364  25.888  21.045  1.00  0.00    -0.648 OA
HETATM   27  O4  UNL     1      17.824  24.361  20.238  1.00  0.00    -0.648 OA
ENDBRANCH  24  25
ENDBRANCH  23  24
ENDBRANCH  22  23
ENDBRANCH  16  22
BRANCH  17  28
HETATM   28  O5  UNL     1      13.888  20.499  18.829  1.00  0.00    -0.359 OA
ATOM     29  H5  UNL     1      14.636  20.351  19.396  1.00  0.00     0.217 HD
ENDBRANCH  17  28
ENDBRANCH  11  12
ENDBRANCH   3  11
BRANCH  10  30
HETATM   30  C19 UNL     1       9.685  16.773  13.600  1.00  0.00     0.134 C 
BRANCH  30  31
HETATM   31  C20 UNL     1       9.360  15.440  14.229  1.00  0.00     0.021 C 
BRANCH  31  32
HETATM   32  C21 UNL     1       8.212  14.756  13.510  1.00  0.00     0.006 C 
BRANCH  32  33
HETATM   33  C22 UNL     1       6.961  14.944  14.321  1.00  0.00    -0.014 C 
HETATM   34  C23 UNL     1       7.315  15.096  15.797  1.00  0.00     0.004 C 
HETATM   35  C24 UNL     1       6.074  15.576  16.511  1.00  0.00     0.000 C 
HETATM   36  C25 UNL     1       4.805  15.051  15.873  1.00  0.00     0.000 C 
HETATM   37  C26 UNL     1       5.041  13.684  15.240  1.00  0.00     0.000 C 
HETATM   38  C27 UNL     1       6.022  13.774  14.103  1.00  0.00     0.004 C 
ENDBRANCH  32  33
ENDBRANCH  31  32
ENDBRANCH  30  31
ENDBRANCH  10  30
TORSDOF 13
ENDMDL
MODEL 3
REMARK VINA RESULT: -8.900734557      2.116      3.826
REMARK  13 active torsions:
REMARK  status: ('A' for Active; 'I' for Inactive)
REMARK    1  A    between atoms: C3_3  and  C4_4 
REMARK    2  A    between atoms: C4_4  and  C5_5 
REMARK    3  A    between atoms: C7_7  and  O1_8 
REMARK    4  A    between atoms: C9_10  and  O2_11 
REMARK    5  A    between atoms: C11_13  and  C12_14 
REMARK    6  A    between atoms: C12_14  and  C13_15 
REMARK    7  A    between atoms: C13_15  and  C14_16 
REMARK    8  A    between atoms: C14_16  and  C15_17 
REMARK    9  A    between atoms: C16_20  and  O5_21 
REMARK   10  A    between atoms: N2_29  and  C19_30 
REMARK   11  A    between atoms: C19_30  and  C20_31 
REMARK   12  A    between atoms: C20_31  and  C21_32 
REMARK   13  A    between atoms: C21_32  and  C22_33 
ROOT
HETATM    1  C1  UNL     1       9.982  18.285  14.668  1.00  0.00     0.044 C 
HETATM    2  C2  UNL     1       9.585  17.989  15.888  1.00  0.00     0.045 A 
HETATM    3  C3  UNL     1       9.665  18.937  16.888  1.00  0.00     0.059 A 
HETATM    4  C17 UNL     1       9.204  18.547  18.148  1.00  0.00     0.261 A 
HETATM    5  O6  UNL     1       9.228  19.332  19.139  1.00  0.00    -0.267 OA
HETATM    6  N1  UNL     1       8.725  17.322  18.326  1.00  0.00    -0.275 N 
ATOM      7  H1  UNL     1       8.391  17.048  19.251  1.00  0.00     0.173 HD
HETATM    8  C18 UNL     1       8.668  16.446  17.338  1.00  0.00     0.329 A 
HETATM    9  O7  UNL     1       8.203  15.279  17.540  1.00  0.00    -0.246 OA
HETATM   10  N2  UNL     1       9.088  16.737  16.103  1.00  0.00    -0.299 N 
ENDROOT
BRANCH   3  11
HETATM   11  C4  UNL     1      10.140  20.144  16.714  1.00  0.00     0.033 C 
BRANCH  11  12
HETATM   12  C5  UNL     1      11.529  20.560  16.855  1.00  0.00     0.001 A 
HETATM   13  C6  UNL     1      12.343  20.426  15.738  1.00  0.00     0.054 A 
HETATM   14  C7  UNL     1      13.671  20.785  15.828  1.00  0.00     0.103 A 
HETATM   15  C9  UNL     1      14.151  21.262  17.014  1.00  0.00     0.110 A 
HETATM   16  C11 UNL     1      13.386  21.415  18.149  1.00  0.00     0.012 A 
HETATM   17  C16 UNL     1      12.059  21.055  18.052  1.00  0.00     0.085 A 
BRANCH  14  18
HETATM   18  O1  UNL     1      14.455  20.638  14.695  1.00  0.00    -0.353 OA
HETATM   19  C8  UNL     1      14.195  21.326  13.508  1.00  0.00     0.210 C 
ENDBRANCH  14  18
BRANCH  15  20
HETATM   20  O2  UNL     1      15.484  21.614  17.076  1.00  0.00    -0.352 OA
HETATM   21  C10 UNL     1      15.885  22.827  16.473  1.00  0.00     0.210 C 
ENDBRANCH  15  20
BRANCH  16  22
HETATM   22  C12 UNL     1      13.988  21.935  19.368  1.00  0.00     0.045 C 
BRANCH  22  23
HETATM   23  C13 UNL     1      13.948  23.435  19.496  1.00  0.00     0.015 C 
BRANCH  23  24
HETATM   24  C14 UNL     1      14.895  23.834  20.628  1.00  0.00     0.113 C 
BRANCH  24  25
HETATM   25  C15 UNL     1      16.096  24.518  20.110  1.00  0.00     0.172 C 
HETATM   26  O3  UNL     1      15.965  25.372  19.220  1.00  0.00    -0.648 OA
HETATM   27  O4  UNL     1      17.345  24.223  20.597  1.00  0.00    -0.648 OA
ENDBRANCH  24  25
ENDBRANCH  23  24
ENDBRANCH  22  23
ENDBRANCH  16  22
BRANCH  17  28
HETATM   28  O5  UNL     1      11.224  21.171  19.126  1.00  0.00    -0.359 OA
ATOM     29  H5  UNL     1      11.109  20.414  19.688  1.00  0.00     0.217 HD
ENDBRANCH  17  28
ENDBRANCH  11  12
ENDBRANCH   3  11
BRANCH  10  30
HETATM   30  C19 UNL     1       9.022  15.717  15.080  1.00  0.00     0.134 C 
BRANCH  30  31
HETATM   31  C20 UNL     1       7.686  15.731  14.379  1.00  0.00     0.021 C 
BRANCH  31  32
HETATM   32  C21 UNL     1       7.045  14.355  14.385  1.00  0.00     0.006 C 
BRANCH  32  33
HETATM   33  C22 UNL     1       5.809  14.408  15.237  1.00  0.00    -0.014 C 
HETATM   34  C23 UNL     1       4.691  13.604  14.581  1.00  0.00     0.004 C 
HETATM   35  C24 UNL     1       3.592  13.442  15.605  1.00  0.00     0.000 C 
HETATM   36  C25 UNL     1       3.506  14.625  16.545  1.00  0.00     0.000 C 
HETATM   37  C26 UNL     1       3.940  15.908  15.847  1.00  0.00     0.000 C 
HETATM   38  C27 UNL     1       5.390  15.849  15.453  1.00  0.00     0.004 C 
ENDBRANCH  32  33
ENDBRANCH  31  32
ENDBRANCH  30  31
ENDBRANCH  10  30
TORSDOF 13
ENDMDL
MODEL 4
REMARK VINA RESULT: -8.690545462      1.271      1.319
REMARK  13 active torsions:
REMARK  status: ('A' for Active; 'I' for Inactive)
REMARK    1  A    between atoms: C3_3  and  C4_4 
REMARK    2  A    between atoms: C4_4  and  C5_5 
REMARK    3  A    between atoms: C7_7  and  O1_8 
REMARK    4  A    between atoms: C9_10  and  O2_11 
REMARK    5  A    between atoms: C11_13  and  C12_14 
REMARK    6  A    between atoms: C12_14  and  C13_15 
REMARK    7  A    between atoms: C13_15  and  C14_16 
REMARK    8  A    between atoms: C14_16  and  C15_17 
REMARK    9  A    between atoms: C16_20  and  O5_21 
REMARK   10  A    between atoms: N2_29  and  C19_30 
REMARK   11  A    between atoms: C19_30  and  C20_31 
REMARK   12  A    between atoms: C20_31  and  C21_32 
REMARK   13  A    between atoms: C21_32  and  C22_33 
ROOT
HETATM    1  C1  UNL     1      10.597  21.312  16.348  1.00  0.00     0.044 C 
HETATM    2  C2  UNL     1      11.069  20.836  17.480  1.00  0.00     0.045 A 
HETATM    3  C3  UNL     1      12.165  21.430  18.074  1.00  0.00     0.059 A 
HETATM    4  C17 UNL     1      12.589  20.876  19.285  1.00  0.00     0.261 A 
HETATM    5  O6  UNL     1      13.582  21.338  19.918  1.00  0.00    -0.267 OA
HETATM    6  N1  UNL     1      11.942  19.836  19.797  1.00  0.00    -0.275 N 
ATOM      7  H1  UNL     1      12.261  19.440  20.682  1.00  0.00     0.173 HD
HETATM    8  C18 UNL     1      10.897  19.299  19.193  1.00  0.00     0.329 A 
HETATM    9  O7  UNL     1      10.298  18.303  19.709  1.00  0.00    -0.246 OA
HETATM   10  N2  UNL     1      10.427  19.768  18.032  1.00  0.00    -0.299 N 
ENDROOT
BRANCH   3  11
HETATM   11  C4  UNL     1      12.805  22.454  17.569  1.00  0.00     0.033 C 
BRANCH  11  12
HETATM   12  C5  UNL     1      14.069  22.418  16.846  1.00  0.00     0.001 A 
HETATM   13  C6  UNL     1      14.046  21.895  15.559  1.00  0.00     0.054 A 
HETATM   14  C7  UNL     1      15.221  21.818  14.843  1.00  0.00     0.103 A 
HETATM   15  C9  UNL     1      16.379  22.258  15.419  1.00  0.00     0.110 A 
HETATM   16  C11 UNL     1      16.456  22.785  16.689  1.00  0.00     0.012 A 
HETATM   17  C16 UNL     1      15.276  22.859  17.399  1.00  0.00     0.085 A 
BRANCH  14  18
HETATM   18  O1  UNL     1      15.161  21.291  13.564  1.00  0.00    -0.353 OA
HETATM   19  C8  UNL     1      14.063  21.484  12.723  1.00  0.00     0.210 C 
ENDBRANCH  14  18
BRANCH  15  20
HETATM   20  O2  UNL     1      17.541  22.170  14.680  1.00  0.00    -0.352 OA
HETATM   21  C10 UNL     1      17.697  23.032  13.572  1.00  0.00     0.210 C 
ENDBRANCH  15  20
BRANCH  16  22
HETATM   22  C12 UNL     1      17.738  23.230  17.216  1.00  0.00     0.045 C 
BRANCH  22  23
HETATM   23  C13 UNL     1      18.045  24.684  16.972  1.00  0.00     0.015 C 
BRANCH  23  24
HETATM   24  C14 UNL     1      18.533  25.286  18.289  1.00  0.00     0.113 C 
BRANCH  24  25
HETATM   25  C15 UNL     1      17.489  25.218  19.332  1.00  0.00     0.172 C 
HETATM   26  O3  UNL     1      16.473  25.919  19.212  1.00  0.00    -0.648 OA
HETATM   27  O4  UNL     1      17.629  24.396  20.422  1.00  0.00    -0.648 OA
ENDBRANCH  24  25
ENDBRANCH  23  24
ENDBRANCH  22  23
ENDBRANCH  16  22
BRANCH  17  28
HETATM   28  O5  UNL     1      15.256  23.367  18.667  1.00  0.00    -0.359 OA
ATOM     29  H5  UNL     1      14.772  24.170  18.819  1.00  0.00     0.217 HD
ENDBRANCH  17  28
ENDBRANCH  11  12
ENDBRANCH   3  11
BRANCH  10  30
HETATM   30  C19 UNL     1       9.297  19.109  17.416  1.00  0.00     0.134 C 
BRANCH  30  31
HETATM   31  C20 UNL     1       9.724  18.293  16.220  1.00  0.00     0.021 C 
BRANCH  31  32
HETATM   32  C21 UNL     1       8.878  18.615  15.002  1.00  0.00     0.006 C 
BRANCH  32  33
HETATM   33  C22 UNL     1       8.570  17.333  14.281  1.00  0.00    -0.014 C 
HETATM   34  C23 UNL     1       8.022  16.303  15.263  1.00  0.00     0.004 C 
HETATM   35  C24 UNL     1       7.457  15.162  14.450  1.00  0.00     0.000 C 
HETATM   36  C25 UNL     1       8.210  14.954  13.153  1.00  0.00     0.000 C 
HETATM   37  C26 UNL     1       9.675  15.347  13.306  1.00  0.00     0.000 C 
HETATM   38  C27 UNL     1       9.816  16.818  13.588  1.00  0.00     0.004 C 
ENDBRANCH  32  33
ENDBRANCH  31  32
ENDBRANCH  30  31
ENDBRANCH  10  30
TORSDOF 13
ENDMDL
MODEL 5
REMARK VINA RESULT: -8.539373574      1.673      3.949
REMARK  13 active torsions:
REMARK  status: ('A' for Active; 'I' for Inactive)
REMARK    1  A    between atoms: C3_3  and  C4_4 
REMARK    2  A    between atoms: C4_4  and  C5_5 
REMARK    3  A    between atoms: C7_7  and  O1_8 
REMARK    4  A    between atoms: C9_10  and  O2_11 
REMARK    5  A    between atoms: C11_13  and  C12_14 
REMARK    6  A    between atoms: C12_14  and  C13_15 
REMARK    7  A    between atoms: C13_15  and  C14_16 
REMARK    8  A    between atoms: C14_16  and  C15_17 
REMARK    9  A    between atoms: C16_20  and  O5_21 
REMARK   10  A    between atoms: N2_29  and  C19_30 
REMARK   11  A    between atoms: C19_30  and  C20_31 
REMARK   12  A    between atoms: C20_31  and  C21_32 
REMARK   13  A    between atoms: C21_32  and  C22_33 
ROOT
HETATM    1  C1  UNL     1      12.372  19.813  14.745  1.00  0.00     0.044 C 
HETATM    2  C2  UNL     1      11.715  19.778  15.885  1.00  0.00     0.045 A 
HETATM    3  C3  UNL     1      11.714  20.881  16.714  1.00  0.00     0.059 A 
HETATM    4  C17 UNL     1      10.975  20.768  17.894  1.00  0.00     0.261 A 
HETATM    5  O6  UNL     1      10.902  21.714  18.730  1.00  0.00    -0.267 OA
HETATM    6  N1  UNL     1      10.325  19.640  18.161  1.00  0.00    -0.275 N 
ATOM      7  H1  UNL     1       9.788  19.569  19.026  1.00  0.00     0.173 HD
HETATM    8  C18 UNL     1      10.355  18.608  17.337  1.00  0.00     0.329 A 
HETATM    9  O7  UNL     1       9.722  17.541  17.619  1.00  0.00    -0.246 OA
HETATM   10  N2  UNL     1      11.038  18.633  16.187  1.00  0.00    -0.299 N 
ENDROOT
BRANCH   3  11
HETATM   11  C4  UNL     1      12.356  21.991  16.454  1.00  0.00     0.033 C 
BRANCH  11  12
HETATM   12  C5  UNL     1      13.743  22.291  16.782  1.00  0.00     0.001 A 
HETATM   13  C6  UNL     1      14.010  22.693  18.085  1.00  0.00     0.054 A 
HETATM   14  C7  UNL     1      15.305  23.010  18.438  1.00  0.00     0.103 A 
HETATM   15  C9  UNL     1      16.290  22.920  17.496  1.00  0.00     0.110 A 
HETATM   16  C11 UNL     1      16.078  22.527  16.194  1.00  0.00     0.012 A 
HETATM   17  C16 UNL     1      14.782  22.211  15.848  1.00  0.00     0.085 A 
BRANCH  14  18
HETATM   18  O1  UNL     1      15.535  23.408  19.744  1.00  0.00    -0.353 OA
HETATM   19  C8  UNL     1      14.548  23.999  20.535  1.00  0.00     0.210 C 
ENDBRANCH  14  18
BRANCH  15  20
HETATM   20  O2  UNL     1      17.577  23.243  17.877  1.00  0.00    -0.352 OA
HETATM   21  C10 UNL     1      17.946  24.606  17.900  1.00  0.00     0.210 C 
ENDBRANCH  15  20
BRANCH  16  22
HETATM   22  C12 UNL     1      17.195  22.460  15.263  1.00  0.00     0.045 C 
BRANCH  22  23
HETATM   23  C13 UNL     1      17.299  23.633  14.324  1.00  0.00     0.015 C 
BRANCH  23  24
HETATM   24  C14 UNL     1      17.204  23.099  12.896  1.00  0.00     0.113 C 
BRANCH  24  25
HETATM   25  C15 UNL     1      18.202  23.737  12.015  1.00  0.00     0.172 C 
HETATM   26  O3  UNL     1      18.187  23.479  10.801  1.00  0.00    -0.648 OA
HETATM   27  O4  UNL     1      19.140  24.604  12.517  1.00  0.00    -0.648 OA
ENDBRANCH  24  25
ENDBRANCH  23  24
ENDBRANCH  22  23
ENDBRANCH  16  22
BRANCH  17  28
HETATM   28  O5  UNL     1      14.476  21.811  14.579  1.00  0.00    -0.359 OA
ATOM     29  H5  UNL     1      15.079  22.038  13.881  1.00  0.00     0.217 HD
ENDBRANCH  17  28
ENDBRANCH  11  12
ENDBRANCH   3  11
BRANCH  10  30
HETATM   30  C19 UNL     1      11.048  17.454  15.351  1.00  0.00     0.134 C 
BRANCH  30  31
HETATM   31  C20 UNL     1       9.952  17.509  14.314  1.00  0.00     0.021 C 
BRANCH  31  32
HETATM   32  C21 UNL     1       9.610  16.123  13.799  1.00  0.00     0.006 C 
BRANCH  32  33
HETATM   33  C22 UNL     1       8.423  15.609  14.561  1.00  0.00    -0.014 C 
HETATM   34  C23 UNL     1       7.620  14.649  13.690  1.00  0.00     0.004 C 
HETATM   35  C24 UNL     1       6.632  13.943  14.588  1.00  0.00     0.000 C 
HETATM   36  C25 UNL     1       6.172  14.819  15.734  1.00  0.00     0.000 C 
HETATM   37  C26 UNL     1       6.172  16.288  15.329  1.00  0.00     0.000 C 
HETATM   38  C27 UNL     1       7.565  16.769  15.027  1.00  0.00     0.004 C 
ENDBRANCH  32  33
ENDBRANCH  31  32
ENDBRANCH  30  31
ENDBRANCH  10  30
TORSDOF 13
ENDMDL
