MODEL 1
REMARK VINA RESULT: -8.920599318      0.000      0.000
REMARK  12 active torsions:
REMARK  status: ('A' for Active; 'I' for Inactive)
REMARK    1  A    between atoms: C2_2  and  N1_3 
REMARK    2  A    between atoms: N1_3  and  C3_4 
REMARK    3  A    between atoms: N1_3  and  C5_6 
REMARK    4  A    between atoms: C5_6  and  C6_7 
REMARK    5  A    between atoms: C6_7  and  N2_8 
REMARK    6  A    between atoms: C9_14  and  N4_15 
REMARK    7  A    between atoms: N4_15  and  C10_17 
REMARK    8  A    between atoms: C10_17  and  C11_18 
REMARK    9  A    between atoms: C11_18  and  O1_19 
REMARK   10  A    between atoms: C13_23  and  N6_24 
REMARK   11  A    between atoms: N6_24  and  C14_26 
REMARK   12  A    between atoms: C17_29  and  N7_30 
ROOT
HETATM    1  N2  UNL     1      16.955  23.928  14.624  1.00  0.00    -0.224 N 
ATOM      2  H2  UNL     1      16.987  24.714  15.273  1.00  0.00     0.177 HD
HETATM    3  C7  UNL     1      16.385  22.861  15.040  1.00  0.00     0.678 A 
HETATM    4  N3  UNL     1      15.880  22.900  16.310  1.00  0.00    -0.186 N 
ATOM      5  H3  UNL     1      15.970  23.751  16.865  1.00  0.00     0.184 HD
HETATM    6  C8  UNL     1      15.268  21.828  16.829  1.00  0.00     0.122 A 
HETATM    7  C9  UNL     1      14.744  21.871  18.148  1.00  0.00     0.150 A 
HETATM    8  N5  UNL     1      14.143  20.765  18.604  1.00  0.00    -0.174 N 
ATOM      9  H5  UNL     1      13.754  20.758  19.547  1.00  0.00     0.186 HD
HETATM   10  C13 UNL     1      14.043  19.669  17.847  1.00  0.00     0.684 A 
HETATM   11  N8  UNL     1      14.518  19.581  16.608  1.00  0.00    -0.188 N 
ATOM     12  H8  UNL     1      14.422  18.727  16.059  1.00  0.00     0.184 HD
HETATM   13  C26 UNL     1      15.128  20.672  16.113  1.00  0.00     0.096 A 
HETATM   14  C27 UNL     1      15.660  20.683  14.823  1.00  0.00     0.138 A 
HETATM   15  N9  UNL     1      16.271  21.752  14.306  1.00  0.00    -0.200 N 
ATOM     16  H9  UNL     1      16.647  21.721  13.358  1.00  0.00     0.183 HD
ENDROOT
BRANCH  10  17
HETATM   17  N6  UNL     1      13.441  18.617  18.361  1.00  0.00    -0.192 N 
ATOM     18  H6  UNL     1      13.940  18.031  19.031  1.00  0.00     0.184 HD
BRANCH  17  19
HETATM   19  C14 UNL     1      12.109  18.284  17.998  1.00  0.00     0.049 A 
HETATM   20  C15 UNL     1      11.930  17.542  16.846  1.00  0.00     0.032 A 
HETATM   21  C16 UNL     1      10.660  17.202  16.467  1.00  0.00     0.032 A 
HETATM   22  C17 UNL     1       9.499  17.563  17.184  1.00  0.00     0.036 A 
HETATM   23  C23 UNL     1       9.707  18.296  18.321  1.00  0.00    -0.033 A 
HETATM   24  C24 UNL     1       8.608  18.738  19.215  1.00  0.00     0.050 C 
HETATM   25  C25 UNL     1      11.004  18.653  18.723  1.00  0.00     0.039 A 
BRANCH  22  26
HETATM   26  N7  UNL     1       8.236  17.176  16.666  1.00  0.00    -0.380 N 
HETATM   27  C18 UNL     1       7.966  17.524  15.261  1.00  0.00     0.123 C 
HETATM   28  C19 UNL     1       7.389  16.386  14.474  1.00  0.00     0.020 C 
HETATM   29  C20 UNL     1       7.401  15.144  15.320  1.00  0.00     0.003 C 
HETATM   30  C21 UNL     1       6.591  15.386  16.580  1.00  0.00     0.020 C 
HETATM   31  C22 UNL     1       7.165  16.542  17.369  1.00  0.00     0.123 C 
ENDBRANCH  22  26
ENDBRANCH  17  19
ENDBRANCH  10  17
BRANCH   7  32
HETATM   32  N4  UNL     1      14.886  22.928  18.764  1.00  0.00    -0.351 N 
ATOM     33  H4  UNL     1      14.560  23.679  18.156  1.00  0.00     0.166 HD
BRANCH  32  34
HETATM   34  C10 UNL     1      15.308  23.511  19.944  1.00  0.00     0.088 C 
BRANCH  34  35
HETATM   35  C11 UNL     1      16.606  24.255  19.979  1.00  0.00     0.211 C 
BRANCH  35  36
HETATM   36  O1  UNL     1      17.371  23.951  18.887  1.00  0.00    -0.391 OA
HETATM   37  C12 UNL     1      18.028  24.980  18.274  1.00  0.00     0.201 C 
ENDBRANCH  35  36
ENDBRANCH  34  35
ENDBRANCH  32  34
ENDBRANCH   7  32
BRANCH   1  38
HETATM   38  C6  UNL     1      17.559  24.129  13.329  1.00  0.00     0.168 C 
BRANCH  38  39
HETATM   39  C5  UNL     1      16.643  24.888  12.408  1.00  0.00     0.292 C 
BRANCH  39  40
HETATM   40  N1  UNL     1      16.838  26.285  12.389  1.00  0.00     0.089 N 
BRANCH  40  41
HETATM   41  C2  UNL     1      18.179  26.724  12.614  1.00  0.00     0.268 C 
HETATM   42  C1  UNL     1      18.323  27.699  13.750  1.00  0.00     0.037 C 
ENDBRANCH  40  41
BRANCH  40  43
HETATM   43  C3  UNL     1      16.298  26.971  11.243  1.00  0.00     0.268 C 
HETATM   44  C4  UNL     1      14.845  27.304  11.351  1.00  0.00     0.037 C 
ENDBRANCH  40  43
ENDBRANCH  39  40
ENDBRANCH  38  39
ENDBRANCH   1  38
TORSDOF 12
ENDMDL
MODEL 2
REMARK VINA RESULT: -8.876851195      0.820      1.601
REMARK  12 active torsions:
REMARK  status: ('A' for Active; 'I' for Inactive)
REMARK    1  A    between atoms: C2_2  and  N1_3 
REMARK    2  A    between atoms: N1_3  and  C3_4 
REMARK    3  A    between atoms: N1_3  and  C5_6 
REMARK    4  A    between atoms: C5_6  and  C6_7 
REMARK    5  A    between atoms: C6_7  and  N2_8 
REMARK    6  A    between atoms: C9_14  and  N4_15 
REMARK    7  A    between atoms: N4_15  and  C10_17 
REMARK    8  A    between atoms: C10_17  and  C11_18 
REMARK    9  A    between atoms: C11_18  and  O1_19 
REMARK   10  A    between atoms: C13_23  and  N6_24 
REMARK   11  A    between atoms: N6_24  and  C14_26 
REMARK   12  A    between atoms: C17_29  and  N7_30 
ROOT
HETATM    1  N2  UNL     1      16.958  23.776  14.656  1.00  0.00    -0.224 N 
ATOM      2  H2  UNL     1      16.948  24.547  15.324  1.00  0.00     0.177 HD
HETATM    3  C7  UNL     1      16.317  22.719  14.989  1.00  0.00     0.678 A 
HETATM    4  N3  UNL     1      15.690  22.748  16.203  1.00  0.00    -0.186 N 
ATOM      5  H3  UNL     1      15.749  23.584  16.784  1.00  0.00     0.184 HD
HETATM    6  C8  UNL     1      14.998  21.686  16.634  1.00  0.00     0.122 A 
HETATM    7  C9  UNL     1      14.346  21.719  17.895  1.00  0.00     0.150 A 
HETATM    8  N5  UNL     1      13.670  20.623  18.263  1.00  0.00    -0.174 N 
ATOM      9  H5  UNL     1      13.189  20.610  19.162  1.00  0.00     0.186 HD
HETATM   10  C13 UNL     1      13.614  19.548  17.475  1.00  0.00     0.684 A 
HETATM   11  N8  UNL     1      14.206  19.470  16.286  1.00  0.00    -0.188 N 
ATOM     12  H8  UNL     1      14.140  18.630  15.711  1.00  0.00     0.184 HD
HETATM   13  C26 UNL     1      14.895  20.550  15.880  1.00  0.00     0.096 A 
HETATM   14  C27 UNL     1      15.552  20.571  14.650  1.00  0.00     0.138 A 
HETATM   15  N9  UNL     1      16.244  21.630  14.221  1.00  0.00    -0.200 N 
ATOM     16  H9  UNL     1      16.712  21.606  13.314  1.00  0.00     0.183 HD
ENDROOT
BRANCH  10  17
HETATM   17  N6  UNL     1      12.932  18.505  17.902  1.00  0.00    -0.192 N 
ATOM     18  H6  UNL     1      13.218  18.036  18.761  1.00  0.00     0.184 HD
BRANCH  17  19
HETATM   19  C14 UNL     1      11.805  18.022  17.185  1.00  0.00     0.049 A 
HETATM   20  C15 UNL     1      10.616  17.895  17.880  1.00  0.00     0.032 A 
HETATM   21  C16 UNL     1       9.510  17.434  17.220  1.00  0.00     0.032 A 
HETATM   22  C17 UNL     1       9.497  17.074  15.855  1.00  0.00     0.036 A 
HETATM   23  C23 UNL     1      10.687  17.212  15.194  1.00  0.00    -0.033 A 
HETATM   24  C24 UNL     1      10.854  16.909  13.750  1.00  0.00     0.050 C 
HETATM   25  C25 UNL     1      11.832  17.683  15.856  1.00  0.00     0.039 A 
BRANCH  22  26
HETATM   26  N7  UNL     1       8.290  16.577  15.297  1.00  0.00    -0.380 N 
HETATM   27  C18 UNL     1       8.301  15.175  14.847  1.00  0.00     0.123 C 
HETATM   28  C19 UNL     1       7.101  14.401  15.304  1.00  0.00     0.020 C 
HETATM   29  C20 UNL     1       6.295  15.251  16.245  1.00  0.00     0.003 C 
HETATM   30  C21 UNL     1       5.870  16.523  15.535  1.00  0.00     0.020 C 
HETATM   31  C22 UNL     1       7.080  17.298  15.062  1.00  0.00     0.123 C 
ENDBRANCH  22  26
ENDBRANCH  17  19
ENDBRANCH  10  17
BRANCH   7  32
HETATM   32  N4  UNL     1      14.458  22.758  18.547  1.00  0.00    -0.351 N 
ATOM     33  H4  UNL     1      13.919  23.477  18.064  1.00  0.00     0.166 HD
BRANCH  32  34
HETATM   34  C10 UNL     1      15.016  23.346  19.666  1.00  0.00     0.088 C 
BRANCH  34  35
HETATM   35  C11 UNL     1      16.134  24.328  19.505  1.00  0.00     0.211 C 
BRANCH  35  36
HETATM   36  O1  UNL     1      17.156  23.788  18.777  1.00  0.00    -0.391 OA
HETATM   37  C12 UNL     1      17.997  24.652  18.135  1.00  0.00     0.201 C 
ENDBRANCH  35  36
ENDBRANCH  34  35
ENDBRANCH  32  34
ENDBRANCH   7  32
BRANCH   1  38
HETATM   38  C6  UNL     1      17.693  23.983  13.433  1.00  0.00     0.168 C 
BRANCH  38  39
HETATM   39  C5  UNL     1      16.870  24.726  12.416  1.00  0.00     0.292 C 
BRANCH  39  40
HETATM   40  N1  UNL     1      16.973  26.132  12.474  1.00  0.00     0.089 N 
BRANCH  40  41
HETATM   41  C2  UNL     1      18.272  26.643  12.783  1.00  0.00     0.268 C 
HETATM   42  C1  UNL     1      18.280  27.683  13.868  1.00  0.00     0.037 C 
ENDBRANCH  40  41
BRANCH  40  43
HETATM   43  C3  UNL     1      16.439  26.841  11.339  1.00  0.00     0.268 C 
HETATM   44  C4  UNL     1      14.998  27.214  11.466  1.00  0.00     0.037 C 
ENDBRANCH  40  43
ENDBRANCH  39  40
ENDBRANCH  38  39
ENDBRANCH   1  38
TORSDOF 12
ENDMDL
MODEL 3
REMARK VINA RESULT: -8.874249079      0.275      1.135
REMARK  12 active torsions:
REMARK  status: ('A' for Active; 'I' for Inactive)
REMARK    1  A    between atoms: C2_2  and  N1_3 
REMARK    2  A    between atoms: N1_3  and  C3_4 
REMARK    3  A    between atoms: N1_3  and  C5_6 
REMARK    4  A    between atoms: C5_6  and  C6_7 
REMARK    5  A    between atoms: C6_7  and  N2_8 
REMARK    6  A    between atoms: C9_14  and  N4_15 
REMARK    7  A    between atoms: N4_15  and  C10_17 
REMARK    8  A    between atoms: C10_17  and  C11_18 
REMARK    9  A    between atoms: C11_18  and  O1_19 
REMARK   10  A    between atoms: C13_23  and  N6_24 
REMARK   11  A    between atoms: N6_24  and  C14_26 
REMARK   12  A    between atoms: C17_29  and  N7_30 
ROOT
HETATM    1  N2  UNL     1      16.942  23.942  14.562  1.00  0.00    -0.224 N 
ATOM      2  H2  UNL     1      16.993  24.724  15.215  1.00  0.00     0.177 HD
HETATM    3  C7  UNL     1      16.372  22.876  14.983  1.00  0.00     0.678 A 
HETATM    4  N3  UNL     1      15.895  22.910  16.264  1.00  0.00    -0.186 N 
ATOM      5  H3  UNL     1      16.004  23.756  16.823  1.00  0.00     0.184 HD
HETATM    6  C8  UNL     1      15.287  21.839  16.789  1.00  0.00     0.122 A 
HETATM    7  C9  UNL     1      14.791  21.878  18.120  1.00  0.00     0.150 A 
HETATM    8  N5  UNL     1      14.192  20.772  18.581  1.00  0.00    -0.174 N 
ATOM      9  H5  UNL     1      13.824  20.762  19.532  1.00  0.00     0.186 HD
HETATM   10  C13 UNL     1      14.068  19.683  17.819  1.00  0.00     0.684 A 
HETATM   11  N8  UNL     1      14.514  19.600  16.569  1.00  0.00    -0.188 N 
ATOM     12  H8  UNL     1      14.401  18.750  16.017  1.00  0.00     0.184 HD
HETATM   13  C26 UNL     1      15.122  20.689  16.069  1.00  0.00     0.096 A 
HETATM   14  C27 UNL     1      15.625  20.706  14.768  1.00  0.00     0.138 A 
HETATM   15  N9  UNL     1      16.233  21.774  14.244  1.00  0.00    -0.200 N 
ATOM     16  H9  UNL     1      16.589  21.746  13.288  1.00  0.00     0.183 HD
ENDROOT
BRANCH  10  17
HETATM   17  N6  UNL     1      13.469  18.632  18.339  1.00  0.00    -0.192 N 
ATOM     18  H6  UNL     1      13.974  18.043  19.002  1.00  0.00     0.184 HD
BRANCH  17  19
HETATM   19  C14 UNL     1      12.132  18.304  17.993  1.00  0.00     0.049 A 
HETATM   20  C15 UNL     1      11.939  17.517  16.872  1.00  0.00     0.032 A 
HETATM   21  C16 UNL     1      10.663  17.181  16.510  1.00  0.00     0.032 A 
HETATM   22  C17 UNL     1       9.509  17.587  17.214  1.00  0.00     0.036 A 
HETATM   23  C23 UNL     1       9.731  18.364  18.319  1.00  0.00    -0.033 A 
HETATM   24  C24 UNL     1       8.640  18.859  19.196  1.00  0.00     0.050 C 
HETATM   25  C25 UNL     1      11.034  18.719  18.704  1.00  0.00     0.039 A 
BRANCH  22  26
HETATM   26  N7  UNL     1       8.239  17.198  16.714  1.00  0.00    -0.380 N 
HETATM   27  C18 UNL     1       7.958  17.523  15.306  1.00  0.00     0.123 C 
HETATM   28  C19 UNL     1       7.368  16.374  14.545  1.00  0.00     0.020 C 
HETATM   29  C20 UNL     1       7.382  15.147  15.412  1.00  0.00     0.003 C 
HETATM   30  C21 UNL     1       6.585  15.416  16.675  1.00  0.00     0.020 C 
HETATM   31  C22 UNL     1       7.172  16.582  17.438  1.00  0.00     0.123 C 
ENDBRANCH  22  26
ENDBRANCH  17  19
ENDBRANCH  10  17
BRANCH   7  32
HETATM   32  N4  UNL     1      14.955  22.929  18.740  1.00  0.00    -0.351 N 
ATOM     33  H4  UNL     1      14.560  23.679  18.173  1.00  0.00     0.166 HD
BRANCH  32  34
HETATM   34  C10 UNL     1      15.457  23.506  19.890  1.00  0.00     0.088 C 
BRANCH  34  35
HETATM   35  C11 UNL     1      16.654  24.401  19.807  1.00  0.00     0.211 C 
BRANCH  35  36
HETATM   36  O1  UNL     1      17.500  23.992  18.815  1.00  0.00    -0.391 OA
HETATM   37  C12 UNL     1      18.181  24.958  18.130  1.00  0.00     0.201 C 
ENDBRANCH  35  36
ENDBRANCH  34  35
ENDBRANCH  32  34
ENDBRANCH   7  32
BRANCH   1  38
HETATM   38  C6  UNL     1      17.518  24.147  13.256  1.00  0.00     0.168 C 
BRANCH  38  39
HETATM   39  C5  UNL     1      16.630  25.000  12.391  1.00  0.00     0.292 C 
BRANCH  39  40
HETATM   40  N1  UNL     1      17.214  26.200  11.935  1.00  0.00     0.089 N 
BRANCH  40  41
HETATM   41  C2  UNL     1      16.453  26.928  10.968  1.00  0.00     0.268 C 
HETATM   42  C1  UNL     1      15.036  27.204  11.385  1.00  0.00     0.037 C 
ENDBRANCH  40  41
BRANCH  40  43
HETATM   43  C3  UNL     1      17.663  27.102  12.965  1.00  0.00     0.268 C 
HETATM   44  C4  UNL     1      19.055  27.611  12.777  1.00  0.00     0.037 C 
ENDBRANCH  40  43
ENDBRANCH  39  40
ENDBRANCH  38  39
ENDBRANCH   1  38
TORSDOF 12
ENDMDL
MODEL 4
REMARK VINA RESULT: -8.803466150      1.494      2.047
REMARK  12 active torsions:
REMARK  status: ('A' for Active; 'I' for Inactive)
REMARK    1  A    between atoms: C2_2  and  N1_3 
REMARK    2  A    between atoms: N1_3  and  C3_4 
REMARK    3  A    between atoms: N1_3  and  C5_6 
REMARK    4  A    between atoms: C5_6  and  C6_7 
REMARK    5  A    between atoms: C6_7  and  N2_8 
REMARK    6  A    between atoms: C9_14  and  N4_15 
REMARK    7  A    between atoms: N4_15  and  C10_17 
REMARK    8  A    between atoms: C10_17  and  C11_18 
REMARK    9  A    between atoms: C11_18  and  O1_19 
REMARK   10  A    between atoms: C13_23  and  N6_24 
REMARK   11  A    between atoms: N6_24  and  C14_26 
REMARK   12  A    between atoms: C17_29  and  N7_30 
ROOT
HETATM    1  N2  UNL     1      17.016  23.068  14.460  1.00  0.00    -0.224 N 
ATOM      2  H2  UNL     1      17.458  23.675  15.151  1.00  0.00     0.177 HD
HETATM    3  C7  UNL     1      15.898  22.540  14.789  1.00  0.00     0.678 A 
HETATM    4  N3  UNL     1      15.423  22.853  16.032  1.00  0.00    -0.186 N 
ATOM      5  H3  UNL     1      15.957  23.478  16.636  1.00  0.00     0.184 HD
HETATM    6  C8  UNL     1      14.262  22.344  16.461  1.00  0.00     0.122 A 
HETATM    7  C9  UNL     1      13.770  22.671  17.753  1.00  0.00     0.150 A 
HETATM    8  N5  UNL     1      12.601  22.128  18.118  1.00  0.00    -0.174 N 
ATOM      9  H5  UNL     1      12.217  22.340  19.038  1.00  0.00     0.186 HD
HETATM   10  C13 UNL     1      11.931  21.314  17.299  1.00  0.00     0.684 A 
HETATM   11  N8  UNL     1      12.350  20.980  16.082  1.00  0.00    -0.188 N 
ATOM     12  H8  UNL     1      11.809  20.355  15.484  1.00  0.00     0.184 HD
HETATM   13  C26 UNL     1      13.519  21.504  15.678  1.00  0.00     0.096 A 
HETATM   14  C27 UNL     1      14.047  21.217  14.419  1.00  0.00     0.138 A 
HETATM   15  N9  UNL     1      15.206  21.724  13.991  1.00  0.00    -0.200 N 
ATOM     16  H9  UNL     1      15.559  21.490  13.063  1.00  0.00     0.183 HD
ENDROOT
BRANCH  10  17
HETATM   17  N6  UNL     1      10.788  20.816  17.726  1.00  0.00    -0.192 N 
ATOM     18  H6  UNL     1      10.284  21.288  18.476  1.00  0.00     0.184 HD
BRANCH  17  19
HETATM   19  C14 UNL     1      10.248  19.631  17.158  1.00  0.00     0.049 A 
HETATM   20  C15 UNL     1      10.464  18.445  17.835  1.00  0.00     0.032 A 
HETATM   21  C16 UNL     1       9.957  17.285  17.318  1.00  0.00     0.032 A 
HETATM   22  C17 UNL     1       9.214  17.213  16.119  1.00  0.00     0.036 A 
HETATM   23  C23 UNL     1       9.015  18.402  15.472  1.00  0.00    -0.033 A 
HETATM   24  C24 UNL     1       8.234  18.523  14.216  1.00  0.00     0.050 C 
HETATM   25  C25 UNL     1       9.530  19.602  15.990  1.00  0.00     0.039 A 
BRANCH  22  26
HETATM   26  N7  UNL     1       8.771  15.941  15.673  1.00  0.00    -0.380 N 
HETATM   27  C18 UNL     1       7.780  15.255  16.518  1.00  0.00     0.123 C 
HETATM   28  C19 UNL     1       6.632  14.689  15.736  1.00  0.00     0.020 C 
HETATM   29  C20 UNL     1       6.744  15.132  14.305  1.00  0.00     0.003 C 
HETATM   30  C21 UNL     1       8.066  14.656  13.732  1.00  0.00     0.020 C 
HETATM   31  C22 UNL     1       9.224  15.216  14.527  1.00  0.00     0.123 C 
ENDBRANCH  22  26
ENDBRANCH  17  19
ENDBRANCH  10  17
BRANCH   7  32
HETATM   32  N4  UNL     1      14.463  23.430  18.431  1.00  0.00    -0.351 N 
ATOM     33  H4  UNL     1      14.622  24.271  17.876  1.00  0.00     0.166 HD
BRANCH  32  34
HETATM   34  C10 UNL     1      15.112  23.607  19.638  1.00  0.00     0.088 C 
BRANCH  34  35
HETATM   35  C11 UNL     1      16.511  24.138  19.654  1.00  0.00     0.211 C 
BRANCH  35  36
HETATM   36  O1  UNL     1      17.234  23.640  18.606  1.00  0.00    -0.391 OA
HETATM   37  C12 UNL     1      17.964  24.526  17.867  1.00  0.00     0.201 C 
ENDBRANCH  35  36
ENDBRANCH  34  35
ENDBRANCH  32  34
ENDBRANCH   7  32
BRANCH   1  38
HETATM   38  C6  UNL     1      17.713  22.891  13.210  1.00  0.00     0.168 C 
BRANCH  38  39
HETATM   39  C5  UNL     1      17.339  23.956  12.215  1.00  0.00     0.292 C 
BRANCH  39  40
HETATM   40  N1  UNL     1      17.150  25.244  12.760  1.00  0.00     0.089 N 
BRANCH  40  41
HETATM   41  C2  UNL     1      18.345  25.981  13.026  1.00  0.00     0.268 C 
HETATM   42  C1  UNL     1      18.401  26.582  14.403  1.00  0.00     0.037 C 
ENDBRANCH  40  41
BRANCH  40  43
HETATM   43  C3  UNL     1      16.217  26.085  12.054  1.00  0.00     0.268 C 
HETATM   44  C4  UNL     1      16.834  26.935  10.991  1.00  0.00     0.037 C 
ENDBRANCH  40  43
ENDBRANCH  39  40
ENDBRANCH  38  39
ENDBRANCH   1  38
TORSDOF 12
ENDMDL
MODEL 5
REMARK VINA RESULT: -8.739955529      1.040      2.050
REMARK  12 active torsions:
REMARK  status: ('A' for Active; 'I' for Inactive)
REMARK    1  A    between atoms: C2_2  and  N1_3 
REMARK    2  A    between atoms: N1_3  and  C3_4 
REMARK    3  A    between atoms: N1_3  and  C5_6 
REMARK    4  A    between atoms: C5_6  and  C6_7 
REMARK    5  A    between atoms: C6_7  and  N2_8 
REMARK    6  A    between atoms: C9_14  and  N4_15 
REMARK    7  A    between atoms: N4_15  and  C10_17 
REMARK    8  A    between atoms: C10_17  and  C11_18 
REMARK    9  A    between atoms: C11_18  and  O1_19 
REMARK   10  A    between atoms: C13_23  and  N6_24 
REMARK   11  A    between atoms: N6_24  and  C14_26 
REMARK   12  A    between atoms: C17_29  and  N7_30 
ROOT
HETATM    1  N2  UNL     1      16.958  23.686  14.840  1.00  0.00    -0.224 N 
ATOM      2  H2  UNL     1      17.064  24.390  15.571  1.00  0.00     0.177 HD
HETATM    3  C7  UNL     1      16.279  22.644  15.140  1.00  0.00     0.678 A 
HETATM    4  N3  UNL     1      15.772  22.595  16.408  1.00  0.00    -0.186 N 
ATOM      5  H3  UNL     1      15.943  23.367  17.052  1.00  0.00     0.184 HD
HETATM    6  C8  UNL     1      15.051  21.540  16.810  1.00  0.00     0.122 A 
HETATM    7  C9  UNL     1      14.524  21.493  18.128  1.00  0.00     0.150 A 
HETATM    8  N5  UNL     1      13.811  20.410  18.462  1.00  0.00    -0.174 N 
ATOM      9  H5  UNL     1      13.417  20.340  19.400  1.00  0.00     0.186 HD
HETATM   10  C13 UNL     1      13.607  19.419  17.591  1.00  0.00     0.684 A 
HETATM   11  N8  UNL     1      14.079  19.418  16.348  1.00  0.00    -0.188 N 
ATOM     12  H8  UNL     1      13.902  18.643  15.709  1.00  0.00     0.184 HD
HETATM   13  C26 UNL     1      14.801  20.489  15.973  1.00  0.00     0.096 A 
HETATM   14  C27 UNL     1      15.340  20.587  14.690  1.00  0.00     0.138 A 
HETATM   15  N9  UNL     1      16.060  21.638  14.289  1.00  0.00    -0.200 N 
ATOM     16  H9  UNL     1      16.438  21.673  13.343  1.00  0.00     0.183 HD
ENDROOT
BRANCH  10  17
HETATM   17  N6  UNL     1      12.898  18.383  17.990  1.00  0.00    -0.192 N 
ATOM     18  H6  UNL     1      13.157  17.899  18.849  1.00  0.00     0.184 HD
BRANCH  17  19
HETATM   19  C14 UNL     1      11.779  17.930  17.243  1.00  0.00     0.049 A 
HETATM   20  C15 UNL     1      10.579  17.791  17.916  1.00  0.00     0.032 A 
HETATM   21  C16 UNL     1       9.479  17.357  17.227  1.00  0.00     0.032 A 
HETATM   22  C17 UNL     1       9.484  17.037  15.852  1.00  0.00     0.036 A 
HETATM   23  C23 UNL     1      10.685  17.186  15.212  1.00  0.00    -0.033 A 
HETATM   24  C24 UNL     1      10.872  16.924  13.763  1.00  0.00     0.050 C 
HETATM   25  C25 UNL     1      11.823  17.629  15.905  1.00  0.00     0.039 A 
BRANCH  22  26
HETATM   26  N7  UNL     1       8.283  16.566  15.262  1.00  0.00    -0.380 N 
HETATM   27  C18 UNL     1       8.327  15.222  14.662  1.00  0.00     0.123 C 
HETATM   28  C19 UNL     1       7.160  14.366  15.051  1.00  0.00     0.020 C 
HETATM   29  C20 UNL     1       6.346  15.083  16.090  1.00  0.00     0.003 C 
HETATM   30  C21 UNL     1       5.871  16.411  15.529  1.00  0.00     0.020 C 
HETATM   31  C22 UNL     1       7.047  17.270  15.125  1.00  0.00     0.123 C 
ENDBRANCH  22  26
ENDBRANCH  17  19
ENDBRANCH  10  17
BRANCH   7  32
HETATM   32  N4  UNL     1      14.768  22.456  18.855  1.00  0.00    -0.351 N 
ATOM     33  H4  UNL     1      15.674  22.828  18.569  1.00  0.00     0.166 HD
BRANCH  32  34
HETATM   34  C10 UNL     1      14.314  23.239  19.899  1.00  0.00     0.088 C 
BRANCH  34  35
HETATM   35  C11 UNL     1      14.796  24.649  20.031  1.00  0.00     0.211 C 
BRANCH  35  36
HETATM   36  O1  UNL     1      15.920  24.710  20.807  1.00  0.00    -0.391 OA
HETATM   37  C12 UNL     1      17.121  24.825  20.168  1.00  0.00     0.201 C 
ENDBRANCH  35  36
ENDBRANCH  34  35
ENDBRANCH  32  34
ENDBRANCH   7  32
BRANCH   1  38
HETATM   38  C6  UNL     1      17.588  23.964  13.573  1.00  0.00     0.168 C 
BRANCH  38  39
HETATM   39  C5  UNL     1      16.759  24.906  12.742  1.00  0.00     0.292 C 
BRANCH  39  40
HETATM   40  N1  UNL     1      17.420  26.085  12.336  1.00  0.00     0.089 N 
BRANCH  40  41
HETATM   41  C2  UNL     1      16.746  26.856  11.339  1.00  0.00     0.268 C 
HETATM   42  C1  UNL     1      15.278  27.047  11.599  1.00  0.00     0.037 C 
ENDBRANCH  40  41
BRANCH  40  43
HETATM   43  C3  UNL     1      17.850  26.953  13.401  1.00  0.00     0.268 C 
HETATM   44  C4  UNL     1      19.143  27.655  13.142  1.00  0.00     0.037 C 
ENDBRANCH  40  43
ENDBRANCH  39  40
ENDBRANCH  38  39
ENDBRANCH   1  38
TORSDOF 12
ENDMDL
