MODEL 1
REMARK VINA RESULT: -8.795031764      0.000      0.000
REMARK  12 active torsions:
REMARK  status: ('A' for Active; 'I' for Inactive)
REMARK    1  A    between atoms: C2_2  and  N1_3 
REMARK    2  A    between atoms: N1_3  and  C3_4 
REMARK    3  A    between atoms: N1_3  and  C5_6 
REMARK    4  A    between atoms: C5_6  and  C6_7 
REMARK    5  A    between atoms: C6_7  and  N2_8 
REMARK    6  A    between atoms: N2_8  and  C8_10 
REMARK    7  A    between atoms: C8_10  and  C9_11 
REMARK    8  A    between atoms: C9_11  and  C10_12 
REMARK    9  A    between atoms: C10_12  and  N3_13 
REMARK   10  A    between atoms: N3_13  and  C11_15 
REMARK   11  A    between atoms: N8_33  and  C19_34 
REMARK   12  A    between atoms: C19_34  and  C20_35 
ROOT
HETATM    1  C11 UNL     1      12.999  21.521  16.443  1.00  0.00     0.117 A 
HETATM    2  N4  UNL     1      12.390  20.963  15.383  1.00  0.00    -0.338 N 
ATOM      3  H4  UNL     1      11.516  20.458  15.526  1.00  0.00     0.168 HD
HETATM    4  C12 UNL     1      12.901  21.051  14.123  1.00  0.00     0.183 A 
HETATM    5  N5  UNL     1      14.028  21.688  13.865  1.00  0.00    -0.338 N 
ATOM      6  H5  UNL     1      14.396  21.742  12.915  1.00  0.00     0.168 HD
HETATM    7  C13 UNL     1      14.672  22.261  14.885  1.00  0.00     0.125 A 
HETATM    8  C14 UNL     1      14.186  22.194  16.170  1.00  0.00     0.071 A 
HETATM    9  C15 UNL     1      15.065  22.865  16.952  1.00  0.00     0.094 A 
HETATM   10  C16 UNL     1      15.094  23.113  18.292  1.00  0.00     0.264 A 
HETATM   11  O1  UNL     1      14.263  22.760  19.146  1.00  0.00    -0.267 OA
HETATM   12  N6  UNL     1      16.145  23.827  18.781  1.00  0.00    -0.275 N 
ATOM     13  H6  UNL     1      16.197  24.032  19.778  1.00  0.00     0.173 HD
HETATM   14  C17 UNL     1      17.119  24.267  17.954  1.00  0.00     0.328 A 
HETATM   15  O2  UNL     1      18.104  24.935  18.433  1.00  0.00    -0.247 OA
HETATM   16  N7  UNL     1      17.083  24.020  16.638  1.00  0.00    -0.293 N 
ATOM     17  H7  UNL     1      17.833  24.367  16.040  1.00  0.00     0.172 HD
HETATM   18  C18 UNL     1      16.080  23.328  16.101  1.00  0.00     0.130 A 
HETATM   19  N8  UNL     1      15.842  22.959  14.830  1.00  0.00    -0.313 N 
ENDROOT
BRANCH   1  20
HETATM   20  N3  UNL     1      12.504  21.395  17.585  1.00  0.00    -0.375 N 
ATOM     21  H3  UNL     1      13.051  20.877  18.273  1.00  0.00     0.161 HD
BRANCH  20  22
HETATM   22  C10 UNL     1      11.256  21.907  18.006  1.00  0.00     0.123 C 
BRANCH  22  23
HETATM   23  C9  UNL     1      10.828  21.357  19.377  1.00  0.00     0.050 C 
BRANCH  23  24
HETATM   24  C8  UNL     1       9.611  20.509  19.120  1.00  0.00     0.273 C 
BRANCH  24  25
HETATM   25  N2  UNL     1       9.936  19.099  19.158  1.00  0.00     0.086 N 
HETATM   26  C7  UNL     1       9.240  18.607  20.370  1.00  0.00     0.309 C 
BRANCH  25  27
HETATM   27  C6  UNL     1       9.393  18.404  17.999  1.00  0.00     0.302 C 
BRANCH  27  28
HETATM   28  C5  UNL     1      10.538  18.192  17.055  1.00  0.00     0.302 C 
BRANCH  28  29
HETATM   29  N1  UNL     1       9.989  17.996  15.723  1.00  0.00     0.089 N 
BRANCH  29  30
HETATM   30  C2  UNL     1      10.987  17.661  14.764  1.00  0.00     0.268 C 
HETATM   31  C1  UNL     1      10.628  16.679  13.715  1.00  0.00     0.037 C 
ENDBRANCH  29  30
BRANCH  29  32
HETATM   32  C3  UNL     1       9.110  19.062  15.344  1.00  0.00     0.268 C 
HETATM   33  C4  UNL     1       7.960  18.712  14.470  1.00  0.00     0.037 C 
ENDBRANCH  29  32
ENDBRANCH  28  29
ENDBRANCH  27  28
ENDBRANCH  25  27
ENDBRANCH  24  25
ENDBRANCH  23  24
ENDBRANCH  22  23
ENDBRANCH  20  22
ENDBRANCH   1  20
BRANCH  19  34
HETATM   34  C19 UNL     1      16.629  23.199  13.638  1.00  0.00     0.171 C 
BRANCH  34  35
HETATM   35  C20 UNL     1      16.735  24.608  13.225  1.00  0.00    -0.039 A 
HETATM   36  C21 UNL     1      17.963  25.285  13.365  1.00  0.00     0.015 A 
HETATM   37  C22 UNL     1      18.078  26.599  12.980  1.00  0.00    -0.061 A 
HETATM   38  C23 UNL     1      19.363  27.337  13.103  1.00  0.00     0.048 C 
HETATM   39  C24 UNL     1      16.973  27.244  12.454  1.00  0.00     0.013 A 
HETATM   40  C25 UNL     1      15.754  26.581  12.313  1.00  0.00    -0.061 A 
HETATM   41  C26 UNL     1      14.543  27.246  11.750  1.00  0.00     0.048 C 
HETATM   42  C27 UNL     1      15.639  25.251  12.703  1.00  0.00     0.015 A 
ENDBRANCH  34  35
ENDBRANCH  19  34
TORSDOF 12
ENDMDL
MODEL 2
REMARK VINA RESULT: -8.641322021      0.439      1.478
REMARK  12 active torsions:
REMARK  status: ('A' for Active; 'I' for Inactive)
REMARK    1  A    between atoms: C2_2  and  N1_3 
REMARK    2  A    between atoms: N1_3  and  C3_4 
REMARK    3  A    between atoms: N1_3  and  C5_6 
REMARK    4  A    between atoms: C5_6  and  C6_7 
REMARK    5  A    between atoms: C6_7  and  N2_8 
REMARK    6  A    between atoms: N2_8  and  C8_10 
REMARK    7  A    between atoms: C8_10  and  C9_11 
REMARK    8  A    between atoms: C9_11  and  C10_12 
REMARK    9  A    between atoms: C10_12  and  N3_13 
REMARK   10  A    between atoms: N3_13  and  C11_15 
REMARK   11  A    between atoms: N8_33  and  C19_34 
REMARK   12  A    between atoms: C19_34  and  C20_35 
ROOT
HETATM    1  C11 UNL     1      13.112  21.623  16.204  1.00  0.00     0.117 A 
HETATM    2  N4  UNL     1      12.625  21.103  15.064  1.00  0.00    -0.338 N 
ATOM      3  H4  UNL     1      11.746  20.587  15.094  1.00  0.00     0.168 HD
HETATM    4  C12 UNL     1      13.267  21.242  13.871  1.00  0.00     0.183 A 
HETATM    5  N5  UNL     1      14.409  21.896  13.759  1.00  0.00    -0.338 N 
ATOM      6  H5  UNL     1      14.875  21.989  12.856  1.00  0.00     0.168 HD
HETATM    7  C13 UNL     1      14.934  22.433  14.863  1.00  0.00     0.125 A 
HETATM    8  C14 UNL     1      14.314  22.314  16.085  1.00  0.00     0.071 A 
HETATM    9  C15 UNL     1      15.097  22.961  16.982  1.00  0.00     0.094 A 
HETATM   10  C16 UNL     1      14.980  23.157  18.325  1.00  0.00     0.264 A 
HETATM   11  O1  UNL     1      14.066  22.767  19.071  1.00  0.00    -0.267 OA
HETATM   12  N6  UNL     1      15.965  23.859  18.950  1.00  0.00    -0.275 N 
ATOM     13  H6  UNL     1      15.908  24.026  19.954  1.00  0.00     0.173 HD
HETATM   14  C17 UNL     1      17.018  24.337  18.249  1.00  0.00     0.328 A 
HETATM   15  O2  UNL     1      17.938  24.992  18.856  1.00  0.00    -0.247 OA
HETATM   16  N7  UNL     1      17.125  24.140  16.929  1.00  0.00    -0.293 N 
ATOM     17  H7  UNL     1      17.930  24.514  16.429  1.00  0.00     0.172 HD
HETATM   18  C18 UNL     1      16.192  23.463  16.262  1.00  0.00     0.130 A 
HETATM   19  N8  UNL     1      16.096  23.140  14.960  1.00  0.00    -0.313 N 
ENDROOT
BRANCH   1  20
HETATM   20  N3  UNL     1      12.499  21.451  17.281  1.00  0.00    -0.375 N 
ATOM     21  H3  UNL     1      12.952  20.868  17.984  1.00  0.00     0.161 HD
BRANCH  20  22
HETATM   22  C10 UNL     1      11.235  21.992  17.609  1.00  0.00     0.123 C 
BRANCH  22  23
HETATM   23  C9  UNL     1      10.639  21.363  18.880  1.00  0.00     0.050 C 
BRANCH  23  24
HETATM   24  C8  UNL     1      11.379  20.068  19.085  1.00  0.00     0.273 C 
BRANCH  24  25
HETATM   25  N2  UNL     1      10.462  18.957  19.231  1.00  0.00     0.086 N 
HETATM   26  C7  UNL     1       9.488  19.432  20.243  1.00  0.00     0.309 C 
BRANCH  25  27
HETATM   27  C6  UNL     1       9.748  18.698  17.988  1.00  0.00     0.302 C 
BRANCH  27  28
HETATM   28  C5  UNL     1      10.760  18.166  17.019  1.00  0.00     0.302 C 
BRANCH  28  29
HETATM   29  N1  UNL     1      10.093  17.959  15.744  1.00  0.00     0.089 N 
BRANCH  29  30
HETATM   30  C2  UNL     1      11.005  17.669  14.690  1.00  0.00     0.268 C 
HETATM   31  C1  UNL     1      10.665  16.554  13.776  1.00  0.00     0.037 C 
ENDBRANCH  29  30
BRANCH  29  32
HETATM   32  C3  UNL     1       9.141  18.992  15.464  1.00  0.00     0.268 C 
HETATM   33  C4  UNL     1       8.018  18.648  14.554  1.00  0.00     0.037 C 
ENDBRANCH  29  32
ENDBRANCH  28  29
ENDBRANCH  27  28
ENDBRANCH  25  27
ENDBRANCH  24  25
ENDBRANCH  23  24
ENDBRANCH  22  23
ENDBRANCH  20  22
ENDBRANCH   1  20
BRANCH  19  34
HETATM   34  C19 UNL     1      17.003  23.432  13.869  1.00  0.00     0.171 C 
BRANCH  34  35
HETATM   35  C20 UNL     1      17.021  24.834  13.420  1.00  0.00    -0.039 A 
HETATM   36  C21 UNL     1      15.919  25.353  12.713  1.00  0.00     0.015 A 
HETATM   37  C22 UNL     1      15.920  26.661  12.291  1.00  0.00    -0.061 A 
HETATM   38  C23 UNL     1      14.767  27.242  11.554  1.00  0.00     0.048 C 
HETATM   39  C24 UNL     1      17.017  27.457  12.573  1.00  0.00     0.013 A 
HETATM   40  C25 UNL     1      18.111  26.949  13.273  1.00  0.00    -0.061 A 
HETATM   41  C26 UNL     1      19.309  27.779  13.592  1.00  0.00     0.048 C 
HETATM   42  C27 UNL     1      18.109  25.625  13.698  1.00  0.00     0.015 A 
ENDBRANCH  34  35
ENDBRANCH  19  34
TORSDOF 12
ENDMDL
MODEL 3
REMARK VINA RESULT: -8.480863015      3.961     10.999
REMARK  12 active torsions:
REMARK  status: ('A' for Active; 'I' for Inactive)
REMARK    1  A    between atoms: C2_2  and  N1_3 
REMARK    2  A    between atoms: N1_3  and  C3_4 
REMARK    3  A    between atoms: N1_3  and  C5_6 
REMARK    4  A    between atoms: C5_6  and  C6_7 
REMARK    5  A    between atoms: C6_7  and  N2_8 
REMARK    6  A    between atoms: N2_8  and  C8_10 
REMARK    7  A    between atoms: C8_10  and  C9_11 
REMARK    8  A    between atoms: C9_11  and  C10_12 
REMARK    9  A    between atoms: C10_12  and  N3_13 
REMARK   10  A    between atoms: N3_13  and  C11_15 
REMARK   11  A    between atoms: N8_33  and  C19_34 
REMARK   12  A    between atoms: C19_34  and  C20_35 
ROOT
HETATM    1  C11 UNL     1      10.671  18.295  17.073  1.00  0.00     0.117 A 
HETATM    2  N4  UNL     1      10.712  18.884  18.281  1.00  0.00    -0.338 N 
ATOM      3  H4  UNL     1      11.491  19.503  18.501  1.00  0.00     0.168 HD
HETATM    4  C12 UNL     1       9.746  18.680  19.220  1.00  0.00     0.183 A 
HETATM    5  N5  UNL     1       8.710  17.891  19.003  1.00  0.00    -0.338 N 
ATOM      6  H5  UNL     1       7.997  17.751  19.719  1.00  0.00     0.168 HD
HETATM    7  C13 UNL     1       8.623  17.283  17.818  1.00  0.00     0.125 A 
HETATM    8  C14 UNL     1       9.578  17.465  16.844  1.00  0.00     0.071 A 
HETATM    9  C15 UNL     1       9.196  16.716  15.782  1.00  0.00     0.094 A 
HETATM   10  C16 UNL     1       9.758  16.512  14.557  1.00  0.00     0.264 A 
HETATM   11  O1  UNL     1      10.810  17.004  14.114  1.00  0.00    -0.267 OA
HETATM   12  N6  UNL     1       9.115  15.675  13.698  1.00  0.00    -0.275 N 
ATOM     13  H6  UNL     1       9.507  15.500  12.773  1.00  0.00     0.173 HD
HETATM   14  C17 UNL     1       7.960  15.072  14.061  1.00  0.00     0.328 A 
HETATM   15  O2  UNL     1       7.371  14.283  13.241  1.00  0.00    -0.247 OA
HETATM   16  N7  UNL     1       7.414  15.279  15.267  1.00  0.00    -0.293 N 
ATOM     17  H7  UNL     1       6.542  14.811  15.511  1.00  0.00     0.172 HD
HETATM   18  C18 UNL     1       7.996  16.089  16.150  1.00  0.00     0.130 A 
HETATM   19  N8  UNL     1       7.641  16.434  17.399  1.00  0.00    -0.313 N 
ENDROOT
BRANCH   1  20
HETATM   20  N3  UNL     1      11.592  18.493  16.250  1.00  0.00    -0.375 N 
ATOM     21  H3  UNL     1      11.665  17.842  15.469  1.00  0.00     0.161 HD
BRANCH  20  22
HETATM   22  C10 UNL     1      12.541  19.540  16.307  1.00  0.00     0.123 C 
BRANCH  22  23
HETATM   23  C9  UNL     1      12.519  20.421  15.047  1.00  0.00     0.050 C 
BRANCH  23  24
HETATM   24  C8  UNL     1      13.260  21.680  15.410  1.00  0.00     0.273 C 
BRANCH  24  25
HETATM   25  N2  UNL     1      14.579  21.382  15.926  1.00  0.00     0.086 N 
HETATM   26  C7  UNL     1      15.386  21.122  14.709  1.00  0.00     0.309 C 
BRANCH  25  27
HETATM   27  C6  UNL     1      15.145  22.531  16.619  1.00  0.00     0.302 C 
BRANCH  27  28
HETATM   28  C5  UNL     1      14.039  23.121  17.439  1.00  0.00     0.302 C 
BRANCH  28  29
HETATM   29  N1  UNL     1      14.425  23.039  18.838  1.00  0.00     0.089 N 
BRANCH  29  30
HETATM   30  C2  UNL     1      13.645  22.099  19.567  1.00  0.00     0.268 C 
HETATM   31  C1  UNL     1      12.223  21.941  19.183  1.00  0.00     0.037 C 
ENDBRANCH  29  30
BRANCH  29  32
HETATM   32  C3  UNL     1      14.539  24.336  19.438  1.00  0.00     0.268 C 
HETATM   33  C4  UNL     1      14.402  24.411  20.916  1.00  0.00     0.037 C 
ENDBRANCH  29  32
ENDBRANCH  28  29
ENDBRANCH  27  28
ENDBRANCH  25  27
ENDBRANCH  24  25
ENDBRANCH  23  24
ENDBRANCH  22  23
ENDBRANCH  20  22
ENDBRANCH   1  20
BRANCH  19  34
HETATM   34  C19 UNL     1       6.497  16.012  18.183  1.00  0.00     0.171 C 
BRANCH  34  35
HETATM   35  C20 UNL     1       5.294  16.848  18.044  1.00  0.00    -0.039 A 
HETATM   36  C21 UNL     1       4.455  16.681  16.924  1.00  0.00     0.015 A 
HETATM   37  C22 UNL     1       3.326  17.451  16.783  1.00  0.00    -0.061 A 
HETATM   38  C23 UNL     1       2.414  17.291  15.620  1.00  0.00     0.048 C 
HETATM   39  C24 UNL     1       3.026  18.389  17.756  1.00  0.00     0.013 A 
HETATM   40  C25 UNL     1       3.852  18.559  18.867  1.00  0.00    -0.061 A 
HETATM   41  C26 UNL     1       3.560  19.561  19.934  1.00  0.00     0.048 C 
HETATM   42  C27 UNL     1       4.995  17.779  19.007  1.00  0.00     0.015 A 
ENDBRANCH  34  35
ENDBRANCH  19  34
TORSDOF 12
ENDMDL
MODEL 4
REMARK VINA RESULT: -8.470849314      3.973     10.971
REMARK  12 active torsions:
REMARK  status: ('A' for Active; 'I' for Inactive)
REMARK    1  A    between atoms: C2_2  and  N1_3 
REMARK    2  A    between atoms: N1_3  and  C3_4 
REMARK    3  A    between atoms: N1_3  and  C5_6 
REMARK    4  A    between atoms: C5_6  and  C6_7 
REMARK    5  A    between atoms: C6_7  and  N2_8 
REMARK    6  A    between atoms: N2_8  and  C8_10 
REMARK    7  A    between atoms: C8_10  and  C9_11 
REMARK    8  A    between atoms: C9_11  and  C10_12 
REMARK    9  A    between atoms: C10_12  and  N3_13 
REMARK   10  A    between atoms: N3_13  and  C11_15 
REMARK   11  A    between atoms: N8_33  and  C19_34 
REMARK   12  A    between atoms: C19_34  and  C20_35 
ROOT
HETATM    1  C11 UNL     1      10.635  18.284  17.077  1.00  0.00     0.117 A 
HETATM    2  N4  UNL     1      10.674  18.884  18.280  1.00  0.00    -0.338 N 
ATOM      3  H4  UNL     1      11.454  19.504  18.497  1.00  0.00     0.168 HD
HETATM    4  C12 UNL     1       9.705  18.690  19.218  1.00  0.00     0.183 A 
HETATM    5  N5  UNL     1       8.669  17.900  19.005  1.00  0.00    -0.338 N 
ATOM      6  H5  UNL     1       7.954  17.767  19.721  1.00  0.00     0.168 HD
HETATM    7  C13 UNL     1       8.584  17.282  17.825  1.00  0.00     0.125 A 
HETATM    8  C14 UNL     1       9.542  17.454  16.853  1.00  0.00     0.071 A 
HETATM    9  C15 UNL     1       9.161  16.697  15.796  1.00  0.00     0.094 A 
HETATM   10  C16 UNL     1       9.727  16.481  14.575  1.00  0.00     0.264 A 
HETATM   11  O1  UNL     1      10.780  16.968  14.130  1.00  0.00    -0.267 OA
HETATM   12  N6  UNL     1       9.084  15.637  13.721  1.00  0.00    -0.275 N 
ATOM     13  H6  UNL     1       9.478  15.454  12.799  1.00  0.00     0.173 HD
HETATM   14  C17 UNL     1       7.927  15.040  14.087  1.00  0.00     0.328 A 
HETATM   15  O2  UNL     1       7.339  14.245  13.271  1.00  0.00    -0.247 OA
HETATM   16  N7  UNL     1       7.379  15.258  15.288  1.00  0.00    -0.293 N 
ATOM     17  H7  UNL     1       6.505  14.794  15.534  1.00  0.00     0.172 HD
HETATM   18  C18 UNL     1       7.959  16.074  16.166  1.00  0.00     0.130 A 
HETATM   19  N8  UNL     1       7.601  16.431  17.412  1.00  0.00    -0.313 N 
ENDROOT
BRANCH   1  20
HETATM   20  N3  UNL     1      11.559  18.474  16.255  1.00  0.00    -0.375 N 
ATOM     21  H3  UNL     1      11.618  17.830  15.466  1.00  0.00     0.161 HD
BRANCH  20  22
HETATM   22  C10 UNL     1      12.528  19.502  16.322  1.00  0.00     0.123 C 
BRANCH  22  23
HETATM   23  C9  UNL     1      12.524  20.395  15.070  1.00  0.00     0.050 C 
BRANCH  23  24
HETATM   24  C8  UNL     1      13.243  21.658  15.462  1.00  0.00     0.273 C 
BRANCH  24  25
HETATM   25  N2  UNL     1      14.574  21.373  15.957  1.00  0.00     0.086 N 
HETATM   26  C7  UNL     1      15.364  21.126  14.727  1.00  0.00     0.309 C 
BRANCH  25  27
HETATM   27  C6  UNL     1      15.138  22.526  16.645  1.00  0.00     0.302 C 
BRANCH  27  28
HETATM   28  C5  UNL     1      14.022  23.136  17.438  1.00  0.00     0.302 C 
BRANCH  28  29
HETATM   29  N1  UNL     1      14.395  23.093  18.842  1.00  0.00     0.089 N 
BRANCH  29  30
HETATM   30  C2  UNL     1      13.642  22.138  19.580  1.00  0.00     0.268 C 
HETATM   31  C1  UNL     1      12.231  21.923  19.184  1.00  0.00     0.037 C 
ENDBRANCH  29  30
BRANCH  29  32
HETATM   32  C3  UNL     1      14.456  24.403  19.420  1.00  0.00     0.268 C 
HETATM   33  C4  UNL     1      14.352  24.495  20.899  1.00  0.00     0.037 C 
ENDBRANCH  29  32
ENDBRANCH  28  29
ENDBRANCH  27  28
ENDBRANCH  25  27
ENDBRANCH  24  25
ENDBRANCH  23  24
ENDBRANCH  22  23
ENDBRANCH  20  22
ENDBRANCH   1  20
BRANCH  19  34
HETATM   34  C19 UNL     1       6.455  16.018  18.195  1.00  0.00     0.171 C 
BRANCH  34  35
HETATM   35  C20 UNL     1       5.252  16.852  18.043  1.00  0.00    -0.039 A 
HETATM   36  C21 UNL     1       4.948  17.820  19.020  1.00  0.00     0.015 A 
HETATM   37  C22 UNL     1       3.830  18.609  18.889  1.00  0.00    -0.061 A 
HETATM   38  C23 UNL     1       3.489  19.649  19.896  1.00  0.00     0.048 C 
HETATM   39  C24 UNL     1       3.012  18.438  17.786  1.00  0.00     0.013 A 
HETATM   40  C25 UNL     1       3.307  17.481  16.815  1.00  0.00    -0.061 A 
HETATM   41  C26 UNL     1       2.448  17.270  15.614  1.00  0.00     0.048 C 
HETATM   42  C27 UNL     1       4.439  16.683  16.950  1.00  0.00     0.015 A 
ENDBRANCH  34  35
ENDBRANCH  19  34
TORSDOF 12
ENDMDL
MODEL 5
REMARK VINA RESULT: -8.413992693      3.007     10.089
REMARK  12 active torsions:
REMARK  status: ('A' for Active; 'I' for Inactive)
REMARK    1  A    between atoms: C2_2  and  N1_3 
REMARK    2  A    between atoms: N1_3  and  C3_4 
REMARK    3  A    between atoms: N1_3  and  C5_6 
REMARK    4  A    between atoms: C5_6  and  C6_7 
REMARK    5  A    between atoms: C6_7  and  N2_8 
REMARK    6  A    between atoms: N2_8  and  C8_10 
REMARK    7  A    between atoms: C8_10  and  C9_11 
REMARK    8  A    between atoms: C9_11  and  C10_12 
REMARK    9  A    between atoms: C10_12  and  N3_13 
REMARK   10  A    between atoms: N3_13  and  C11_15 
REMARK   11  A    between atoms: N8_33  and  C19_34 
REMARK   12  A    between atoms: C19_34  and  C20_35 
ROOT
HETATM    1  C11 UNL     1      10.175  20.350  18.792  1.00  0.00     0.117 A 
HETATM    2  N4  UNL     1       9.724  20.359  20.058  1.00  0.00    -0.338 N 
ATOM      3  H4  UNL     1       9.964  21.145  20.662  1.00  0.00     0.168 HD
HETATM    4  C12 UNL     1       8.955  19.353  20.561  1.00  0.00     0.183 A 
HETATM    5  N5  UNL     1       8.605  18.306  19.837  1.00  0.00    -0.338 N 
ATOM      6  H5  UNL     1       8.029  17.562  20.232  1.00  0.00     0.168 HD
HETATM    7  C13 UNL     1       9.028  18.250  18.572  1.00  0.00     0.125 A 
HETATM    8  C14 UNL     1       9.805  19.248  18.029  1.00  0.00     0.071 A 
HETATM    9  C15 UNL     1      10.058  18.888  16.747  1.00  0.00     0.094 A 
HETATM   10  C16 UNL     1      10.773  19.485  15.753  1.00  0.00     0.264 A 
HETATM   11  O1  UNL     1      11.385  20.566  15.804  1.00  0.00    -0.267 OA
HETATM   12  N6  UNL     1      10.843  18.847  14.553  1.00  0.00    -0.275 N 
ATOM     13  H6  UNL     1      11.368  19.267  13.787  1.00  0.00     0.173 HD
HETATM   14  C17 UNL     1      10.221  17.660  14.369  1.00  0.00     0.328 A 
HETATM   15  O2  UNL     1      10.302  17.071  13.233  1.00  0.00    -0.247 OA
HETATM   16  N7  UNL     1       9.520  17.080  15.351  1.00  0.00    -0.293 N 
ATOM     17  H7  UNL     1       9.062  16.185  15.181  1.00  0.00     0.172 HD
HETATM   18  C18 UNL     1       9.414  17.657  16.547  1.00  0.00     0.130 A 
HETATM   19  N8  UNL     1       8.780  17.262  17.665  1.00  0.00    -0.313 N 
ENDROOT
BRANCH   1  20
HETATM   20  N3  UNL     1      10.897  21.285  18.380  1.00  0.00    -0.375 N 
ATOM     21  H3  UNL     1      10.660  21.691  17.475  1.00  0.00     0.161 HD
BRANCH  20  22
HETATM   22  C10 UNL     1      12.013  21.828  19.058  1.00  0.00     0.123 C 
BRANCH  22  23
HETATM   23  C9  UNL     1      13.347  21.266  18.538  1.00  0.00     0.050 C 
BRANCH  23  24
HETATM   24  C8  UNL     1      14.388  22.300  18.870  1.00  0.00     0.273 C 
BRANCH  24  25
HETATM   25  N2  UNL     1      14.707  23.113  17.715  1.00  0.00     0.086 N 
HETATM   26  C7  UNL     1      16.103  23.548  17.963  1.00  0.00     0.309 C 
BRANCH  25  27
HETATM   27  C6  UNL     1      14.680  22.323  16.492  1.00  0.00     0.302 C 
BRANCH  27  28
HETATM   28  C5  UNL     1      15.805  22.822  15.637  1.00  0.00     0.302 C 
BRANCH  28  29
HETATM   29  N1  UNL     1      15.399  22.700  14.246  1.00  0.00     0.089 N 
BRANCH  29  30
HETATM   30  C2  UNL     1      15.534  23.921  13.528  1.00  0.00     0.268 C 
HETATM   31  C1  UNL     1      16.656  24.033  12.568  1.00  0.00     0.037 C 
ENDBRANCH  29  30
BRANCH  29  32
HETATM   32  C3  UNL     1      14.130  22.049  14.114  1.00  0.00     0.268 C 
HETATM   33  C4  UNL     1      13.683  21.711  12.738  1.00  0.00     0.037 C 
ENDBRANCH  29  32
ENDBRANCH  28  29
ENDBRANCH  27  28
ENDBRANCH  25  27
ENDBRANCH  24  25
ENDBRANCH  23  24
ENDBRANCH  22  23
ENDBRANCH  20  22
ENDBRANCH   1  20
BRANCH  19  34
HETATM   34  C19 UNL     1       8.014  16.058  17.914  1.00  0.00     0.171 C 
BRANCH  34  35
HETATM   35  C20 UNL     1       6.795  15.907  17.102  1.00  0.00    -0.039 A 
HETATM   36  C21 UNL     1       5.697  16.760  17.329  1.00  0.00     0.015 A 
HETATM   37  C22 UNL     1       4.554  16.633  16.576  1.00  0.00    -0.061 A 
HETATM   38  C23 UNL     1       3.383  17.526  16.782  1.00  0.00     0.048 C 
HETATM   39  C24 UNL     1       4.500  15.658  15.595  1.00  0.00     0.013 A 
HETATM   40  C25 UNL     1       5.584  14.810  15.366  1.00  0.00    -0.061 A 
HETATM   41  C26 UNL     1       5.559  13.749  14.318  1.00  0.00     0.048 C 
HETATM   42  C27 UNL     1       6.739  14.940  16.129  1.00  0.00     0.015 A 
ENDBRANCH  34  35
ENDBRANCH  19  34
TORSDOF 12
ENDMDL
