MODEL 1
REMARK VINA RESULT: -7.370453470      0.000      0.000
REMARK  12 active torsions:
REMARK  status: ('A' for Active; 'I' for Inactive)
REMARK    1  A    between atoms: C2_2  and  C3_3 
REMARK    2  A    between atoms: C4_6  and  O1_7 
REMARK    3  A    between atoms: C6_10  and  O2_11 
REMARK    4  A    between atoms: C12_20  and  C13_21 
REMARK    5  A    between atoms: C13_21  and  O5_22 
REMARK    6  A    between atoms: C16_27  and  C17_28 
REMARK       I    between atoms: C17_28  and  N2_30 
REMARK    7  A    between atoms: N2_30  and  C18_31 
REMARK    8  A    between atoms: N2_30  and  C22_35 
REMARK    9  A    between atoms: C19_32  and  C20_33 
REMARK   10  A    between atoms: C22_35  and  C23_36 
REMARK   11  A    between atoms: C23_36  and  C24_37 
REMARK   12  A    between atoms: C24_37  and  C25_38 
ROOT
HETATM    1  C3  UNL     1       8.801  18.825  20.724  1.00  0.00     0.036 C 
HETATM    2  N1  UNL     1       7.722  18.616  21.395  1.00  0.00    -0.355 N 
ATOM      3  H1  UNL     1       7.640  19.118  22.279  1.00  0.00     0.162 HD
HETATM    4  C4  UNL     1       6.619  17.758  21.050  1.00  0.00     0.174 C 
HETATM    5  C5  UNL     1       5.408  18.591  20.954  1.00  0.00     0.091 C 
HETATM    6  C6  UNL     1       4.265  18.181  21.847  1.00  0.00     0.156 C 
HETATM    7  C7  UNL     1       3.255  19.182  21.437  1.00  0.00    -0.059 C 
HETATM    8  C8  UNL     1       2.452  19.849  22.201  1.00  0.00     0.017 C 
HETATM    9  C9  UNL     1       3.367  19.246  19.961  1.00  0.00     0.051 C 
HETATM   10  C10 UNL     1       4.748  18.720  19.629  1.00  0.00     0.101 C 
HETATM   11  C11 UNL     1       4.766  17.417  18.966  1.00  0.00     0.265 C 
HETATM   12  O3  UNL     1       3.821  17.103  18.203  1.00  0.00    -0.265 OA
HETATM   13  O4  UNL     1       5.789  16.501  19.142  1.00  0.00    -0.302 OA
HETATM   14  C12 UNL     1       6.896  16.750  20.010  1.00  0.00     0.151 C 
HETATM   15  C14 UNL     1       8.077  16.964  19.109  1.00  0.00     0.087 C 
HETATM   16  C15 UNL     1       7.587  17.208  17.665  1.00  0.00     0.182 C 
HETATM   17  O6  UNL     1       8.585  17.354  16.770  1.00  0.00    -0.372 OA
HETATM   18  C16 UNL     1       9.689  18.017  17.123  1.00  0.00     0.237 C 
HETATM   19  C27 UNL     1       9.580  18.684  18.461  1.00  0.00     0.024 C 
HETATM   20  C28 UNL     1       8.870  18.162  19.429  1.00  0.00    -0.023 C 
ENDROOT
BRANCH  18  21
HETATM   21  C17 UNL     1      10.207  19.024  16.184  1.00  0.00     0.260 C 
HETATM   22  O7  UNL     1       9.297  19.485  15.398  1.00  0.00    -0.269 OA
HETATM   23  N2  UNL     1      11.511  19.544  16.017  1.00  0.00    -0.305 N 
BRANCH  23  24
HETATM   24  C18 UNL     1      11.676  20.557  14.982  1.00  0.00     0.095 C 
HETATM   25  C19 UNL     1      12.934  20.855  14.348  1.00  0.00    -0.009 C 
BRANCH  25  26
HETATM   26  C20 UNL     1      14.145  21.329  15.025  1.00  0.00     0.024 C 
HETATM   27  C21 UNL     1      15.404  20.559  14.878  1.00  0.00     0.009 C 
ENDBRANCH  25  26
ENDBRANCH  23  24
BRANCH  23  28
HETATM   28  C22 UNL     1      12.634  19.015  16.733  1.00  0.00     0.072 C 
BRANCH  28  29
HETATM   29  C23 UNL     1      13.076  19.482  18.038  1.00  0.00     0.045 C 
BRANCH  29  30
HETATM   30  C24 UNL     1      12.805  20.925  18.339  1.00  0.00     0.005 C 
BRANCH  30  31
HETATM   31  C25 UNL     1      14.121  21.561  18.823  1.00  0.00    -0.004 C 
HETATM   32  C26 UNL     1      13.813  22.679  19.775  1.00  0.00     0.005 C 
ENDBRANCH  30  31
ENDBRANCH  29  30
ENDBRANCH  28  29
ENDBRANCH  23  28
ENDBRANCH  18  21
BRANCH   1  33
HETATM   33  C2  UNL     1       9.765  19.722  21.283  1.00  0.00     0.019 C 
HETATM   34  C1  UNL     1      10.254  20.854  20.880  1.00  0.00     0.013 C 
ENDBRANCH   1  33
BRANCH  14  35
HETATM   35  C13 UNL     1       7.164  15.397  20.701  1.00  0.00     0.208 C 
BRANCH  35  36
HETATM   36  O5  UNL     1       8.442  15.403  21.286  1.00  0.00    -0.398 OA
ATOM     37  H5  UNL     1       8.808  14.526  21.275  1.00  0.00     0.209 HD
ENDBRANCH  35  36
ENDBRANCH  14  35
BRANCH   4  38
HETATM   38  O1  UNL     1       6.417  17.030  22.303  1.00  0.00    -0.367 OA
ATOM     39  H1  UNL     1       7.053  16.330  22.217  1.00  0.00     0.212 HD
ENDBRANCH   4  38
BRANCH   6  40
HETATM   40  O2  UNL     1       3.698  16.957  21.446  1.00  0.00    -0.391 OA
ATOM     41  H2  UNL     1       4.056  16.224  21.933  1.00  0.00     0.210 HD
ENDBRANCH   6  40
TORSDOF 12
ENDMDL
MODEL 2
REMARK VINA RESULT: -7.202009684      1.392      2.894
REMARK  12 active torsions:
REMARK  status: ('A' for Active; 'I' for Inactive)
REMARK    1  A    between atoms: C2_2  and  C3_3 
REMARK    2  A    between atoms: C4_6  and  O1_7 
REMARK    3  A    between atoms: C6_10  and  O2_11 
REMARK    4  A    between atoms: C12_20  and  C13_21 
REMARK    5  A    between atoms: C13_21  and  O5_22 
REMARK    6  A    between atoms: C16_27  and  C17_28 
REMARK       I    between atoms: C17_28  and  N2_30 
REMARK    7  A    between atoms: N2_30  and  C18_31 
REMARK    8  A    between atoms: N2_30  and  C22_35 
REMARK    9  A    between atoms: C19_32  and  C20_33 
REMARK   10  A    between atoms: C22_35  and  C23_36 
REMARK   11  A    between atoms: C23_36  and  C24_37 
REMARK   12  A    between atoms: C24_37  and  C25_38 
ROOT
HETATM    1  C3  UNL     1       8.508  18.724  20.944  1.00  0.00     0.036 C 
HETATM    2  N1  UNL     1       7.359  18.513  21.488  1.00  0.00    -0.355 N 
ATOM      3  H1  UNL     1       7.221  18.919  22.413  1.00  0.00     0.162 HD
HETATM    4  C4  UNL     1       6.249  17.774  20.949  1.00  0.00     0.174 C 
HETATM    5  C5  UNL     1       5.100  18.690  20.843  1.00  0.00     0.091 C 
HETATM    6  C6  UNL     1       3.856  18.260  21.579  1.00  0.00     0.156 C 
HETATM    7  C7  UNL     1       2.947  19.365  21.200  1.00  0.00    -0.059 C 
HETATM    8  C8  UNL     1       2.113  19.995  21.961  1.00  0.00     0.017 C 
HETATM    9  C9  UNL     1       3.203  19.584  19.756  1.00  0.00     0.051 C 
HETATM   10  C10 UNL     1       4.578  19.008  19.490  1.00  0.00     0.101 C 
HETATM   11  C11 UNL     1       4.587  17.788  18.684  1.00  0.00     0.265 C 
HETATM   12  O3  UNL     1       3.704  17.624  17.809  1.00  0.00    -0.265 OA
HETATM   13  O4  UNL     1       5.536  16.793  18.842  1.00  0.00    -0.302 OA
HETATM   14  C12 UNL     1       6.567  16.870  19.828  1.00  0.00     0.151 C 
HETATM   15  C14 UNL     1       7.838  17.104  19.066  1.00  0.00     0.087 C 
HETATM   16  C15 UNL     1       7.503  17.538  17.623  1.00  0.00     0.182 C 
HETATM   17  O6  UNL     1       8.589  17.716  16.843  1.00  0.00    -0.372 OA
HETATM   18  C16 UNL     1       9.690  18.262  17.367  1.00  0.00     0.237 C 
HETATM   19  C27 UNL     1       9.490  18.782  18.758  1.00  0.00     0.024 C 
HETATM   20  C28 UNL     1       8.663  18.205  19.592  1.00  0.00    -0.023 C 
ENDROOT
BRANCH  18  21
HETATM   21  C17 UNL     1      10.350  19.330  16.600  1.00  0.00     0.260 C 
HETATM   22  O7  UNL     1      10.151  20.499  17.103  1.00  0.00    -0.269 OA
HETATM   23  N2  UNL     1      11.144  19.270  15.432  1.00  0.00    -0.305 N 
BRANCH  23  24
HETATM   24  C18 UNL     1      11.661  20.539  14.935  1.00  0.00     0.095 C 
HETATM   25  C19 UNL     1      13.045  20.767  14.613  1.00  0.00    -0.009 C 
BRANCH  25  26
HETATM   26  C20 UNL     1      14.172  20.656  15.544  1.00  0.00     0.024 C 
HETATM   27  C21 UNL     1      15.487  20.193  15.036  1.00  0.00     0.009 C 
ENDBRANCH  25  26
ENDBRANCH  23  24
BRANCH  23  28
HETATM   28  C22 UNL     1      11.324  18.050  14.702  1.00  0.00     0.072 C 
BRANCH  28  29
HETATM   29  C23 UNL     1      10.379  17.522  13.730  1.00  0.00     0.045 C 
BRANCH  29  30
HETATM   30  C24 UNL     1      10.048  16.067  13.868  1.00  0.00     0.005 C 
BRANCH  30  31
HETATM   31  C25 UNL     1       8.519  15.919  13.766  1.00  0.00    -0.004 C 
HETATM   32  C26 UNL     1       8.053  14.882  14.745  1.00  0.00     0.005 C 
ENDBRANCH  30  31
ENDBRANCH  29  30
ENDBRANCH  28  29
ENDBRANCH  23  28
ENDBRANCH  18  21
BRANCH   1  33
HETATM   33  C2  UNL     1       9.462  19.488  21.686  1.00  0.00     0.019 C 
HETATM   34  C1  UNL     1      10.758  19.526  21.680  1.00  0.00     0.013 C 
ENDBRANCH   1  33
BRANCH  14  35
HETATM   35  C13 UNL     1       6.693  15.435  20.378  1.00  0.00     0.208 C 
BRANCH  35  36
HETATM   36  O5  UNL     1       7.986  15.229  20.888  1.00  0.00    -0.398 OA
ATOM     37  H5  UNL     1       8.465  14.631  20.325  1.00  0.00     0.209 HD
ENDBRANCH  35  36
ENDBRANCH  14  35
BRANCH   4  38
HETATM   38  O1  UNL     1       5.887  16.927  22.086  1.00  0.00    -0.367 OA
ATOM     39  H1  UNL     1       5.169  17.420  22.466  1.00  0.00     0.212 HD
ENDBRANCH   4  38
BRANCH   6  40
HETATM   40  O2  UNL     1       3.263  17.128  20.989  1.00  0.00    -0.391 OA
ATOM     41  H2  UNL     1       3.706  16.873  20.188  1.00  0.00     0.210 HD
ENDBRANCH   6  40
TORSDOF 12
ENDMDL
MODEL 3
REMARK VINA RESULT: -7.156710536      5.369      9.508
REMARK  12 active torsions:
REMARK  status: ('A' for Active; 'I' for Inactive)
REMARK    1  A    between atoms: C2_2  and  C3_3 
REMARK    2  A    between atoms: C4_6  and  O1_7 
REMARK    3  A    between atoms: C6_10  and  O2_11 
REMARK    4  A    between atoms: C12_20  and  C13_21 
REMARK    5  A    between atoms: C13_21  and  O5_22 
REMARK    6  A    between atoms: C16_27  and  C17_28 
REMARK       I    between atoms: C17_28  and  N2_30 
REMARK    7  A    between atoms: N2_30  and  C18_31 
REMARK    8  A    between atoms: N2_30  and  C22_35 
REMARK    9  A    between atoms: C19_32  and  C20_33 
REMARK   10  A    between atoms: C22_35  and  C23_36 
REMARK   11  A    between atoms: C23_36  and  C24_37 
REMARK   12  A    between atoms: C24_37  and  C25_38 
ROOT
HETATM    1  C3  UNL     1      16.109  23.096  17.075  1.00  0.00     0.036 C 
HETATM    2  N1  UNL     1      15.316  22.388  17.803  1.00  0.00    -0.355 N 
ATOM      3  H1  UNL     1      15.349  22.568  18.806  1.00  0.00     0.162 HD
HETATM    4  C4  UNL     1      14.391  21.373  17.372  1.00  0.00     0.174 C 
HETATM    5  C5  UNL     1      13.037  21.791  17.772  1.00  0.00     0.091 C 
HETATM    6  C6  UNL     1      12.288  20.818  18.647  1.00  0.00     0.156 C 
HETATM    7  C7  UNL     1      11.003  21.540  18.781  1.00  0.00    -0.059 C 
HETATM    8  C8  UNL     1      10.290  21.686  19.850  1.00  0.00     0.017 C 
HETATM    9  C9  UNL     1      10.716  22.053  17.421  1.00  0.00     0.051 C 
HETATM   10  C10 UNL     1      12.049  22.086  16.703  1.00  0.00     0.101 C 
HETATM   11  C11 UNL     1      12.199  21.096  15.638  1.00  0.00     0.265 C 
HETATM   12  O3  UNL     1      11.189  20.742  14.982  1.00  0.00    -0.265 OA
HETATM   13  O4  UNL     1      13.416  20.522  15.314  1.00  0.00    -0.302 OA
HETATM   14  C12 UNL     1      14.619  20.836  16.017  1.00  0.00     0.151 C 
HETATM   15  C14 UNL     1      15.447  21.644  15.062  1.00  0.00     0.087 C 
HETATM   16  C15 UNL     1      14.562  22.129  13.894  1.00  0.00     0.182 C 
HETATM   17  O6  UNL     1      15.236  22.819  12.952  1.00  0.00    -0.372 OA
HETATM   18  C16 UNL     1      16.209  23.655  13.322  1.00  0.00     0.237 C 
HETATM   19  C27 UNL     1      16.294  23.847  14.806  1.00  0.00     0.024 C 
HETATM   20  C28 UNL     1      15.996  22.883  15.638  1.00  0.00    -0.023 C 
ENDROOT
BRANCH  18  21
HETATM   21  C17 UNL     1      16.221  24.996  12.715  1.00  0.00     0.260 C 
HETATM   22  O7  UNL     1      15.090  25.602  12.827  1.00  0.00    -0.269 OA
HETATM   23  N2  UNL     1      17.252  25.695  12.047  1.00  0.00    -0.305 N 
BRANCH  23  24
HETATM   24  C18 UNL     1      16.924  27.034  11.572  1.00  0.00     0.095 C 
HETATM   25  C19 UNL     1      16.647  27.348  10.195  1.00  0.00    -0.009 C 
BRANCH  25  26
HETATM   26  C20 UNL     1      17.569  27.160   9.070  1.00  0.00     0.024 C 
HETATM   27  C21 UNL     1      18.829  27.941   9.030  1.00  0.00     0.009 C 
ENDBRANCH  25  26
ENDBRANCH  23  24
BRANCH  23  28
HETATM   28  C22 UNL     1      18.508  25.077  11.738  1.00  0.00     0.072 C 
BRANCH  28  29
HETATM   29  C23 UNL     1      18.730  24.174  10.620  1.00  0.00     0.045 C 
BRANCH  29  30
HETATM   30  C24 UNL     1      19.963  24.433   9.808  1.00  0.00     0.005 C 
BRANCH  30  31
HETATM   31  C25 UNL     1      20.323  23.131   9.069  1.00  0.00    -0.004 C 
HETATM   32  C26 UNL     1      21.737  22.749   9.393  1.00  0.00     0.005 C 
ENDBRANCH  30  31
ENDBRANCH  29  30
ENDBRANCH  28  29
ENDBRANCH  23  28
ENDBRANCH  18  21
BRANCH   1  33
HETATM   33  C2  UNL     1      16.948  24.044  17.740  1.00  0.00     0.019 C 
HETATM   34  C1  UNL     1      16.837  24.687  18.860  1.00  0.00     0.013 C 
ENDBRANCH   1  33
BRANCH  14  35
HETATM   35  C13 UNL     1      15.361  19.489  16.144  1.00  0.00     0.208 C 
BRANCH  35  36
HETATM   36  O5  UNL     1      15.928  19.136  14.907  1.00  0.00    -0.398 OA
ATOM     37  H5  UNL     1      15.244  19.026  14.257  1.00  0.00     0.209 HD
ENDBRANCH  35  36
ENDBRANCH  14  35
BRANCH   4  38
HETATM   38  O1  UNL     1      14.691  20.292  18.312  1.00  0.00    -0.367 OA
ATOM     39  H1  UNL     1      15.614  20.146  18.141  1.00  0.00     0.212 HD
ENDBRANCH   4  38
BRANCH   6  40
HETATM   40  O2  UNL     1      11.937  19.648  17.948  1.00  0.00    -0.391 OA
ATOM     41  H2  UNL     1      12.175  18.864  18.428  1.00  0.00     0.210 HD
ENDBRANCH   6  40
TORSDOF 12
ENDMDL
MODEL 4
REMARK VINA RESULT: -7.039245767      1.149      1.294
REMARK  12 active torsions:
REMARK  status: ('A' for Active; 'I' for Inactive)
REMARK    1  A    between atoms: C2_2  and  C3_3 
REMARK    2  A    between atoms: C4_6  and  O1_7 
REMARK    3  A    between atoms: C6_10  and  O2_11 
REMARK    4  A    between atoms: C12_20  and  C13_21 
REMARK    5  A    between atoms: C13_21  and  O5_22 
REMARK    6  A    between atoms: C16_27  and  C17_28 
REMARK       I    between atoms: C17_28  and  N2_30 
REMARK    7  A    between atoms: N2_30  and  C18_31 
REMARK    8  A    between atoms: N2_30  and  C22_35 
REMARK    9  A    between atoms: C19_32  and  C20_33 
REMARK   10  A    between atoms: C22_35  and  C23_36 
REMARK   11  A    between atoms: C23_36  and  C24_37 
REMARK   12  A    between atoms: C24_37  and  C25_38 
ROOT
HETATM    1  C3  UNL     1       8.330  19.072  19.825  1.00  0.00     0.036 C 
HETATM    2  N1  UNL     1       7.177  18.739  20.294  1.00  0.00    -0.355 N 
ATOM      3  H1  UNL     1       6.794  19.348  21.016  1.00  0.00     0.162 HD
HETATM    4  C4  UNL     1       6.365  17.610  19.922  1.00  0.00     0.174 C 
HETATM    5  C5  UNL     1       5.082  18.121  19.410  1.00  0.00     0.091 C 
HETATM    6  C6  UNL     1       3.851  17.617  20.121  1.00  0.00     0.156 C 
HETATM    7  C7  UNL     1       2.805  18.284  19.313  1.00  0.00    -0.059 C 
HETATM    8  C8  UNL     1       1.734  18.869  19.741  1.00  0.00     0.017 C 
HETATM    9  C9  UNL     1       3.257  18.127  17.911  1.00  0.00     0.051 C 
HETATM   10  C10 UNL     1       4.749  17.878  17.983  1.00  0.00     0.101 C 
HETATM   11  C11 UNL     1       5.164  16.522  17.628  1.00  0.00     0.265 C 
HETATM   12  O3  UNL     1       4.504  15.882  16.773  1.00  0.00    -0.265 OA
HETATM   13  O4  UNL     1       6.263  15.902  18.196  1.00  0.00    -0.302 OA
HETATM   14  C12 UNL     1       7.064  16.533  19.197  1.00  0.00     0.151 C 
HETATM   15  C14 UNL     1       8.367  16.856  18.528  1.00  0.00     0.087 C 
HETATM   16  C15 UNL     1       8.205  16.742  16.997  1.00  0.00     0.182 C 
HETATM   17  O6  UNL     1       9.345  16.960  16.312  1.00  0.00    -0.372 OA
HETATM   18  C16 UNL     1      10.192  17.903  16.732  1.00  0.00     0.237 C 
HETATM   19  C27 UNL     1       9.644  18.739  17.848  1.00  0.00     0.024 C 
HETATM   20  C28 UNL     1       8.829  18.238  18.741  1.00  0.00    -0.023 C 
ENDROOT
BRANCH  18  21
HETATM   21  C17 UNL     1      10.729  18.832  15.725  1.00  0.00     0.260 C 
HETATM   22  O7  UNL     1       9.987  18.910  14.675  1.00  0.00    -0.269 OA
HETATM   23  N2  UNL     1      11.899  19.625  15.734  1.00  0.00    -0.305 N 
BRANCH  23  24
HETATM   24  C18 UNL     1      12.128  20.456  14.558  1.00  0.00     0.095 C 
HETATM   25  C19 UNL     1      13.386  21.086  14.257  1.00  0.00    -0.009 C 
BRANCH  25  26
HETATM   26  C20 UNL     1      14.079  22.066  15.100  1.00  0.00     0.024 C 
HETATM   27  C21 UNL     1      15.530  21.902  15.355  1.00  0.00     0.009 C 
ENDBRANCH  25  26
ENDBRANCH  23  24
BRANCH  23  28
HETATM   28  C22 UNL     1      12.874  19.523  16.780  1.00  0.00     0.072 C 
BRANCH  28  29
HETATM   29  C23 UNL     1      12.800  20.231  18.049  1.00  0.00     0.045 C 
BRANCH  29  30
HETATM   30  C24 UNL     1      11.977  21.483  18.049  1.00  0.00     0.005 C 
BRANCH  30  31
HETATM   31  C25 UNL     1      12.896  22.651  18.453  1.00  0.00    -0.004 C 
HETATM   32  C26 UNL     1      13.694  22.262  19.663  1.00  0.00     0.005 C 
ENDBRANCH  30  31
ENDBRANCH  29  30
ENDBRANCH  28  29
ENDBRANCH  23  28
ENDBRANCH  18  21
BRANCH   1  33
HETATM   33  C2  UNL     1       8.950  20.243  20.365  1.00  0.00     0.019 C 
HETATM   34  C1  UNL     1      10.068  20.438  20.991  1.00  0.00     0.013 C 
ENDBRANCH   1  33
BRANCH  14  35
HETATM   35  C13 UNL     1       7.399  15.408  20.197  1.00  0.00     0.208 C 
BRANCH  35  36
HETATM   36  O5  UNL     1       8.411  15.833  21.075  1.00  0.00    -0.398 OA
ATOM     37  H5  UNL     1       9.171  16.117  20.580  1.00  0.00     0.209 HD
ENDBRANCH  35  36
ENDBRANCH  14  35
BRANCH   4  38
HETATM   38  O1  UNL     1       6.002  17.071  21.234  1.00  0.00    -0.367 OA
ATOM     39  H1  UNL     1       6.726  17.376  21.768  1.00  0.00     0.212 HD
ENDBRANCH   4  38
BRANCH   6  40
HETATM   40  O2  UNL     1       3.631  16.247  19.881  1.00  0.00    -0.391 OA
ATOM     41  H2  UNL     1       4.034  15.703  20.546  1.00  0.00     0.210 HD
ENDBRANCH   6  40
TORSDOF 12
ENDMDL
MODEL 5
REMARK VINA RESULT: -6.897891901      2.376      4.459
REMARK  12 active torsions:
REMARK  status: ('A' for Active; 'I' for Inactive)
REMARK    1  A    between atoms: C2_2  and  C3_3 
REMARK    2  A    between atoms: C4_6  and  O1_7 
REMARK    3  A    between atoms: C6_10  and  O2_11 
REMARK    4  A    between atoms: C12_20  and  C13_21 
REMARK    5  A    between atoms: C13_21  and  O5_22 
REMARK    6  A    between atoms: C16_27  and  C17_28 
REMARK       I    between atoms: C17_28  and  N2_30 
REMARK    7  A    between atoms: N2_30  and  C18_31 
REMARK    8  A    between atoms: N2_30  and  C22_35 
REMARK    9  A    between atoms: C19_32  and  C20_33 
REMARK   10  A    between atoms: C22_35  and  C23_36 
REMARK   11  A    between atoms: C23_36  and  C24_37 
REMARK   12  A    between atoms: C24_37  and  C25_38 
ROOT
HETATM    1  C3  UNL     1       5.579  19.124  19.403  1.00  0.00     0.036 C 
HETATM    2  N1  UNL     1       4.835  18.151  19.004  1.00  0.00    -0.355 N 
ATOM      3  H1  UNL     1       3.836  18.346  18.945  1.00  0.00     0.162 HD
HETATM    4  C4  UNL     1       5.243  16.822  18.633  1.00  0.00     0.174 C 
HETATM    5  C5  UNL     1       4.849  16.599  17.231  1.00  0.00     0.091 C 
HETATM    6  C6  UNL     1       3.953  15.411  16.988  1.00  0.00     0.156 C 
HETATM    7  C7  UNL     1       3.831  15.486  15.515  1.00  0.00    -0.059 C 
HETATM    8  C8  UNL     1       2.764  15.319  14.804  1.00  0.00     0.017 C 
HETATM    9  C9  UNL     1       5.201  15.791  15.040  1.00  0.00     0.051 C 
HETATM   10  C10 UNL     1       5.922  16.401  16.223  1.00  0.00     0.101 C 
HETATM   11  C11 UNL     1       6.967  15.562  16.807  1.00  0.00     0.265 C 
HETATM   12  O3  UNL     1       7.614  14.783  16.067  1.00  0.00    -0.265 OA
HETATM   13  O4  UNL     1       7.281  15.586  18.155  1.00  0.00    -0.302 OA
HETATM   14  C12 UNL     1       6.587  16.417  19.087  1.00  0.00     0.151 C 
HETATM   15  C14 UNL     1       7.560  17.491  19.474  1.00  0.00     0.087 C 
HETATM   16  C15 UNL     1       8.736  17.508  18.474  1.00  0.00     0.182 C 
HETATM   17  O6  UNL     1       9.694  18.408  18.776  1.00  0.00    -0.372 OA
HETATM   18  C16 UNL     1       9.342  19.597  19.270  1.00  0.00     0.237 C 
HETATM   19  C27 UNL     1       7.863  19.836  19.250  1.00  0.00     0.024 C 
HETATM   20  C28 UNL     1       7.010  18.856  19.408  1.00  0.00    -0.023 C 
ENDROOT
BRANCH  18  21
HETATM   21  C17 UNL     1       9.977  20.790  18.688  1.00  0.00     0.260 C 
HETATM   22  O7  UNL     1       9.742  21.859  19.367  1.00  0.00    -0.269 OA
HETATM   23  N2  UNL     1      10.778  20.937  17.533  1.00  0.00    -0.305 N 
BRANCH  23  24
HETATM   24  C18 UNL     1      11.262  22.282  17.247  1.00  0.00     0.095 C 
HETATM   25  C19 UNL     1      12.614  22.712  17.485  1.00  0.00    -0.009 C 
BRANCH  25  26
HETATM   26  C20 UNL     1      13.294  22.729  18.784  1.00  0.00     0.024 C 
HETATM   27  C21 UNL     1      14.185  23.866  19.120  1.00  0.00     0.009 C 
ENDBRANCH  25  26
ENDBRANCH  23  24
BRANCH  23  28
HETATM   28  C22 UNL     1      10.996  19.852  16.622  1.00  0.00     0.072 C 
BRANCH  28  29
HETATM   29  C23 UNL     1      10.076  19.465  15.564  1.00  0.00     0.045 C 
BRANCH  29  30
HETATM   30  C24 UNL     1      10.438  18.223  14.809  1.00  0.00     0.005 C 
BRANCH  30  31
HETATM   31  C25 UNL     1       9.148  17.655  14.188  1.00  0.00    -0.004 C 
HETATM   32  C26 UNL     1       8.024  18.626  14.399  1.00  0.00     0.005 C 
ENDBRANCH  30  31
ENDBRANCH  29  30
ENDBRANCH  28  29
ENDBRANCH  23  28
ENDBRANCH  18  21
BRANCH   1  33
HETATM   33  C2  UNL     1       4.935  20.360  19.726  1.00  0.00     0.019 C 
HETATM   34  C1  UNL     1       3.820  20.899  19.344  1.00  0.00     0.013 C 
ENDBRANCH   1  33
BRANCH  14  35
HETATM   35  C13 UNL     1       6.434  15.546  20.350  1.00  0.00     0.208 C 
BRANCH  35  36
HETATM   36  O5  UNL     1       7.680  15.007  20.715  1.00  0.00    -0.398 OA
ATOM     37  H5  UNL     1       7.813  15.103  21.651  1.00  0.00     0.209 HD
ENDBRANCH  35  36
ENDBRANCH  14  35
BRANCH   4  38
HETATM   38  O1  UNL     1       4.282  16.006  19.376  1.00  0.00    -0.367 OA
ATOM     39  H1  UNL     1       4.812  15.251  19.601  1.00  0.00     0.212 HD
ENDBRANCH   4  38
BRANCH   6  40
HETATM   40  O2  UNL     1       4.628  14.194  17.202  1.00  0.00    -0.391 OA
ATOM     41  H2  UNL     1       4.496  13.586  16.485  1.00  0.00     0.210 HD
ENDBRANCH   6  40
TORSDOF 12
ENDMDL
