MODEL 1
REMARK VINA RESULT: -7.882626507      0.000      0.000
REMARK  8 active torsions:
REMARK  status: ('A' for Active; 'I' for Inactive)
REMARK    1  A    between atoms: C2_2  and  C3_3 
REMARK    2  A    between atoms: N1_5  and  C5_6 
REMARK    3  A    between atoms: C5_6  and  C6_7 
REMARK    4  A    between atoms: C6_7  and  N2_8 
REMARK    5  A    between atoms: N3_11  and  C9_12 
REMARK    6  A    between atoms: C9_12  and  C10_13 
REMARK    7  A    between atoms: C10_13  and  C11_14 
REMARK    8  A    between atoms: C11_14  and  N4_15 
ROOT
HETATM    1  C5  UNL     1      -7.371  -8.203  -9.273  1.00  0.00     0.104 C 
ENDROOT
BRANCH   1   2
HETATM    2  N1  UNL     1      -8.742  -8.399  -9.006  1.00  0.00    -0.287 N 
HETATM    3  C4  UNL     1      -9.100  -8.721  -7.729  1.00  0.00     0.116 A 
HETATM    4  C3  UNL     1     -10.422  -8.925  -7.415  1.00  0.00     0.023 A 
HETATM    5  C15 UNL     1     -11.350  -8.790  -8.427  1.00  0.00     0.114 A 
HETATM    6  N5  UNL     1     -10.964  -8.467  -9.698  1.00  0.00    -0.294 N 
HETATM    7  N6  UNL     1     -12.606  -8.974  -8.169  1.00  0.00    -0.385 N 
HETATM    8  C14 UNL     1      -9.661  -8.275  -9.969  1.00  0.00     0.331 A 
ATOM      9  H5  UNL     1     -11.662  -8.372 -10.437  1.00  0.00     0.172 HD
HETATM   10  O1  UNL     1      -9.236  -7.976 -11.111  1.00  0.00    -0.246 OA
ATOM     11  H62 UNL     1     -12.895  -9.215  -7.221  1.00  0.00     0.157 HD
ATOM     12  H61 UNL     1     -13.293  -8.874  -8.917  1.00  0.00     0.157 HD
BRANCH   4  13
HETATM   13  C2  UNL     1     -10.900  -9.277  -6.068  1.00  0.00     0.006 C 
HETATM   14  C1  UNL     1     -10.743 -10.458  -5.522  1.00  0.00     0.012 C 
ENDBRANCH   4  13
ENDBRANCH   1   2
BRANCH   1  15
HETATM   15  C6  UNL     1      -6.833  -6.838  -9.078  1.00  0.00     0.318 C 
BRANCH  15  16
HETATM   16  N2  UNL     1      -5.606  -6.967  -8.272  1.00  0.00     0.102 N 
HETATM   17  C7  UNL     1      -4.615  -6.114  -8.883  1.00  0.00     0.318 C 
HETATM   18  C8  UNL     1      -3.625  -5.532  -7.903  1.00  0.00     0.098 C 
HETATM   19  N3  UNL     1      -3.594  -6.140  -6.632  1.00  0.00    -0.351 N 
HETATM   20  C12 UNL     1      -4.807  -6.450  -6.009  1.00  0.00     0.098 C 
HETATM   21  C13 UNL     1      -5.978  -6.554  -6.948  1.00  0.00     0.318 C 
BRANCH  19  22
HETATM   22  C9  UNL     1      -2.369  -6.490  -6.054  1.00  0.00     0.069 C 
BRANCH  22  23
HETATM   23  C10 UNL     1      -1.332  -5.421  -6.023  1.00  0.00     0.072 C 
BRANCH  23  24
HETATM   24  C11 UNL     1      -1.663  -4.389  -4.979  1.00  0.00     0.234 C 
BRANCH  24  25
HETATM   25  N4  UNL     1      -2.010  -3.107  -5.533  1.00  0.00    -0.079 N 
ATOM     26  H43 UNL     1      -1.969  -3.131  -6.553  1.00  0.00     0.274 HD
ATOM     27  H42 UNL     1      -3.004  -2.916  -5.409  1.00  0.00     0.274 HD
ATOM     28  H41 UNL     1      -1.446  -2.341  -5.166  1.00  0.00     0.274 HD
ENDBRANCH  24  25
ENDBRANCH  23  24
ENDBRANCH  22  23
ENDBRANCH  19  22
ENDBRANCH  15  16
ENDBRANCH   1  15
TORSDOF 8
ENDMDL
MODEL 2
REMARK VINA RESULT: -7.837191836      2.829      4.614
REMARK  8 active torsions:
REMARK  status: ('A' for Active; 'I' for Inactive)
REMARK    1  A    between atoms: C2_2  and  C3_3 
REMARK    2  A    between atoms: N1_5  and  C5_6 
REMARK    3  A    between atoms: C5_6  and  C6_7 
REMARK    4  A    between atoms: C6_7  and  N2_8 
REMARK    5  A    between atoms: N3_11  and  C9_12 
REMARK    6  A    between atoms: C9_12  and  C10_13 
REMARK    7  A    between atoms: C10_13  and  C11_14 
REMARK    8  A    between atoms: C11_14  and  N4_15 
ROOT
HETATM    1  C5  UNL     1      -3.562  -6.670  -7.471  1.00  0.00     0.104 C 
ENDROOT
BRANCH   1   2
HETATM    2  N1  UNL     1      -4.953  -6.848  -7.616  1.00  0.00    -0.287 N 
HETATM    3  C4  UNL     1      -5.415  -7.296  -8.819  1.00  0.00     0.116 A 
HETATM    4  C3  UNL     1      -6.761  -7.486  -9.014  1.00  0.00     0.023 A 
HETATM    5  C15 UNL     1      -7.607  -7.211  -7.959  1.00  0.00     0.114 A 
HETATM    6  N5  UNL     1      -7.119  -6.763  -6.763  1.00  0.00    -0.294 N 
HETATM    7  N6  UNL     1      -8.884  -7.378  -8.104  1.00  0.00    -0.385 N 
HETATM    8  C14 UNL     1      -5.794  -6.589  -6.608  1.00  0.00     0.331 A 
ATOM      9  H5  UNL     1      -7.756  -6.563  -5.992  1.00  0.00     0.172 HD
HETATM   10  O1  UNL     1      -5.277  -6.182  -5.541  1.00  0.00    -0.246 OA
ATOM     11  H62 UNL     1      -9.248  -7.713  -8.996  1.00  0.00     0.157 HD
ATOM     12  H61 UNL     1      -9.509  -7.175  -7.324  1.00  0.00     0.157 HD
BRANCH   4  13
HETATM   13  C2  UNL     1      -7.348  -7.963 -10.277  1.00  0.00     0.006 C 
HETATM   14  C1  UNL     1      -7.612  -9.220 -10.532  1.00  0.00     0.012 C 
ENDBRANCH   4  13
ENDBRANCH   1   2
BRANCH   1  15
HETATM   15  C6  UNL     1      -3.040  -5.291  -7.593  1.00  0.00     0.318 C 
BRANCH  15  16
HETATM   16  N2  UNL     1      -2.031  -5.113  -6.535  1.00  0.00     0.102 N 
HETATM   17  C7  UNL     1      -2.538  -4.099  -5.642  1.00  0.00     0.318 C 
HETATM   18  C8  UNL     1      -2.099  -4.275  -4.209  1.00  0.00     0.098 C 
HETATM   19  N3  UNL     1      -1.027  -5.167  -4.003  1.00  0.00    -0.351 N 
HETATM   20  C12 UNL     1      -1.030  -6.385  -4.690  1.00  0.00     0.098 C 
HETATM   21  C13 UNL     1      -1.898  -6.404  -5.918  1.00  0.00     0.318 C 
BRANCH  19  22
HETATM   22  C9  UNL     1       0.046  -4.795  -3.187  1.00  0.00     0.069 C 
BRANCH  22  23
HETATM   23  C10 UNL     1      -0.251  -3.781  -2.137  1.00  0.00     0.072 C 
BRANCH  23  24
HETATM   24  C11 UNL     1       0.711  -2.627  -2.225  1.00  0.00     0.234 C 
BRANCH  24  25
HETATM   25  N4  UNL     1       0.745  -2.009  -3.524  1.00  0.00    -0.079 N 
ATOM     26  H43 UNL     1       0.068  -2.446  -4.150  1.00  0.00     0.274 HD
ATOM     27  H42 UNL     1       0.357  -1.067  -3.488  1.00  0.00     0.274 HD
ATOM     28  H41 UNL     1       1.674  -2.001  -3.944  1.00  0.00     0.274 HD
ENDBRANCH  24  25
ENDBRANCH  23  24
ENDBRANCH  22  23
ENDBRANCH  19  22
ENDBRANCH  15  16
ENDBRANCH   1  15
TORSDOF 8
ENDMDL
MODEL 3
REMARK VINA RESULT: -7.743763516      3.072      8.088
REMARK  8 active torsions:
REMARK  status: ('A' for Active; 'I' for Inactive)
REMARK    1  A    between atoms: C2_2  and  C3_3 
REMARK    2  A    between atoms: N1_5  and  C5_6 
REMARK    3  A    between atoms: C5_6  and  C6_7 
REMARK    4  A    between atoms: C6_7  and  N2_8 
REMARK    5  A    between atoms: N3_11  and  C9_12 
REMARK    6  A    between atoms: C9_12  and  C10_13 
REMARK    7  A    between atoms: C10_13  and  C11_14 
REMARK    8  A    between atoms: C11_14  and  N4_15 
ROOT
HETATM    1  C5  UNL     1      -4.754  -5.693  -5.751  1.00  0.00     0.104 C 
ENDROOT
BRANCH   1   2
HETATM    2  N1  UNL     1      -3.853  -5.923  -4.691  1.00  0.00    -0.287 N 
HETATM    3  C4  UNL     1      -3.348  -7.183  -4.548  1.00  0.00     0.116 A 
HETATM    4  C3  UNL     1      -2.468  -7.461  -3.532  1.00  0.00     0.023 A 
HETATM    5  C15 UNL     1      -2.124  -6.431  -2.681  1.00  0.00     0.114 A 
HETATM    6  N5  UNL     1      -2.644  -5.178  -2.845  1.00  0.00    -0.294 N 
HETATM    7  N6  UNL     1      -1.295  -6.655  -1.710  1.00  0.00    -0.385 N 
HETATM    8  C14 UNL     1      -3.503  -4.941  -3.852  1.00  0.00     0.331 A 
ATOM      9  H5  UNL     1      -2.381  -4.426  -2.208  1.00  0.00     0.172 HD
HETATM   10  O1  UNL     1      -4.019  -3.817  -4.063  1.00  0.00    -0.246 OA
ATOM     11  H62 UNL     1      -0.907  -7.591  -1.586  1.00  0.00     0.157 HD
ATOM     12  H61 UNL     1      -1.040  -5.894  -1.081  1.00  0.00     0.157 HD
BRANCH   4  13
HETATM   13  C2  UNL     1      -1.876  -8.789  -3.300  1.00  0.00     0.006 C 
HETATM   14  C1  UNL     1      -1.880  -9.756  -4.184  1.00  0.00     0.012 C 
ENDBRANCH   4  13
ENDBRANCH   1   2
BRANCH   1  15
HETATM   15  C6  UNL     1      -4.241  -5.878  -7.127  1.00  0.00     0.318 C 
BRANCH  15  16
HETATM   16  N2  UNL     1      -5.078  -6.908  -7.767  1.00  0.00     0.102 N 
HETATM   17  C7  UNL     1      -6.372  -6.848  -7.132  1.00  0.00     0.318 C 
HETATM   18  C8  UNL     1      -7.515  -7.227  -8.042  1.00  0.00     0.098 C 
HETATM   19  N3  UNL     1      -7.154  -7.886  -9.234  1.00  0.00    -0.351 N 
HETATM   20  C12 UNL     1      -6.061  -7.403  -9.961  1.00  0.00     0.098 C 
HETATM   21  C13 UNL     1      -5.107  -6.560  -9.160  1.00  0.00     0.318 C 
BRANCH  19  22
HETATM   22  C9  UNL     1      -7.835  -9.043  -9.628  1.00  0.00     0.069 C 
BRANCH  22  23
HETATM   23  C10 UNL     1      -9.039  -8.834 -10.480  1.00  0.00     0.072 C 
BRANCH  23  24
HETATM   24  C11 UNL     1     -10.296  -9.128  -9.705  1.00  0.00     0.234 C 
BRANCH  24  25
HETATM   25  N4  UNL     1     -10.064  -9.897  -8.511  1.00  0.00    -0.079 N 
ATOM     26  H43 UNL     1     -10.030 -10.894  -8.724  1.00  0.00     0.274 HD
ATOM     27  H42 UNL     1      -9.110  -9.764  -8.174  1.00  0.00     0.274 HD
ATOM     28  H41 UNL     1     -10.739  -9.707  -7.770  1.00  0.00     0.274 HD
ENDBRANCH  24  25
ENDBRANCH  23  24
ENDBRANCH  22  23
ENDBRANCH  19  22
ENDBRANCH  15  16
ENDBRANCH   1  15
TORSDOF 8
ENDMDL
MODEL 4
REMARK VINA RESULT: -7.733833115      1.372      2.208
REMARK  8 active torsions:
REMARK  status: ('A' for Active; 'I' for Inactive)
REMARK    1  A    between atoms: C2_2  and  C3_3 
REMARK    2  A    between atoms: N1_5  and  C5_6 
REMARK    3  A    between atoms: C5_6  and  C6_7 
REMARK    4  A    between atoms: C6_7  and  N2_8 
REMARK    5  A    between atoms: N3_11  and  C9_12 
REMARK    6  A    between atoms: C9_12  and  C10_13 
REMARK    7  A    between atoms: C10_13  and  C11_14 
REMARK    8  A    between atoms: C11_14  and  N4_15 
ROOT
HETATM    1  C5  UNL     1      -6.281  -6.772  -8.358  1.00  0.00     0.104 C 
ENDROOT
BRANCH   1   2
HETATM    2  N1  UNL     1      -7.347  -7.538  -8.871  1.00  0.00    -0.287 N 
HETATM    3  C4  UNL     1      -8.462  -7.675  -8.095  1.00  0.00     0.116 A 
HETATM    4  C3  UNL     1      -9.530  -8.411  -8.547  1.00  0.00     0.023 A 
HETATM    5  C15 UNL     1      -9.427  -8.993  -9.793  1.00  0.00     0.114 A 
HETATM    6  N5  UNL     1      -8.299  -8.841 -10.550  1.00  0.00    -0.294 N 
HETATM    7  N6  UNL     1     -10.414  -9.695 -10.254  1.00  0.00    -0.385 N 
HETATM    8  C14 UNL     1      -7.272  -8.113 -10.077  1.00  0.00     0.331 A 
ATOM      9  H5  UNL     1      -8.236  -9.278 -11.470  1.00  0.00     0.172 HD
HETATM   10  O1  UNL     1      -6.208  -7.931 -10.716  1.00  0.00    -0.246 OA
ATOM     11  H62 UNL     1     -11.256  -9.809  -9.689  1.00  0.00     0.157 HD
ATOM     12  H61 UNL     1     -10.338 -10.126 -11.175  1.00  0.00     0.157 HD
BRANCH   4  13
HETATM   13  C2  UNL     1     -10.769  -8.614  -7.779  1.00  0.00     0.006 C 
HETATM   14  C1  UNL     1     -10.799  -8.995  -6.526  1.00  0.00     0.012 C 
ENDBRANCH   4  13
ENDBRANCH   1   2
BRANCH   1  15
HETATM   15  C6  UNL     1      -6.197  -6.627  -6.888  1.00  0.00     0.318 C 
BRANCH  15  16
HETATM   16  N2  UNL     1      -4.873  -6.057  -6.583  1.00  0.00     0.102 N 
HETATM   17  C7  UNL     1      -4.326  -6.834  -5.496  1.00  0.00     0.318 C 
HETATM   18  C8  UNL     1      -2.820  -6.935  -5.519  1.00  0.00     0.098 C 
HETATM   19  N3  UNL     1      -2.158  -6.020  -6.360  1.00  0.00    -0.351 N 
HETATM   20  C12 UNL     1      -2.674  -5.795  -7.641  1.00  0.00     0.098 C 
HETATM   21  C13 UNL     1      -4.122  -6.169  -7.802  1.00  0.00     0.318 C 
BRANCH  19  22
HETATM   22  C9  UNL     1      -1.057  -5.301  -5.884  1.00  0.00     0.069 C 
BRANCH  22  23
HETATM   23  C10 UNL     1      -1.236  -4.626  -4.569  1.00  0.00     0.072 C 
BRANCH  23  24
HETATM   24  C11 UNL     1      -2.252  -3.520  -4.673  1.00  0.00     0.234 C 
BRANCH  24  25
HETATM   25  N4  UNL     1      -1.779  -2.378  -5.410  1.00  0.00    -0.079 N 
ATOM     26  H43 UNL     1      -1.686  -2.600  -6.401  1.00  0.00     0.274 HD
ATOM     27  H42 UNL     1      -2.500  -1.659  -5.465  1.00  0.00     0.274 HD
ATOM     28  H41 UNL     1      -0.910  -1.991  -5.042  1.00  0.00     0.274 HD
ENDBRANCH  24  25
ENDBRANCH  23  24
ENDBRANCH  22  23
ENDBRANCH  19  22
ENDBRANCH  15  16
ENDBRANCH   1  15
TORSDOF 8
ENDMDL
MODEL 5
REMARK VINA RESULT: -7.729206380      2.140      3.498
REMARK  8 active torsions:
REMARK  status: ('A' for Active; 'I' for Inactive)
REMARK    1  A    between atoms: C2_2  and  C3_3 
REMARK    2  A    between atoms: N1_5  and  C5_6 
REMARK    3  A    between atoms: C5_6  and  C6_7 
REMARK    4  A    between atoms: C6_7  and  N2_8 
REMARK    5  A    between atoms: N3_11  and  C9_12 
REMARK    6  A    between atoms: C9_12  and  C10_13 
REMARK    7  A    between atoms: C10_13  and  C11_14 
REMARK    8  A    between atoms: C11_14  and  N4_15 
ROOT
HETATM    1  C5  UNL     1      -5.082  -6.415  -8.914  1.00  0.00     0.104 C 
ENDROOT
BRANCH   1   2
HETATM    2  N1  UNL     1      -6.361  -6.963  -8.690  1.00  0.00    -0.287 N 
HETATM    3  C4  UNL     1      -6.936  -7.671  -9.706  1.00  0.00     0.116 A 
HETATM    4  C3  UNL     1      -8.182  -8.225  -9.540  1.00  0.00     0.023 A 
HETATM    5  C15 UNL     1      -8.811  -8.039  -8.327  1.00  0.00     0.114 A 
HETATM    6  N5  UNL     1      -8.214  -7.326  -7.325  1.00  0.00    -0.294 N 
HETATM    7  N6  UNL     1      -9.987  -8.547  -8.133  1.00  0.00    -0.385 N 
HETATM    8  C14 UNL     1      -6.993  -6.797  -7.522  1.00  0.00     0.331 A 
ATOM      9  H5  UNL     1      -8.692  -7.195  -6.433  1.00  0.00     0.172 HD
HETATM   10  O1  UNL     1      -6.385  -6.132  -6.649  1.00  0.00    -0.246 OA
ATOM     11  H62 UNL     1     -10.434  -9.080  -8.880  1.00  0.00     0.157 HD
ATOM     12  H61 UNL     1     -10.453  -8.410  -7.236  1.00  0.00     0.157 HD
BRANCH   4  13
HETATM   13  C2  UNL     1      -8.879  -9.000 -10.580  1.00  0.00     0.006 C 
HETATM   14  C1  UNL     1      -9.986  -8.612 -11.163  1.00  0.00     0.012 C 
ENDBRANCH   4  13
ENDBRANCH   1   2
BRANCH   1  15
HETATM   15  C6  UNL     1      -3.927  -7.129  -8.326  1.00  0.00     0.318 C 
BRANCH  15  16
HETATM   16  N2  UNL     1      -3.425  -6.303  -7.215  1.00  0.00     0.102 N 
HETATM   17  C7  UNL     1      -3.261  -7.183  -6.082  1.00  0.00     0.318 C 
HETATM   18  C8  UNL     1      -2.142  -6.778  -5.154  1.00  0.00     0.098 C 
HETATM   19  N3  UNL     1      -1.651  -5.468  -5.323  1.00  0.00    -0.351 N 
HETATM   20  C12 UNL     1      -1.432  -4.999  -6.622  1.00  0.00     0.098 C 
HETATM   21  C13 UNL     1      -2.190  -5.743  -7.687  1.00  0.00     0.318 C 
BRANCH  19  22
HETATM   22  C9  UNL     1      -1.467  -4.641  -4.211  1.00  0.00     0.069 C 
BRANCH  22  23
HETATM   23  C10 UNL     1      -2.432  -3.517  -4.064  1.00  0.00     0.072 C 
BRANCH  23  24
HETATM   24  C11 UNL     1      -1.713  -2.195  -4.056  1.00  0.00     0.234 C 
BRANCH  24  25
HETATM   25  N4  UNL     1      -1.647  -1.573  -5.353  1.00  0.00    -0.079 N 
ATOM     26  H43 UNL     1      -1.039  -2.103  -5.978  1.00  0.00     0.274 HD
ATOM     27  H42 UNL     1      -2.532  -1.677  -5.849  1.00  0.00     0.274 HD
ATOM     28  H41 UNL     1      -1.364  -0.593  -5.318  1.00  0.00     0.274 HD
ENDBRANCH  24  25
ENDBRANCH  23  24
ENDBRANCH  22  23
ENDBRANCH  19  22
ENDBRANCH  15  16
ENDBRANCH   1  15
TORSDOF 8
ENDMDL
