MODEL 1
REMARK VINA RESULT: -4.084377216      0.000      0.000
REMARK  2 active torsions:
REMARK  status: ('A' for Active; 'I' for Inactive)
REMARK    1  A    between atoms: C2_2  and  N1_3 
REMARK    2  A    between atoms: N2_9  and  O1_11 
ROOT
HETATM    1  N1  UNL     1      23.327  -1.971 -22.153  1.00  0.00    -0.368 N 
HETATM    2  C3  UNL     1      22.261  -2.375 -21.276  1.00  0.00     0.134 C 
HETATM    3  C4  UNL     1      22.525  -2.418 -19.835  1.00  0.00     0.094 C 
HETATM    4  S1  UNL     1      24.223  -2.784 -19.365  1.00  0.00    -0.160 SA
HETATM    5  C5  UNL     1      25.254  -2.899 -20.842  1.00  0.00     0.151 C 
HETATM    6  C6  UNL     1      24.695  -1.874 -21.808  1.00  0.00     0.108 C 
HETATM    7  N2  UNL     1      25.492  -0.971 -22.252  1.00  0.00    -0.256 N 
ATOM      8  H2  UNL     1      26.463  -0.990 -21.942  1.00  0.00     0.195 HD
ENDROOT
BRANCH   1   9
HETATM    9  C2  UNL     1      22.935  -1.638 -23.509  1.00  0.00     0.119 C 
HETATM   10  C1  UNL     1      22.291  -2.772 -24.250  1.00  0.00     0.026 C 
ENDBRANCH   1   9
BRANCH   7  11
HETATM   11  O1  UNL     1      25.109   0.010 -23.113  1.00  0.00    -0.288 OA
ATOM     12  H1  UNL     1      24.335   0.545 -22.988  1.00  0.00     0.244 HD
ENDBRANCH   7  11
TORSDOF 2
ENDMDL
MODEL 2
REMARK VINA RESULT: -3.584341613      1.931      2.919
REMARK  2 active torsions:
REMARK  status: ('A' for Active; 'I' for Inactive)
REMARK    1  A    between atoms: C2_2  and  N1_3 
REMARK    2  A    between atoms: N2_9  and  O1_11 
ROOT
HETATM    1  N1  UNL     1      23.642  -1.549 -22.706  1.00  0.00    -0.368 N 
HETATM    2  C3  UNL     1      24.651  -1.530 -21.682  1.00  0.00     0.134 C 
HETATM    3  C4  UNL     1      24.461  -2.382 -20.504  1.00  0.00     0.094 C 
HETATM    4  S1  UNL     1      22.752  -2.693 -20.036  1.00  0.00    -0.160 SA
HETATM    5  C5  UNL     1      21.642  -1.946 -21.247  1.00  0.00     0.151 C 
HETATM    6  C6  UNL     1      22.342  -2.091 -22.583  1.00  0.00     0.108 C 
HETATM    7  N2  UNL     1      21.720  -2.703 -23.524  1.00  0.00    -0.256 N 
ATOM      8  H2  UNL     1      20.782  -3.055 -23.333  1.00  0.00     0.195 HD
ENDROOT
BRANCH   1   9
HETATM    9  C2  UNL     1      24.020  -0.952 -23.973  1.00  0.00     0.119 C 
HETATM   10  C1  UNL     1      23.322   0.343 -24.265  1.00  0.00     0.026 C 
ENDBRANCH   1   9
BRANCH   7  11
HETATM   11  O1  UNL     1      22.244  -2.907 -24.762  1.00  0.00    -0.288 OA
ATOM     12  H1  UNL     1      22.377  -3.768 -25.140  1.00  0.00     0.244 HD
ENDBRANCH   7  11
TORSDOF 2
ENDMDL
MODEL 3
REMARK VINA RESULT: -3.569728812      1.838      2.953
REMARK  2 active torsions:
REMARK  status: ('A' for Active; 'I' for Inactive)
REMARK    1  A    between atoms: C2_2  and  N1_3 
REMARK    2  A    between atoms: N2_9  and  O1_11 
ROOT
HETATM    1  N1  UNL     1      24.169  -1.876 -21.446  1.00  0.00    -0.368 N 
HETATM    2  C3  UNL     1      24.924  -2.142 -20.252  1.00  0.00     0.134 C 
HETATM    3  C4  UNL     1      24.393  -3.119 -19.296  1.00  0.00     0.094 C 
HETATM    4  S1  UNL     1      22.600  -3.257 -19.240  1.00  0.00    -0.160 SA
HETATM    5  C5  UNL     1      21.867  -2.200 -20.507  1.00  0.00     0.151 C 
HETATM    6  C6  UNL     1      22.825  -2.247 -21.679  1.00  0.00     0.108 C 
HETATM    7  N2  UNL     1      22.365  -2.629 -22.815  1.00  0.00    -0.256 N 
ATOM      8  H2  UNL     1      21.377  -2.873 -22.878  1.00  0.00     0.195 HD
ENDROOT
BRANCH   1   9
HETATM    9  C2  UNL     1      24.876  -1.162 -22.492  1.00  0.00     0.119 C 
HETATM   10  C1  UNL     1      26.084  -0.417 -22.008  1.00  0.00     0.026 C 
ENDBRANCH   1   9
BRANCH   7  11
HETATM   11  O1  UNL     1      23.125  -2.724 -23.939  1.00  0.00    -0.288 OA
ATOM     12  H1  UNL     1      23.143  -2.059 -24.617  1.00  0.00     0.244 HD
ENDBRANCH   7  11
TORSDOF 2
ENDMDL
MODEL 4
REMARK VINA RESULT: -3.214183266      2.715      4.118
REMARK  2 active torsions:
REMARK  status: ('A' for Active; 'I' for Inactive)
REMARK    1  A    between atoms: C2_2  and  N1_3 
REMARK    2  A    between atoms: N2_9  and  O1_11 
ROOT
HETATM    1  N1  UNL     1      23.820  -1.888 -21.891  1.00  0.00    -0.368 N 
HETATM    2  C3  UNL     1      24.927  -1.016 -22.180  1.00  0.00     0.134 C 
HETATM    3  C4  UNL     1      24.712   0.092 -23.115  1.00  0.00     0.094 C 
HETATM    4  S1  UNL     1      23.475  -0.193 -24.390  1.00  0.00    -0.160 SA
HETATM    5  C5  UNL     1      22.684  -1.794 -24.124  1.00  0.00     0.151 C 
HETATM    6  C6  UNL     1      22.612  -1.967 -22.621  1.00  0.00     0.108 C 
HETATM    7  N2  UNL     1      21.459  -2.168 -22.094  1.00  0.00    -0.256 N 
ATOM      8  H2  UNL     1      20.647  -2.211 -22.711  1.00  0.00     0.195 HD
ENDROOT
BRANCH   1   9
HETATM    9  C2  UNL     1      23.985  -2.753 -20.739  1.00  0.00     0.119 C 
HETATM   10  C1  UNL     1      24.907  -2.202 -19.693  1.00  0.00     0.026 C 
ENDBRANCH   1   9
BRANCH   7  11
HETATM   11  O1  UNL     1      21.262  -2.328 -20.758  1.00  0.00    -0.288 OA
ATOM     12  H1  UNL     1      21.749  -2.945 -20.226  1.00  0.00     0.244 HD
ENDBRANCH   7  11
TORSDOF 2
ENDMDL
MODEL 5
REMARK VINA RESULT: -2.864446425      1.371      1.765
REMARK  2 active torsions:
REMARK  status: ('A' for Active; 'I' for Inactive)
REMARK    1  A    between atoms: C2_2  and  N1_3 
REMARK    2  A    between atoms: N2_9  and  O1_11 
ROOT
HETATM    1  N1  UNL     1      23.495  -1.263 -23.239  1.00  0.00    -0.368 N 
HETATM    2  C3  UNL     1      22.095  -1.548 -23.074  1.00  0.00     0.134 C 
HETATM    3  C4  UNL     1      21.585  -1.768 -21.718  1.00  0.00     0.094 C 
HETATM    4  S1  UNL     1      22.758  -2.473 -20.550  1.00  0.00    -0.160 SA
HETATM    5  C5  UNL     1      24.376  -2.636 -21.334  1.00  0.00     0.151 C 
HETATM    6  C6  UNL     1      24.500  -1.444 -22.260  1.00  0.00     0.108 C 
HETATM    7  N2  UNL     1      25.505  -0.661 -22.101  1.00  0.00    -0.256 N 
ATOM      8  H2  UNL     1      26.176  -0.882 -21.366  1.00  0.00     0.195 HD
ENDROOT
BRANCH   1   9
HETATM    9  C2  UNL     1      23.884  -0.743 -24.535  1.00  0.00     0.119 C 
HETATM   10  C1  UNL     1      23.160   0.510 -24.928  1.00  0.00     0.026 C 
ENDBRANCH   1   9
BRANCH   7  11
HETATM   11  O1  UNL     1      25.722   0.446 -22.860  1.00  0.00    -0.288 OA
ATOM     12  H1  UNL     1      25.668   1.332 -22.522  1.00  0.00     0.244 HD
ENDBRANCH   7  11
TORSDOF 2
ENDMDL
