MODEL 1
REMARK VINA RESULT: -6.799526910      0.000      0.000
REMARK  5 active torsions:
REMARK  status: ('A' for Active; 'I' for Inactive)
REMARK    1  A    between atoms: C2_2  and  C3_3 
REMARK    2  A    between atoms: C8_10  and  O2_11 
REMARK    3  A    between atoms: C15_20  and  O4_21 
REMARK    4  A    between atoms: O4_21  and  C16_22 
REMARK    5  A    between atoms: C16_22  and  C17_24 
ROOT
HETATM    1  C3  UNL     1       1.502  18.483  25.154  1.00  0.00     0.049 C 
HETATM    2  C4  UNL     1       0.298  18.087  24.356  1.00  0.00     0.131 C 
HETATM    3  C5  UNL     1      -0.359  19.160  23.569  1.00  0.00     0.040 C 
HETATM    4  O1  UNL     1       0.611  16.968  23.502  1.00  0.00    -0.343 OA
HETATM    5  C6  UNL     1       1.959  16.614  23.301  1.00  0.00     0.105 A 
HETATM    6  C7  UNL     1       2.275  15.370  22.755  1.00  0.00     0.102 A 
HETATM    7 CL1  UNL     1       1.007  14.273  22.329  1.00  0.00    -0.078 Cl
HETATM    8  C8  UNL     1       3.588  15.003  22.550  1.00  0.00     0.103 A 
HETATM    9  C9  UNL     1       4.610  15.867  22.885  1.00  0.00     0.041 A 
HETATM   10  C10 UNL     1       5.984  15.809  22.811  1.00  0.00    -0.024 A 
HETATM   11  C11 UNL     1       6.741  14.634  22.278  1.00  0.00     0.051 C 
HETATM   12  C12 UNL     1       6.499  16.989  23.300  1.00  0.00     0.150 A 
HETATM   13  O3  UNL     1       5.478  17.726  23.653  1.00  0.00    -0.321 OA
HETATM   14  C13 UNL     1       4.334  17.105  23.427  1.00  0.00     0.100 A 
HETATM   15  C14 UNL     1       3.007  17.439  23.618  1.00  0.00     0.042 A 
HETATM   16  C15 UNL     1       2.637  18.755  24.198  1.00  0.00     0.177 C 
ENDROOT
BRANCH  16  17
HETATM   17  O4  UNL     1       3.727  19.392  24.821  1.00  0.00    -0.305 OA
BRANCH  17  18
HETATM   18  C16 UNL     1       4.073  20.682  24.442  1.00  0.00     0.319 C 
HETATM   19  O5  UNL     1       5.220  21.079  24.771  1.00  0.00    -0.257 OA
BRANCH  18  20
HETATM   20  C17 UNL     1       3.170  21.556  23.700  1.00  0.00     0.167 A 
HETATM   21  C18 UNL     1       2.405  22.535  24.293  1.00  0.00     0.133 A 
HETATM   22  N1  UNL     1       1.690  23.155  23.329  1.00  0.00    -0.347 N 
HETATM   23  C19 UNL     1       2.029  22.549  22.183  1.00  0.00     0.120 A 
ATOM     24  H1  UNL     1       1.030  23.923  23.449  1.00  0.00     0.167 HD
HETATM   25  C20 UNL     1       1.463  22.928  20.847  1.00  0.00     0.098 C 
HETATM   26  O6  UNL     1       2.913  21.599  22.428  1.00  0.00    -0.291 OA
ENDBRANCH  18  20
ENDBRANCH  17  18
ENDBRANCH  16  17
BRANCH   1  27
HETATM   27  C2  UNL     1       1.282  19.484  26.203  1.00  0.00     0.006 C 
HETATM   28  C1  UNL     1       1.564  19.127  27.611  1.00  0.00     0.006 C 
ENDBRANCH   1  27
BRANCH   8  29
HETATM   29  O2  UNL     1       3.938  13.777  22.011  1.00  0.00    -0.358 OA
ATOM     30  H2  UNL     1       3.680  12.954  22.408  1.00  0.00     0.217 HD
ENDBRANCH   8  29
TORSDOF 5
ENDMDL
MODEL 2
REMARK VINA RESULT: -6.067324477      1.786      2.523
REMARK  5 active torsions:
REMARK  status: ('A' for Active; 'I' for Inactive)
REMARK    1  A    between atoms: C2_2  and  C3_3 
REMARK    2  A    between atoms: C8_10  and  O2_11 
REMARK    3  A    between atoms: C15_20  and  O4_21 
REMARK    4  A    between atoms: O4_21  and  C16_22 
REMARK    5  A    between atoms: C16_22  and  C17_24 
ROOT
HETATM    1  C3  UNL     1       2.053  18.212  25.691  1.00  0.00     0.049 C 
HETATM    2  C4  UNL     1       0.756  18.153  24.944  1.00  0.00     0.131 C 
HETATM    3  C5  UNL     1       0.246  19.435  24.397  1.00  0.00     0.040 C 
HETATM    4  O1  UNL     1       0.827  17.161  23.900  1.00  0.00    -0.343 OA
HETATM    5  C6  UNL     1       2.082  16.640  23.532  1.00  0.00     0.105 A 
HETATM    6  C7  UNL     1       2.151  15.473  22.770  1.00  0.00     0.102 A 
HETATM    7 CL1  UNL     1       0.694  14.678  22.284  1.00  0.00    -0.078 Cl
HETATM    8  C8  UNL     1       3.369  14.945  22.399  1.00  0.00     0.103 A 
HETATM    9  C9  UNL     1       4.541  15.568  22.780  1.00  0.00     0.041 A 
HETATM   10  C10 UNL     1       5.878  15.309  22.582  1.00  0.00    -0.024 A 
HETATM   11  C11 UNL     1       6.395  14.138  21.807  1.00  0.00     0.051 C 
HETATM   12  C12 UNL     1       6.612  16.292  23.207  1.00  0.00     0.150 A 
HETATM   13  O3  UNL     1       5.752  17.109  23.758  1.00  0.00    -0.321 OA
HETATM   14  C13 UNL     1       4.508  16.723  23.534  1.00  0.00     0.100 A 
HETATM   15  C14 UNL     1       3.270  17.223  23.887  1.00  0.00     0.042 A 
HETATM   16  C15 UNL     1       3.162  18.463  24.698  1.00  0.00     0.177 C 
ENDROOT
BRANCH  16  17
HETATM   17  O4  UNL     1       4.377  18.805  25.320  1.00  0.00    -0.305 OA
BRANCH  17  18
HETATM   18  C16 UNL     1       4.874  20.094  25.188  1.00  0.00     0.319 C 
HETATM   19  O5  UNL     1       5.694  20.291  24.254  1.00  0.00    -0.257 OA
BRANCH  18  20
HETATM   20  C17 UNL     1       4.484  21.185  26.074  1.00  0.00     0.167 A 
HETATM   21  C18 UNL     1       3.581  22.163  25.720  1.00  0.00     0.133 A 
HETATM   22  N1  UNL     1       3.446  23.012  26.763  1.00  0.00    -0.347 N 
HETATM   23  C19 UNL     1       4.260  22.540  27.719  1.00  0.00     0.120 A 
ATOM     24  H1  UNL     1       2.851  23.838  26.812  1.00  0.00     0.167 HD
HETATM   25  C20 UNL     1       4.421  23.187  29.061  1.00  0.00     0.098 C 
HETATM   26  O6  UNL     1       4.868  21.450  27.286  1.00  0.00    -0.291 OA
ENDBRANCH  18  20
ENDBRANCH  17  18
ENDBRANCH  16  17
BRANCH   1  27
HETATM   27  C2  UNL     1       2.066  19.042  26.900  1.00  0.00     0.006 C 
HETATM   28  C1  UNL     1       2.464  18.432  28.188  1.00  0.00     0.006 C 
ENDBRANCH   1  27
BRANCH   8  29
HETATM   29  O2  UNL     1       3.476  13.790  21.644  1.00  0.00    -0.358 OA
ATOM     30  H2  UNL     1       3.620  12.937  22.036  1.00  0.00     0.217 HD
ENDBRANCH   8  29
TORSDOF 5
ENDMDL
MODEL 3
REMARK VINA RESULT: -5.945939309      1.540      2.239
REMARK  5 active torsions:
REMARK  status: ('A' for Active; 'I' for Inactive)
REMARK    1  A    between atoms: C2_2  and  C3_3 
REMARK    2  A    between atoms: C8_10  and  O2_11 
REMARK    3  A    between atoms: C15_20  and  O4_21 
REMARK    4  A    between atoms: O4_21  and  C16_22 
REMARK    5  A    between atoms: C16_22  and  C17_24 
ROOT
HETATM    1  C3  UNL     1       1.193  18.456  24.802  1.00  0.00     0.049 C 
HETATM    2  C4  UNL     1       0.074  17.904  23.973  1.00  0.00     0.131 C 
HETATM    3  C5  UNL     1      -0.622  18.860  23.077  1.00  0.00     0.040 C 
HETATM    4  O1  UNL     1       0.529  16.761  23.220  1.00  0.00    -0.343 OA
HETATM    5  C6  UNL     1       1.910  16.512  23.116  1.00  0.00     0.105 A 
HETATM    6  C7  UNL     1       2.359  15.266  22.679  1.00  0.00     0.102 A 
HETATM    7 CL1  UNL     1       1.213  14.037  22.268  1.00  0.00    -0.078 Cl
HETATM    8  C8  UNL     1       3.707  15.000  22.570  1.00  0.00     0.103 A 
HETATM    9  C9  UNL     1       4.634  15.971  22.895  1.00  0.00     0.041 A 
HETATM   10  C10 UNL     1       6.009  16.027  22.898  1.00  0.00    -0.024 A 
HETATM   11  C11 UNL     1       6.891  14.889  22.492  1.00  0.00     0.051 C 
HETATM   12  C12 UNL     1       6.396  17.277  23.326  1.00  0.00     0.150 A 
HETATM   13  O3  UNL     1       5.299  17.946  23.570  1.00  0.00    -0.321 OA
HETATM   14  C13 UNL     1       4.225  17.214  23.331  1.00  0.00     0.100 A 
HETATM   15  C14 UNL     1       2.866  17.444  23.427  1.00  0.00     0.042 A 
HETATM   16  C15 UNL     1       2.355  18.760  23.889  1.00  0.00     0.177 C 
ENDROOT
BRANCH  16  17
HETATM   17  O4  UNL     1       3.351  19.529  24.521  1.00  0.00    -0.305 OA
BRANCH  17  18
HETATM   18  C16 UNL     1       3.541  20.850  24.137  1.00  0.00     0.319 C 
HETATM   19  O5  UNL     1       2.754  21.304  23.266  1.00  0.00    -0.257 OA
BRANCH  18  20
HETATM   20  C17 UNL     1       4.592  21.692  24.696  1.00  0.00     0.167 A 
HETATM   21  C18 UNL     1       4.471  22.361  25.894  1.00  0.00     0.133 A 
HETATM   22  N1  UNL     1       5.617  23.041  26.116  1.00  0.00    -0.347 N 
HETATM   23  C19 UNL     1       6.403  22.776  25.062  1.00  0.00     0.120 A 
ATOM     24  H1  UNL     1       5.837  23.633  26.916  1.00  0.00     0.167 HD
HETATM   25  C20 UNL     1       7.785  23.336  24.900  1.00  0.00     0.098 C 
HETATM   26  O6  UNL     1       5.772  21.970  24.229  1.00  0.00    -0.291 OA
ENDBRANCH  18  20
ENDBRANCH  17  18
ENDBRANCH  16  17
BRANCH   1  27
HETATM   27  C2  UNL     1       0.830  19.503  25.762  1.00  0.00     0.006 C 
HETATM   28  C1  UNL     1       1.193  19.333  27.187  1.00  0.00     0.006 C 
ENDBRANCH   1  27
BRANCH   8  29
HETATM   29  O2  UNL     1       4.189  13.776  22.141  1.00  0.00    -0.358 OA
ATOM     30  H2  UNL     1       4.555  13.135  22.739  1.00  0.00     0.217 HD
ENDBRANCH   8  29
TORSDOF 5
ENDMDL
MODEL 4
REMARK VINA RESULT: -5.646459084      2.378      4.935
REMARK  5 active torsions:
REMARK  status: ('A' for Active; 'I' for Inactive)
REMARK    1  A    between atoms: C2_2  and  C3_3 
REMARK    2  A    between atoms: C8_10  and  O2_11 
REMARK    3  A    between atoms: C15_20  and  O4_21 
REMARK    4  A    between atoms: O4_21  and  C16_22 
REMARK    5  A    between atoms: C16_22  and  C17_24 
ROOT
HETATM    1  C3  UNL     1       3.761  20.943  24.131  1.00  0.00     0.049 C 
HETATM    2  C4  UNL     1       5.099  20.630  24.727  1.00  0.00     0.131 C 
HETATM    3  C5  UNL     1       5.281  20.965  26.161  1.00  0.00     0.040 C 
HETATM    4  O1  UNL     1       5.437  19.247  24.494  1.00  0.00    -0.343 OA
HETATM    5  C6  UNL     1       4.436  18.359  24.057  1.00  0.00     0.105 A 
HETATM    6  C7  UNL     1       4.792  17.120  23.525  1.00  0.00     0.102 A 
HETATM    7 CL1  UNL     1       6.462  16.685  23.408  1.00  0.00    -0.078 Cl
HETATM    8  C8  UNL     1       3.828  16.235  23.092  1.00  0.00     0.103 A 
HETATM    9  C9  UNL     1       2.491  16.568  23.179  1.00  0.00     0.041 A 
HETATM   10  C10 UNL     1       1.317  15.933  22.845  1.00  0.00    -0.024 A 
HETATM   11  C11 UNL     1       1.251  14.567  22.239  1.00  0.00     0.051 C 
HETATM   12  C12 UNL     1       0.264  16.761  23.164  1.00  0.00     0.150 A 
HETATM   13  O3  UNL     1       0.784  17.850  23.669  1.00  0.00    -0.321 OA
HETATM   14  C13 UNL     1       2.104  17.786  23.699  1.00  0.00     0.100 A 
HETATM   15  C14 UNL     1       3.097  18.646  24.124  1.00  0.00     0.042 A 
HETATM   16  C15 UNL     1       2.751  19.973  24.695  1.00  0.00     0.177 C 
ENDROOT
BRANCH  16  17
HETATM   17  O4  UNL     1       1.424  20.349  24.412  1.00  0.00    -0.305 OA
BRANCH  17  18
HETATM   18  C16 UNL     1       0.506  20.449  25.448  1.00  0.00     0.319 C 
HETATM   19  O5  UNL     1      -0.598  20.987  25.175  1.00  0.00    -0.257 OA
BRANCH  18  20
HETATM   20  C17 UNL     1       0.781  19.964  26.796  1.00  0.00     0.167 A 
HETATM   21  C18 UNL     1       0.784  20.776  27.908  1.00  0.00     0.133 A 
HETATM   22  N1  UNL     1       1.072  20.015  28.987  1.00  0.00    -0.347 N 
HETATM   23  C19 UNL     1       1.237  18.771  28.516  1.00  0.00     0.120 A 
ATOM     24  H1  UNL     1       1.149  20.324  29.956  1.00  0.00     0.167 HD
HETATM   25  C20 UNL     1       1.572  17.595  29.384  1.00  0.00     0.098 C 
HETATM   26  O6  UNL     1       1.058  18.764  27.208  1.00  0.00    -0.291 OA
ENDBRANCH  18  20
ENDBRANCH  17  18
ENDBRANCH  16  17
BRANCH   1  27
HETATM   27  C2  UNL     1       3.370  22.356  24.125  1.00  0.00     0.006 C 
HETATM   28  C1  UNL     1       3.202  23.052  22.830  1.00  0.00     0.006 C 
ENDBRANCH   1  27
BRANCH   8  29
HETATM   29  O2  UNL     1       4.145  14.998  22.559  1.00  0.00    -0.358 OA
ATOM     30  H2  UNL     1       3.516  14.477  22.074  1.00  0.00     0.217 HD
ENDBRANCH   8  29
TORSDOF 5
ENDMDL
MODEL 5
REMARK VINA RESULT: -5.638463282     12.695     16.735
REMARK  5 active torsions:
REMARK  status: ('A' for Active; 'I' for Inactive)
REMARK    1  A    between atoms: C2_2  and  C3_3 
REMARK    2  A    between atoms: C8_10  and  O2_11 
REMARK    3  A    between atoms: C15_20  and  O4_21 
REMARK    4  A    between atoms: O4_21  and  C16_22 
REMARK    5  A    between atoms: C16_22  and  C17_24 
ROOT
HETATM    1  C3  UNL     1       8.181   1.782  21.025  1.00  0.00     0.049 C 
HETATM    2  C4  UNL     1       8.898   0.595  21.593  1.00  0.00     0.131 C 
HETATM    3  C5  UNL     1       9.990   0.879  22.557  1.00  0.00     0.040 C 
HETATM    4  O1  UNL     1       7.954  -0.329  22.170  1.00  0.00    -0.343 OA
HETATM    5  C6  UNL     1       6.630   0.093  22.396  1.00  0.00     0.105 A 
HETATM    6  C7  UNL     1       5.635  -0.851  22.647  1.00  0.00     0.102 A 
HETATM    7 CL1  UNL     1       6.036  -2.533  22.677  1.00  0.00    -0.078 Cl
HETATM    8  C8  UNL     1       4.332  -0.460  22.871  1.00  0.00     0.103 A 
HETATM    9  C9  UNL     1       3.996   0.878  22.850  1.00  0.00     0.041 A 
HETATM   10  C10 UNL     1       2.826   1.581  23.028  1.00  0.00    -0.024 A 
HETATM   11  C11 UNL     1       1.506   0.942  23.322  1.00  0.00     0.051 C 
HETATM   12  C12 UNL     1       3.096   2.924  22.891  1.00  0.00     0.150 A 
HETATM   13  O3  UNL     1       4.376   3.026  22.641  1.00  0.00    -0.321 OA
HETATM   14  C13 UNL     1       4.956   1.839  22.605  1.00  0.00     0.100 A 
HETATM   15  C14 UNL     1       6.250   1.410  22.385  1.00  0.00     0.042 A 
HETATM   16  C15 UNL     1       7.334   2.390  22.116  1.00  0.00     0.177 C 
ENDROOT
BRANCH  16  17
HETATM   17  O4  UNL     1       6.834   3.659  21.767  1.00  0.00    -0.305 OA
BRANCH  17  18
HETATM   18  C16 UNL     1       7.560   4.795  22.097  1.00  0.00     0.319 C 
HETATM   19  O5  UNL     1       8.644   4.614  22.710  1.00  0.00    -0.257 OA
BRANCH  18  20
HETATM   20  C17 UNL     1       7.113   6.143  21.764  1.00  0.00     0.167 A 
HETATM   21  C18 UNL     1       6.803   7.094  22.710  1.00  0.00     0.133 A 
HETATM   22  N1  UNL     1       6.428   8.222  22.068  1.00  0.00    -0.347 N 
HETATM   23  C19 UNL     1       6.516   7.939  20.760  1.00  0.00     0.120 A 
ATOM     24  H1  UNL     1       6.138   9.105  22.490  1.00  0.00     0.167 HD
HETATM   25  C20 UNL     1       6.187   8.922  19.677  1.00  0.00     0.098 C 
HETATM   26  O6  UNL     1       6.927   6.694  20.602  1.00  0.00    -0.291 OA
ENDBRANCH  18  20
ENDBRANCH  17  18
ENDBRANCH  16  17
BRANCH   1  27
HETATM   27  C2  UNL     1       8.995   2.714  20.239  1.00  0.00     0.006 C 
HETATM   28  C1  UNL     1       9.956   2.176  19.251  1.00  0.00     0.006 C 
ENDBRANCH   1  27
BRANCH   8  29
HETATM   29  O2  UNL     1       3.319  -1.369  23.122  1.00  0.00    -0.358 OA
ATOM     30  H2  UNL     1       2.402  -1.159  22.986  1.00  0.00     0.217 HD
ENDBRANCH   8  29
TORSDOF 5
ENDMDL
