MODEL 1
REMARK VINA RESULT: -6.422016462      0.000      0.000
REMARK  7 active torsions:
REMARK  status: ('A' for Active; 'I' for Inactive)
REMARK    1  A    between atoms: C2_2  and  O1_3 
REMARK    2  A    between atoms: O1_3  and  C3_4 
REMARK    3  A    between atoms: C3_4  and  C4_6 
REMARK    4  A    between atoms: C5_7  and  N1_8 
REMARK    5  A    between atoms: N2_10  and  C6_12 
REMARK    6  A    between atoms: C7_14  and  C8_15 
REMARK    7  A    between atoms: C8_15  and  N4_19 
ROOT
HETATM    1  N1  UNL     1       3.303  19.214  24.071  1.00  0.00    -0.292 N 
ATOM      2  H1  UNL     1       3.198  19.261  23.057  1.00  0.00     0.187 HD
HETATM    3  N2  UNL     1       3.725  18.148  24.602  1.00  0.00    -0.291 N 
ATOM      4  H2  UNL     1       3.830  18.100  25.615  1.00  0.00     0.187 HD
ENDROOT
BRANCH   3   5
HETATM    5  C6  UNL     1       4.063  16.995  23.794  1.00  0.00     0.112 A 
HETATM    6  S1  UNL     1       5.586  16.410  23.339  1.00  0.00    -0.065 SA
HETATM    7  C7  UNL     1       5.095  15.020  22.396  1.00  0.00     0.058 A 
HETATM    8  C11 UNL     1       3.738  15.093  22.494  1.00  0.00    -0.017 A 
HETATM    9  C12 UNL     1       2.862  14.048  21.814  1.00  0.00     0.052 C 
HETATM   10  C13 UNL     1       3.208  16.104  23.209  1.00  0.00     0.076 A 
HETATM   11 CL1  UNL     1       1.444  16.363  23.437  1.00  0.00    -0.081 Cl
BRANCH   7  12
HETATM   12  C8  UNL     1       6.031  14.126  21.728  1.00  0.00     0.114 C 
HETATM   13  N3  UNL     1       6.615  14.615  20.633  1.00  0.00    -0.384 N 
ATOM     14  H32 UNL     1       6.373  15.565  20.350  1.00  0.00     0.157 HD
ATOM     15  H31 UNL     1       7.269  13.989  20.164  1.00  0.00     0.157 HD
BRANCH  12  16
HETATM   16  N4  UNL     1       6.360  12.833  22.112  1.00  0.00    -0.375 N 
HETATM   17  C9  UNL     1       7.553  12.611  22.948  1.00  0.00     0.150 C 
HETATM   18  C10 UNL     1       5.596  11.699  21.685  1.00  0.00     0.150 C 
ENDBRANCH  12  16
ENDBRANCH   7  12
ENDBRANCH   3   5
BRANCH   1  19
HETATM   19  C5  UNL     1       2.967  20.366  24.876  1.00  0.00     0.106 A 
HETATM   20  C4  UNL     1       1.889  21.207  24.743  1.00  0.00     0.081 A 
HETATM   21  C16 UNL     1       1.800  22.217  25.628  1.00  0.00    -0.030 A 
HETATM   22  C14 UNL     1       2.787  22.309  26.571  1.00  0.00    -0.012 A 
HETATM   23  C17 UNL     1       0.662  23.235  25.610  1.00  0.00     0.050 C 
HETATM   24  S2  UNL     1       3.812  21.000  26.213  1.00  0.00    -0.074 SA
HETATM   25  C15 UNL     1       2.919  23.337  27.666  1.00  0.00     0.057 C 
BRANCH  20  26
HETATM   26  C3  UNL     1       0.893  20.967  23.653  1.00  0.00     0.296 C 
HETATM   27  O2  UNL     1      -0.265  20.552  23.892  1.00  0.00    -0.259 OA
BRANCH  26  28
HETATM   28  O1  UNL     1       1.195  21.190  22.319  1.00  0.00    -0.318 OA
BRANCH  28  29
HETATM   29  C2  UNL     1       2.032  22.255  21.907  1.00  0.00     0.174 C 
HETATM   30  C1  UNL     1       1.454  22.996  20.740  1.00  0.00     0.034 C 
ENDBRANCH  28  29
ENDBRANCH  26  28
ENDBRANCH  20  26
ENDBRANCH   1  19
TORSDOF 7
ENDMDL
MODEL 2
REMARK VINA RESULT: -6.368373179      3.067      8.456
REMARK  7 active torsions:
REMARK  status: ('A' for Active; 'I' for Inactive)
REMARK    1  A    between atoms: C2_2  and  O1_3 
REMARK    2  A    between atoms: O1_3  and  C3_4 
REMARK    3  A    between atoms: C3_4  and  C4_6 
REMARK    4  A    between atoms: C5_7  and  N1_8 
REMARK    5  A    between atoms: N2_10  and  C6_12 
REMARK    6  A    between atoms: C7_14  and  C8_15 
REMARK    7  A    between atoms: C8_15  and  N4_19 
ROOT
HETATM    1  N1  UNL     1       5.973  16.192  23.472  1.00  0.00    -0.292 N 
ATOM      2  H1  UNL     1       6.364  16.479  24.370  1.00  0.00     0.187 HD
HETATM    3  N2  UNL     1       5.055  16.881  22.946  1.00  0.00    -0.291 N 
ATOM      4  H2  UNL     1       4.664  16.595  22.050  1.00  0.00     0.187 HD
ENDROOT
BRANCH   3   5
HETATM    5  C6  UNL     1       4.549  18.072  23.597  1.00  0.00     0.112 A 
HETATM    6  S1  UNL     1       5.341  19.144  24.644  1.00  0.00    -0.065 SA
HETATM    7  C7  UNL     1       4.036  20.267  24.952  1.00  0.00     0.058 A 
HETATM    8  C11 UNL     1       3.034  19.730  24.201  1.00  0.00    -0.017 A 
HETATM    9  C12 UNL     1       1.666  20.401  24.154  1.00  0.00     0.052 C 
HETATM   10  C13 UNL     1       3.296  18.606  23.508  1.00  0.00     0.076 A 
HETATM   11 CL1  UNL     1       2.095  17.755  22.475  1.00  0.00    -0.081 Cl
BRANCH   7  12
HETATM   12  C8  UNL     1       4.156  21.423  25.831  1.00  0.00     0.114 C 
HETATM   13  N3  UNL     1       4.460  22.575  25.231  1.00  0.00    -0.384 N 
ATOM     14  H32 UNL     1       4.578  22.567  24.218  1.00  0.00     0.157 HD
ATOM     15  H31 UNL     1       4.545  23.384  25.846  1.00  0.00     0.157 HD
BRANCH  12  16
HETATM   16  N4  UNL     1       3.996  21.435  27.210  1.00  0.00    -0.375 N 
HETATM   17  C9  UNL     1       3.517  20.219  27.890  1.00  0.00     0.150 C 
HETATM   18  C10 UNL     1       4.243  22.610  27.991  1.00  0.00     0.150 C 
ENDBRANCH  12  16
ENDBRANCH   7  12
ENDBRANCH   3   5
BRANCH   1  19
HETATM   19  C5  UNL     1       6.480  15.004  22.824  1.00  0.00     0.106 A 
HETATM   20  C4  UNL     1       5.888  13.768  22.739  1.00  0.00     0.081 A 
HETATM   21  C16 UNL     1       6.571  12.818  22.072  1.00  0.00    -0.030 A 
HETATM   22  C14 UNL     1       7.782  13.174  21.546  1.00  0.00    -0.012 A 
HETATM   23  C17 UNL     1       6.047  11.395  21.893  1.00  0.00     0.050 C 
HETATM   24  S2  UNL     1       7.949  14.808  21.983  1.00  0.00    -0.074 SA
HETATM   25  C15 UNL     1       8.734  12.305  20.762  1.00  0.00     0.057 C 
BRANCH  20  26
HETATM   26  C3  UNL     1       4.551  13.541  23.371  1.00  0.00     0.296 C 
HETATM   27  O2  UNL     1       4.328  12.562  24.119  1.00  0.00    -0.259 OA
BRANCH  26  28
HETATM   28  O1  UNL     1       3.486  14.403  23.165  1.00  0.00    -0.318 OA
BRANCH  28  29
HETATM   29  C2  UNL     1       2.715  14.373  21.977  1.00  0.00     0.174 C 
HETATM   30  C1  UNL     1       1.247  14.451  22.265  1.00  0.00     0.034 C 
ENDBRANCH  28  29
ENDBRANCH  26  28
ENDBRANCH  20  26
ENDBRANCH   1  19
TORSDOF 7
ENDMDL
MODEL 3
REMARK VINA RESULT: -6.276941694      2.420      2.788
REMARK  7 active torsions:
REMARK  status: ('A' for Active; 'I' for Inactive)
REMARK    1  A    between atoms: C2_2  and  O1_3 
REMARK    2  A    between atoms: O1_3  and  C3_4 
REMARK    3  A    between atoms: C3_4  and  C4_6 
REMARK    4  A    between atoms: C5_7  and  N1_8 
REMARK    5  A    between atoms: N2_10  and  C6_12 
REMARK    6  A    between atoms: C7_14  and  C8_15 
REMARK    7  A    between atoms: C8_15  and  N4_19 
ROOT
HETATM    1  N1  UNL     1       3.348  19.376  24.478  1.00  0.00    -0.292 N 
ATOM      2  H1  UNL     1       3.370  19.509  23.467  1.00  0.00     0.187 HD
HETATM    3  N2  UNL     1       3.628  18.244  24.962  1.00  0.00    -0.291 N 
ATOM      4  H2  UNL     1       3.605  18.110  25.972  1.00  0.00     0.187 HD
ENDROOT
BRANCH   3   5
HETATM    5  C6  UNL     1       3.980  17.132  24.104  1.00  0.00     0.112 A 
HETATM    6  S1  UNL     1       5.512  16.561  23.657  1.00  0.00    -0.065 SA
HETATM    7  C7  UNL     1       5.038  15.226  22.631  1.00  0.00     0.058 A 
HETATM    8  C11 UNL     1       3.679  15.303  22.698  1.00  0.00    -0.017 A 
HETATM    9  C12 UNL     1       2.815  14.300  21.943  1.00  0.00     0.052 C 
HETATM   10  C13 UNL     1       3.137  16.279  23.451  1.00  0.00     0.076 A 
HETATM   11 CL1  UNL     1       1.368  16.536  23.648  1.00  0.00    -0.081 Cl
BRANCH   7  12
HETATM   12  C8  UNL     1       5.986  14.362  21.941  1.00  0.00     0.114 C 
HETATM   13  N3  UNL     1       6.417  14.806  20.759  1.00  0.00    -0.384 N 
ATOM     14  H32 UNL     1       6.064  15.705  20.432  1.00  0.00     0.157 HD
ATOM     15  H31 UNL     1       7.081  14.201  20.276  1.00  0.00     0.157 HD
BRANCH  12  16
HETATM   16  N4  UNL     1       6.468  13.138  22.386  1.00  0.00    -0.375 N 
HETATM   17  C9  UNL     1       7.751  12.636  21.866  1.00  0.00     0.150 C 
HETATM   18  C10 UNL     1       5.731  12.324  23.307  1.00  0.00     0.150 C 
ENDBRANCH  12  16
ENDBRANCH   7  12
ENDBRANCH   3   5
BRANCH   1  19
HETATM   19  C5  UNL     1       2.998  20.487  25.333  1.00  0.00     0.106 A 
HETATM   20  C4  UNL     1       3.840  21.317  26.032  1.00  0.00     0.081 A 
HETATM   21  C16 UNL     1       3.259  22.288  26.763  1.00  0.00    -0.030 A 
HETATM   22  C14 UNL     1       1.893  22.354  26.739  1.00  0.00    -0.012 A 
HETATM   23  C17 UNL     1       4.059  23.288  27.595  1.00  0.00     0.050 C 
HETATM   24  S2  UNL     1       1.444  21.077  25.710  1.00  0.00    -0.074 SA
HETATM   25  C15 UNL     1       1.008  23.337  27.463  1.00  0.00     0.057 C 
BRANCH  20  26
HETATM   26  C3  UNL     1       5.319  21.111  25.950  1.00  0.00     0.296 C 
HETATM   27  O2  UNL     1       5.869  20.072  26.381  1.00  0.00    -0.259 OA
BRANCH  26  28
HETATM   28  O1  UNL     1       6.163  22.059  25.393  1.00  0.00    -0.318 OA
BRANCH  28  29
HETATM   29  C2  UNL     1       5.775  22.852  24.286  1.00  0.00     0.174 C 
HETATM   30  C1  UNL     1       6.950  23.247  23.446  1.00  0.00     0.034 C 
ENDBRANCH  28  29
ENDBRANCH  26  28
ENDBRANCH  20  26
ENDBRANCH   1  19
TORSDOF 7
ENDMDL
MODEL 4
REMARK VINA RESULT: -6.188952081      2.813      4.008
REMARK  7 active torsions:
REMARK  status: ('A' for Active; 'I' for Inactive)
REMARK    1  A    between atoms: C2_2  and  O1_3 
REMARK    2  A    between atoms: O1_3  and  C3_4 
REMARK    3  A    between atoms: C3_4  and  C4_6 
REMARK    4  A    between atoms: C5_7  and  N1_8 
REMARK    5  A    between atoms: N2_10  and  C6_12 
REMARK    6  A    between atoms: C7_14  and  C8_15 
REMARK    7  A    between atoms: C8_15  and  N4_19 
ROOT
HETATM    1  N1  UNL     1       3.414  17.375  24.353  1.00  0.00    -0.292 N 
ATOM      2  H1  UNL     1       4.074  17.124  25.089  1.00  0.00     0.187 HD
HETATM    3  N2  UNL     1       3.414  16.725  23.270  1.00  0.00    -0.291 N 
ATOM      4  H2  UNL     1       2.755  16.976  22.534  1.00  0.00     0.187 HD
ENDROOT
BRANCH   3   5
HETATM    5  C6  UNL     1       4.335  15.628  23.058  1.00  0.00     0.112 A 
HETATM    6  S1  UNL     1       4.022  13.966  22.951  1.00  0.00    -0.065 SA
HETATM    7  C7  UNL     1       5.650  13.379  22.696  1.00  0.00     0.058 A 
HETATM    8  C11 UNL     1       6.362  14.540  22.708  1.00  0.00    -0.017 A 
HETATM    9  C12 UNL     1       7.872  14.518  22.506  1.00  0.00     0.052 C 
HETATM   10  C13 UNL     1       5.689  15.692  22.894  1.00  0.00     0.076 A 
HETATM   11 CL1  UNL     1       6.463  17.315  22.948  1.00  0.00    -0.081 Cl
BRANCH   7  12
HETATM   12  C8  UNL     1       5.985  11.969  22.546  1.00  0.00     0.114 C 
HETATM   13  N3  UNL     1       5.591  11.173  23.541  1.00  0.00    -0.384 N 
ATOM     14  H32 UNL     1       5.086  11.599  24.319  1.00  0.00     0.157 HD
ATOM     15  H31 UNL     1       5.827  10.186  23.437  1.00  0.00     0.157 HD
BRANCH  12  16
HETATM   16  N4  UNL     1       6.673  11.389  21.488  1.00  0.00    -0.375 N 
HETATM   17  C9  UNL     1       5.985  10.403  20.636  1.00  0.00     0.150 C 
HETATM   18  C10 UNL     1       8.049  11.688  21.224  1.00  0.00     0.150 C 
ENDBRANCH  12  16
ENDBRANCH   7  12
ENDBRANCH   3   5
BRANCH   1  19
HETATM   19  C5  UNL     1       2.494  18.469  24.566  1.00  0.00     0.106 A 
HETATM   20  C4  UNL     1       1.815  18.793  25.715  1.00  0.00     0.081 A 
HETATM   21  C16 UNL     1       1.011  19.872  25.655  1.00  0.00    -0.030 A 
HETATM   22  C14 UNL     1       0.948  20.538  24.462  1.00  0.00    -0.012 A 
HETATM   23  C17 UNL     1       0.190  20.358  26.847  1.00  0.00     0.050 C 
HETATM   24  S2  UNL     1       1.999  19.661  23.454  1.00  0.00    -0.074 SA
HETATM   25  C15 UNL     1       0.132  21.764  24.136  1.00  0.00     0.057 C 
BRANCH  20  26
HETATM   26  C3  UNL     1       1.996  17.958  26.943  1.00  0.00     0.296 C 
HETATM   27  O2  UNL     1       1.631  16.761  26.991  1.00  0.00    -0.259 OA
BRANCH  26  28
HETATM   28  O1  UNL     1       2.577  18.463  28.095  1.00  0.00    -0.318 OA
BRANCH  28  29
HETATM   29  C2  UNL     1       3.710  19.312  28.055  1.00  0.00     0.174 C 
HETATM   30  C1  UNL     1       3.366  20.714  28.457  1.00  0.00     0.034 C 
ENDBRANCH  28  29
ENDBRANCH  26  28
ENDBRANCH  20  26
ENDBRANCH   1  19
TORSDOF 7
ENDMDL
MODEL 5
REMARK VINA RESULT: -6.144239529      3.534      5.061
REMARK  7 active torsions:
REMARK  status: ('A' for Active; 'I' for Inactive)
REMARK    1  A    between atoms: C2_2  and  O1_3 
REMARK    2  A    between atoms: O1_3  and  C3_4 
REMARK    3  A    between atoms: C3_4  and  C4_6 
REMARK    4  A    between atoms: C5_7  and  N1_8 
REMARK    5  A    between atoms: N2_10  and  C6_12 
REMARK    6  A    between atoms: C7_14  and  C8_15 
REMARK    7  A    between atoms: C8_15  and  N4_19 
ROOT
HETATM    1  N1  UNL     1       3.504  15.039  22.592  1.00  0.00    -0.292 N 
ATOM      2  H1  UNL     1       3.375  14.551  21.706  1.00  0.00     0.187 HD
HETATM    3  N2  UNL     1       4.454  14.702  23.353  1.00  0.00    -0.291 N 
ATOM      4  H2  UNL     1       4.584  15.188  24.240  1.00  0.00     0.187 HD
ENDROOT
BRANCH   3   5
HETATM    5  C6  UNL     1       5.362  13.635  22.986  1.00  0.00     0.112 A 
HETATM    6  S1  UNL     1       5.165  11.958  23.130  1.00  0.00    -0.065 SA
HETATM    7  C7  UNL     1       6.695  11.428  22.469  1.00  0.00     0.058 A 
HETATM    8  C11 UNL     1       7.286  12.617  22.165  1.00  0.00    -0.017 A 
HETATM    9  C12 UNL     1       8.674  12.647  21.538  1.00  0.00     0.052 C 
HETATM   10  C13 UNL     1       6.604  13.748  22.431  1.00  0.00     0.076 A 
HETATM   11 CL1  UNL     1       7.230  15.403  22.106  1.00  0.00    -0.081 Cl
BRANCH   7  12
HETATM   12  C8  UNL     1       7.086  10.028  22.360  1.00  0.00     0.114 C 
HETATM   13  N3  UNL     1       8.040   9.628  23.202  1.00  0.00    -0.384 N 
ATOM     14  H32 UNL     1       8.417  10.317  23.854  1.00  0.00     0.157 HD
ATOM     15  H31 UNL     1       8.314   8.649  23.125  1.00  0.00     0.157 HD
BRANCH  12  16
HETATM   16  N4  UNL     1       6.573   9.092  21.473  1.00  0.00    -0.375 N 
HETATM   17  C9  UNL     1       6.388   7.701  21.921  1.00  0.00     0.150 C 
HETATM   18  C10 UNL     1       6.257   9.427  20.116  1.00  0.00     0.150 C 
ENDBRANCH  12  16
ENDBRANCH   7  12
ENDBRANCH   3   5
BRANCH   1  19
HETATM   19  C5  UNL     1       2.598  16.104  22.957  1.00  0.00     0.106 A 
HETATM   20  C4  UNL     1       2.908  17.387  23.337  1.00  0.00     0.081 A 
HETATM   21  C16 UNL     1       1.871  18.196  23.628  1.00  0.00    -0.030 A 
HETATM   22  C14 UNL     1       0.615  17.665  23.516  1.00  0.00    -0.012 A 
HETATM   23  C17 UNL     1       2.052  19.647  24.067  1.00  0.00     0.050 C 
HETATM   24  S2  UNL     1       0.895  16.066  23.013  1.00  0.00    -0.074 SA
HETATM   25  C15 UNL     1      -0.700  18.354  23.779  1.00  0.00     0.057 C 
BRANCH  20  26
HETATM   26  C3  UNL     1       4.340  17.813  23.409  1.00  0.00     0.296 C 
HETATM   27  O2  UNL     1       5.090  17.787  22.407  1.00  0.00    -0.259 OA
BRANCH  26  28
HETATM   28  O1  UNL     1       4.916  18.258  24.588  1.00  0.00    -0.318 OA
BRANCH  28  29
HETATM   29  C2  UNL     1       5.327  19.602  24.761  1.00  0.00     0.174 C 
HETATM   30  C1  UNL     1       5.088  20.080  26.161  1.00  0.00     0.034 C 
ENDBRANCH  28  29
ENDBRANCH  26  28
ENDBRANCH  20  26
ENDBRANCH   1  19
TORSDOF 7
ENDMDL
