MODEL 1
REMARK VINA RESULT: -7.308978634      0.000      0.000
REMARK  7 active torsions:
REMARK  status: ('A' for Active; 'I' for Inactive)
REMARK    1  A    between atoms: O1_2  and  C2_3 
REMARK    2  A    between atoms: C4_5  and  C5_6 
REMARK    3  A    between atoms: C8_10  and  N1_11 
REMARK    4  A    between atoms: N2_17  and  C10_18 
REMARK    5  A    between atoms: C15_23  and  N3_24 
REMARK    6  A    between atoms: C16_27  and  N4_28 
REMARK    7  A    between atoms: C18_32  and  O8_33 
ROOT
HETATM    1  C5  UNL     1      50.320  45.271  62.195  1.00  0.00     0.136 C 
HETATM    2  C6  UNL     1      49.346  44.062  61.858  1.00  0.00     0.111 C 
HETATM    3  C7  UNL     1      48.524  44.627  60.734  1.00  0.00     0.168 C 
HETATM    4  O2  UNL     1      47.322  44.671  60.874  1.00  0.00    -0.295 OA
HETATM    5  C8  UNL     1      49.262  45.088  59.537  1.00  0.00     0.343 C 
HETATM    6  C9  UNL     1      50.703  45.269  59.802  1.00  0.00     0.263 C 
HETATM    7  O3  UNL     1      51.435  45.590  58.842  1.00  0.00    -0.270 OA
HETATM    8  N2  UNL     1      51.294  45.088  61.126  1.00  0.00    -0.304 N 
ENDROOT
BRANCH   1   9
HETATM    9  C4  UNL     1      50.740  45.122  63.562  1.00  0.00     0.001 A 
HETATM   10  C3  UNL     1      51.208  43.896  64.026  1.00  0.00     0.051 A 
HETATM   11  C2  UNL     1      51.733  43.694  65.284  1.00  0.00     0.102 A 
HETATM   12  C18 UNL     1      51.803  44.769  66.151  1.00  0.00     0.103 A 
HETATM   13  C17 UNL     1      51.352  46.004  65.747  1.00  0.00     0.076 A 
HETATM   14  C16 UNL     1      50.819  46.164  64.448  1.00  0.00     0.114 A 
BRANCH  11  15
HETATM   15  O1  UNL     1      52.196  42.467  65.722  1.00  0.00    -0.353 OA
HETATM   16  C1  UNL     1      51.807  41.321  64.985  1.00  0.00     0.210 C 
ENDBRANCH  11  15
BRANCH  12  17
HETATM   17  O8  UNL     1      52.332  44.554  67.411  1.00  0.00    -0.353 OA
HETATM   18  C19 UNL     1      51.638  44.515  68.617  1.00  0.00     0.210 C 
ENDBRANCH  12  17
BRANCH  14  19
HETATM   19  N4  UNL     1      50.231  47.450  64.241  1.00  0.00    -0.115 N 
HETATM   20  O6  UNL     1      51.031  48.446  64.039  1.00  0.00    -0.532 OA
HETATM   21  O7  UNL     1      48.940  47.777  64.246  1.00  0.00    -0.532 OA
ENDBRANCH  14  19
ENDBRANCH   1   9
BRANCH   8  22
HETATM   22  C10 UNL     1      52.635  44.690  61.148  1.00  0.00     0.071 A 
HETATM   23  C11 UNL     1      53.638  45.632  61.451  1.00  0.00     0.032 A 
HETATM   24  C12 UNL     1      54.973  45.334  61.530  1.00  0.00     0.002 A 
HETATM   25  C13 UNL     1      55.408  44.053  61.311  1.00  0.00     0.003 A 
HETATM   26  C14 UNL     1      54.471  43.113  61.018  1.00  0.00     0.038 A 
HETATM   27  C15 UNL     1      53.085  43.426  60.935  1.00  0.00     0.129 A 
BRANCH  27  28
HETATM   28  N3  UNL     1      52.270  42.292  60.690  1.00  0.00    -0.113 N 
HETATM   29  O4  UNL     1      51.912  41.515  61.526  1.00  0.00    -0.532 OA
HETATM   30  O5  UNL     1      51.804  42.051  59.383  1.00  0.00    -0.532 OA
ENDBRANCH  27  28
ENDBRANCH   8  22
BRANCH   5  31
HETATM   31  N1  UNL     1      48.743  46.336  58.981  1.00  0.00    -0.059 N 
ATOM     32  H13 UNL     1      47.729  46.292  58.879  1.00  0.00     0.275 HD
ATOM     33  H12 UNL     1      48.812  47.092  59.663  1.00  0.00     0.275 HD
ATOM     34  H11 UNL     1      49.185  46.601  58.101  1.00  0.00     0.275 HD
ENDBRANCH   5  31
TORSDOF 7
ENDMDL
MODEL 2
REMARK VINA RESULT: -6.977313801      2.122      4.589
REMARK  7 active torsions:
REMARK  status: ('A' for Active; 'I' for Inactive)
REMARK    1  A    between atoms: O1_2  and  C2_3 
REMARK    2  A    between atoms: C4_5  and  C5_6 
REMARK    3  A    between atoms: C8_10  and  N1_11 
REMARK    4  A    between atoms: N2_17  and  C10_18 
REMARK    5  A    between atoms: C15_23  and  N3_24 
REMARK    6  A    between atoms: C16_27  and  N4_28 
REMARK    7  A    between atoms: C18_32  and  O8_33 
ROOT
HETATM    1  C5  UNL     1      52.381  45.599  62.245  1.00  0.00     0.136 C 
HETATM    2  C6  UNL     1      52.329  44.871  60.835  1.00  0.00     0.111 C 
HETATM    3  C7  UNL     1      53.696  45.161  60.282  1.00  0.00     0.168 C 
HETATM    4  O2  UNL     1      53.769  45.740  59.221  1.00  0.00    -0.295 OA
HETATM    5  C8  UNL     1      54.850  44.710  61.091  1.00  0.00     0.343 C 
HETATM    6  C9  UNL     1      54.470  44.394  62.481  1.00  0.00     0.263 C 
HETATM    7  O3  UNL     1      55.355  43.936  63.237  1.00  0.00    -0.270 OA
HETATM    8  N2  UNL     1      53.118  44.592  62.998  1.00  0.00    -0.304 N 
ENDROOT
BRANCH   1   9
HETATM    9  C4  UNL     1      51.030  45.912  62.623  1.00  0.00     0.001 A 
HETATM   10  C3  UNL     1      49.960  45.255  62.022  1.00  0.00     0.051 A 
HETATM   11  C2  UNL     1      48.644  45.410  62.401  1.00  0.00     0.102 A 
HETATM   12  C18 UNL     1      48.355  46.273  63.442  1.00  0.00     0.103 A 
HETATM   13  C17 UNL     1      49.373  46.953  64.071  1.00  0.00     0.076 A 
HETATM   14  C16 UNL     1      50.707  46.764  63.647  1.00  0.00     0.114 A 
BRANCH  11  15
HETATM   15  O1  UNL     1      47.598  44.744  61.792  1.00  0.00    -0.353 OA
HETATM   16  C1  UNL     1      47.753  44.393  60.427  1.00  0.00     0.210 C 
ENDBRANCH  11  15
BRANCH  12  17
HETATM   17  O8  UNL     1      47.031  46.422  63.813  1.00  0.00    -0.353 OA
HETATM   18  C19 UNL     1      46.546  46.986  64.990  1.00  0.00     0.210 C 
ENDBRANCH  12  17
BRANCH  14  19
HETATM   19  N4  UNL     1      51.623  47.665  64.270  1.00  0.00    -0.115 N 
HETATM   20  O6  UNL     1      51.437  48.930  64.081  1.00  0.00    -0.532 OA
HETATM   21  O7  UNL     1      52.684  47.374  65.022  1.00  0.00    -0.532 OA
ENDBRANCH  14  19
ENDBRANCH   1   9
BRANCH   8  22
HETATM   22  C10 UNL     1      52.732  43.744  64.041  1.00  0.00     0.071 A 
HETATM   23  C11 UNL     1      52.679  44.238  65.361  1.00  0.00     0.032 A 
HETATM   24  C12 UNL     1      52.281  43.497  66.442  1.00  0.00     0.002 A 
HETATM   25  C13 UNL     1      51.899  42.191  66.282  1.00  0.00     0.003 A 
HETATM   26  C14 UNL     1      51.933  41.677  65.024  1.00  0.00     0.038 A 
HETATM   27  C15 UNL     1      52.348  42.449  63.902  1.00  0.00     0.129 A 
BRANCH  27  28
HETATM   28  N3  UNL     1      52.242  41.749  62.673  1.00  0.00    -0.113 N 
HETATM   29  O4  UNL     1      51.211  41.465  62.136  1.00  0.00    -0.532 OA
HETATM   30  O5  UNL     1      53.417  41.373  61.993  1.00  0.00    -0.532 OA
ENDBRANCH  27  28
ENDBRANCH   8  22
BRANCH   5  31
HETATM   31  N1  UNL     1      55.945  45.677  61.128  1.00  0.00    -0.059 N 
ATOM     32  H13 UNL     1      56.709  45.335  61.711  1.00  0.00     0.275 HD
ATOM     33  H12 UNL     1      56.423  45.716  60.227  1.00  0.00     0.275 HD
ATOM     34  H11 UNL     1      55.652  46.608  61.424  1.00  0.00     0.275 HD
ENDBRANCH   5  31
TORSDOF 7
ENDMDL
MODEL 3
REMARK VINA RESULT: -6.916948451      1.307      1.407
REMARK  7 active torsions:
REMARK  status: ('A' for Active; 'I' for Inactive)
REMARK    1  A    between atoms: O1_2  and  C2_3 
REMARK    2  A    between atoms: C4_5  and  C5_6 
REMARK    3  A    between atoms: C8_10  and  N1_11 
REMARK    4  A    between atoms: N2_17  and  C10_18 
REMARK    5  A    between atoms: C15_23  and  N3_24 
REMARK    6  A    between atoms: C16_27  and  N4_28 
REMARK    7  A    between atoms: C18_32  and  O8_33 
ROOT
HETATM    1  C5  UNL     1      51.052  45.372  61.755  1.00  0.00     0.136 C 
HETATM    2  C6  UNL     1      50.340  44.036  61.277  1.00  0.00     0.111 C 
HETATM    3  C7  UNL     1      49.921  44.388  59.878  1.00  0.00     0.168 C 
HETATM    4  O2  UNL     1      48.744  44.314  59.600  1.00  0.00    -0.295 OA
HETATM    5  C8  UNL     1      50.993  44.802  58.947  1.00  0.00     0.343 C 
HETATM    6  C9  UNL     1      52.238  45.166  59.651  1.00  0.00     0.263 C 
HETATM    7  O3  UNL     1      53.233  45.466  58.958  1.00  0.00    -0.270 OA
HETATM    8  N2  UNL     1      52.345  45.189  61.108  1.00  0.00    -0.304 N 
ENDROOT
BRANCH   1   9
HETATM    9  C4  UNL     1      50.983  45.413  63.190  1.00  0.00     0.001 A 
HETATM   10  C3  UNL     1      51.510  44.373  63.951  1.00  0.00     0.051 A 
HETATM   11  C2  UNL     1      51.587  44.381  65.327  1.00  0.00     0.102 A 
HETATM   12  C18 UNL     1      51.111  45.487  66.007  1.00  0.00     0.103 A 
HETATM   13  C17 UNL     1      50.575  46.543  65.307  1.00  0.00     0.076 A 
HETATM   14  C16 UNL     1      50.515  46.490  63.897  1.00  0.00     0.114 A 
BRANCH  11  15
HETATM   15  O1  UNL     1      52.119  43.338  66.061  1.00  0.00    -0.353 OA
HETATM   16  C1  UNL     1      52.014  42.034  65.514  1.00  0.00     0.210 C 
ENDBRANCH  11  15
BRANCH  12  17
HETATM   17  O8  UNL     1      51.192  45.484  67.388  1.00  0.00    -0.353 OA
HETATM   18  C19 UNL     1      50.653  46.422  68.264  1.00  0.00     0.210 C 
ENDBRANCH  12  17
BRANCH  14  19
HETATM   19  N4  UNL     1      49.775  47.571  63.328  1.00  0.00    -0.115 N 
HETATM   20  O6  UNL     1      50.107  48.770  63.678  1.00  0.00    -0.532 OA
HETATM   21  O7  UNL     1      48.750  47.513  62.479  1.00  0.00    -0.532 OA
ENDBRANCH  14  19
ENDBRANCH   1   9
BRANCH   8  22
HETATM   22  C10 UNL     1      53.620  44.946  61.631  1.00  0.00     0.071 A 
HETATM   23  C11 UNL     1      54.382  46.016  62.143  1.00  0.00     0.032 A 
HETATM   24  C12 UNL     1      55.623  45.875  62.706  1.00  0.00     0.002 A 
HETATM   25  C13 UNL     1      56.201  44.636  62.800  1.00  0.00     0.003 A 
HETATM   26  C14 UNL     1      55.498  43.576  62.320  1.00  0.00     0.038 A 
HETATM   27  C15 UNL     1      54.209  43.726  61.735  1.00  0.00     0.129 A 
BRANCH  27  28
HETATM   28  N3  UNL     1      53.618  42.492  61.364  1.00  0.00    -0.113 N 
HETATM   29  O4  UNL     1      53.100  41.726  62.124  1.00  0.00    -0.532 OA
HETATM   30  O5  UNL     1      53.593  42.123  60.005  1.00  0.00    -0.532 OA
ENDBRANCH  27  28
ENDBRANCH   8  22
BRANCH   5  31
HETATM   31  N1  UNL     1      50.615  45.920  58.086  1.00  0.00    -0.059 N 
ATOM     32  H13 UNL     1      49.811  45.676  57.507  1.00  0.00     0.275 HD
ATOM     33  H12 UNL     1      50.205  46.676  58.635  1.00  0.00     0.275 HD
ATOM     34  H11 UNL     1      51.383  46.267  57.511  1.00  0.00     0.275 HD
ENDBRANCH   5  31
TORSDOF 7
ENDMDL
MODEL 4
REMARK VINA RESULT: -6.685022109      2.344      3.546
REMARK  7 active torsions:
REMARK  status: ('A' for Active; 'I' for Inactive)
REMARK    1  A    between atoms: O1_2  and  C2_3 
REMARK    2  A    between atoms: C4_5  and  C5_6 
REMARK    3  A    between atoms: C8_10  and  N1_11 
REMARK    4  A    between atoms: N2_17  and  C10_18 
REMARK    5  A    between atoms: C15_23  and  N3_24 
REMARK    6  A    between atoms: C16_27  and  N4_28 
REMARK    7  A    between atoms: C18_32  and  O8_33 
ROOT
HETATM    1  C5  UNL     1      51.484  45.478  61.490  1.00  0.00     0.136 C 
HETATM    2  C6  UNL     1      49.944  45.837  61.346  1.00  0.00     0.111 C 
HETATM    3  C7  UNL     1      49.779  45.918  59.855  1.00  0.00     0.168 C 
HETATM    4  O2  UNL     1      49.371  46.956  59.382  1.00  0.00    -0.295 OA
HETATM    5  C8  UNL     1      50.136  44.709  59.080  1.00  0.00     0.343 C 
HETATM    6  C9  UNL     1      50.952  43.762  59.863  1.00  0.00     0.263 C 
HETATM    7  O3  UNL     1      51.254  42.672  59.329  1.00  0.00    -0.270 OA
HETATM    8  N2  UNL     1      51.414  44.047  61.220  1.00  0.00    -0.304 N 
ENDROOT
BRANCH   1   9
HETATM    9  C4  UNL     1      51.917  45.929  62.785  1.00  0.00     0.001 A 
HETATM   10  C3  UNL     1      50.988  46.173  63.792  1.00  0.00     0.051 A 
HETATM   11  C2  UNL     1      51.321  46.498  65.089  1.00  0.00     0.102 A 
HETATM   12  C18 UNL     1      52.659  46.594  65.423  1.00  0.00     0.103 A 
HETATM   13  C17 UNL     1      53.621  46.367  64.466  1.00  0.00     0.076 A 
HETATM   14  C16 UNL     1      53.234  46.038  63.148  1.00  0.00     0.114 A 
BRANCH  11  15
HETATM   15  O1  UNL     1      50.381  46.733  66.075  1.00  0.00    -0.353 OA
HETATM   16  C1  UNL     1      49.199  47.420  65.701  1.00  0.00     0.210 C 
ENDBRANCH  11  15
BRANCH  12  17
HETATM   17  O8  UNL     1      52.981  46.922  66.728  1.00  0.00    -0.353 OA
HETATM   18  C19 UNL     1      53.473  46.069  67.712  1.00  0.00     0.210 C 
ENDBRANCH  12  17
BRANCH  14  19
HETATM   19  N4  UNL     1      54.331  46.009  62.234  1.00  0.00    -0.115 N 
HETATM   20  O6  UNL     1      55.517  46.173  62.721  1.00  0.00    -0.532 OA
HETATM   21  O7  UNL     1      54.299  45.853  60.911  1.00  0.00    -0.532 OA
ENDBRANCH  14  19
ENDBRANCH   1   9
BRANCH   8  22
HETATM   22  C10 UNL     1      51.618  42.935  62.043  1.00  0.00     0.071 A 
HETATM   23  C11 UNL     1      50.549  42.423  62.806  1.00  0.00     0.032 A 
HETATM   24  C12 UNL     1      50.640  41.320  63.613  1.00  0.00     0.002 A 
HETATM   25  C13 UNL     1      51.824  40.638  63.719  1.00  0.00     0.003 A 
HETATM   26  C14 UNL     1      52.880  41.097  62.996  1.00  0.00     0.038 A 
HETATM   27  C15 UNL     1      52.783  42.244  62.159  1.00  0.00     0.129 A 
BRANCH  27  28
HETATM   28  N3  UNL     1      53.975  42.513  61.439  1.00  0.00    -0.113 N 
HETATM   29  O4  UNL     1      54.072  42.491  60.247  1.00  0.00    -0.532 OA
HETATM   30  O5  UNL     1      55.140  42.866  62.148  1.00  0.00    -0.532 OA
ENDBRANCH  27  28
ENDBRANCH   8  22
BRANCH   5  31
HETATM   31  N1  UNL     1      50.849  45.005  57.840  1.00  0.00    -0.059 N 
ATOM     32  H13 UNL     1      51.263  44.158  57.449  1.00  0.00     0.275 HD
ATOM     33  H12 UNL     1      50.194  45.233  57.091  1.00  0.00     0.275 HD
ATOM     34  H11 UNL     1      51.552  45.737  57.941  1.00  0.00     0.275 HD
ENDBRANCH   5  31
TORSDOF 7
ENDMDL
MODEL 5
REMARK VINA RESULT: -6.665895656      2.512      4.488
REMARK  7 active torsions:
REMARK  status: ('A' for Active; 'I' for Inactive)
REMARK    1  A    between atoms: O1_2  and  C2_3 
REMARK    2  A    between atoms: C4_5  and  C5_6 
REMARK    3  A    between atoms: C8_10  and  N1_11 
REMARK    4  A    between atoms: N2_17  and  C10_18 
REMARK    5  A    between atoms: C15_23  and  N3_24 
REMARK    6  A    between atoms: C16_27  and  N4_28 
REMARK    7  A    between atoms: C18_32  and  O8_33 
ROOT
HETATM    1  C5  UNL     1      52.267  45.819  62.914  1.00  0.00     0.136 C 
HETATM    2  C6  UNL     1      51.592  46.602  64.120  1.00  0.00     0.111 C 
HETATM    3  C7  UNL     1      50.411  47.248  63.452  1.00  0.00     0.168 C 
HETATM    4  O2  UNL     1      50.318  48.454  63.505  1.00  0.00    -0.295 OA
HETATM    5  C8  UNL     1      49.452  46.346  62.778  1.00  0.00     0.343 C 
HETATM    6  C9  UNL     1      50.015  45.001  62.547  1.00  0.00     0.263 C 
HETATM    7  O3  UNL     1      49.266  44.135  62.045  1.00  0.00    -0.270 OA
HETATM    8  N2  UNL     1      51.394  44.652  62.879  1.00  0.00    -0.304 N 
ENDROOT
BRANCH   1   9
HETATM    9  C4  UNL     1      53.659  45.648  63.231  1.00  0.00     0.001 A 
HETATM   10  C3  UNL     1      54.087  45.664  64.555  1.00  0.00     0.051 A 
HETATM   11  C2  UNL     1      55.379  45.397  64.954  1.00  0.00     0.102 A 
HETATM   12  C18 UNL     1      56.319  45.096  63.987  1.00  0.00     0.103 A 
HETATM   13  C17 UNL     1      55.953  45.070  62.660  1.00  0.00     0.076 A 
HETATM   14  C16 UNL     1      54.618  45.352  62.298  1.00  0.00     0.114 A 
BRANCH  11  15
HETATM   15  O1  UNL     1      55.781  45.414  66.277  1.00  0.00    -0.353 OA
HETATM   16  C1  UNL     1      54.829  45.028  67.254  1.00  0.00     0.210 C 
ENDBRANCH  11  15
BRANCH  12  17
HETATM   17  O8  UNL     1      57.613  44.831  64.399  1.00  0.00    -0.353 OA
HETATM   18  C19 UNL     1      58.692  45.712  64.400  1.00  0.00     0.210 C 
ENDBRANCH  12  17
BRANCH  14  19
HETATM   19  N4  UNL     1      54.434  45.463  60.886  1.00  0.00    -0.115 N 
HETATM   20  O6  UNL     1      55.488  45.398  60.140  1.00  0.00    -0.532 OA
HETATM   21  O7  UNL     1      53.299  45.649  60.213  1.00  0.00    -0.532 OA
ENDBRANCH  14  19
ENDBRANCH   1   9
BRANCH   8  22
HETATM   22  C10 UNL     1      51.627  43.308  63.190  1.00  0.00     0.071 A 
HETATM   23  C11 UNL     1      51.447  42.855  64.513  1.00  0.00     0.032 A 
HETATM   24  C12 UNL     1      51.616  41.555  64.909  1.00  0.00     0.002 A 
HETATM   25  C13 UNL     1      51.982  40.598  63.999  1.00  0.00     0.003 A 
HETATM   26  C14 UNL     1      52.163  40.993  62.711  1.00  0.00     0.038 A 
HETATM   27  C15 UNL     1      51.987  42.345  62.302  1.00  0.00     0.129 A 
BRANCH  27  28
HETATM   28  N3  UNL     1      52.154  42.532  60.907  1.00  0.00    -0.113 N 
HETATM   29  O4  UNL     1      51.304  42.930  60.164  1.00  0.00    -0.532 OA
HETATM   30  O5  UNL     1      53.409  42.271  60.324  1.00  0.00    -0.532 OA
ENDBRANCH  27  28
ENDBRANCH   8  22
BRANCH   5  31
HETATM   31  N1  UNL     1      48.971  46.862  61.499  1.00  0.00    -0.059 N 
ATOM     32  H13 UNL     1      48.416  46.159  61.011  1.00  0.00     0.275 HD
ATOM     33  H12 UNL     1      48.253  47.573  61.644  1.00  0.00     0.275 HD
ATOM     34  H11 UNL     1      49.716  47.217  60.900  1.00  0.00     0.275 HD
ENDBRANCH   5  31
TORSDOF 7
ENDMDL
