MODEL 1
REMARK VINA RESULT: -7.128082219      0.000      0.000
REMARK  10 active torsions:
REMARK  status: ('A' for Active; 'I' for Inactive)
REMARK    1  A    between atoms: O1_2  and  C2_3 
REMARK    2  A    between atoms: C8_9  and  N1_10 
REMARK    3  A    between atoms: C10_15  and  O2_16 
REMARK    4  A    between atoms: C17_26  and  C18_27 
REMARK    5  A    between atoms: C19_28  and  C20_29 
REMARK    6  A    between atoms: C20_29  and  O5_30 
REMARK    7  A    between atoms: C20_29  and  C22_32 
REMARK    8  A    between atoms: C22_32  and  C24_34 
REMARK    9  A    between atoms: C25_35  and  C27_37 
REMARK   10  A    between atoms: C28_38  and  C29_39 
ROOT
HETATM    1  C2  UNL     1      27.633   3.935  -7.281  1.00  0.00     0.068 A 
HETATM    2  C3  UNL     1      26.586   3.260  -6.713  1.00  0.00     0.038 A 
HETATM    3  C4  UNL     1      26.816   2.563  -5.550  1.00  0.00     0.021 A 
HETATM    4  C5  UNL     1      28.075   2.518  -4.928  1.00  0.00     0.048 A 
HETATM    5  C6  UNL     1      29.151   3.207  -5.507  1.00  0.00    -0.009 A 
HETATM    6  C7  UNL     1      28.873   3.895  -6.675  1.00  0.00     0.047 A 
HETATM    7  C8  UNL     1      30.518   3.191  -4.984  1.00  0.00     0.220 C 
HETATM    8  C9  UNL     1      30.969   4.309  -4.139  1.00  0.00     0.073 C 
HETATM    9  C10 UNL     1      30.753   5.698  -4.614  1.00  0.00     0.143 C 
HETATM   10  C11 UNL     1      31.370   6.600  -3.575  1.00  0.00     0.004 C 
HETATM   11  C12 UNL     1      30.777   7.583  -2.967  1.00  0.00    -0.002 C 
HETATM   12  C13 UNL     1      29.433   8.072  -3.095  1.00  0.00    -0.004 C 
HETATM   13  C14 UNL     1      28.320   7.552  -2.635  1.00  0.00    -0.017 C 
HETATM   14  C15 UNL     1      28.239   6.276  -1.838  1.00  0.00     0.138 C 
HETATM   15  C16 UNL     1      27.194   5.419  -2.404  1.00  0.00     0.264 C 
HETATM   16  O3  UNL     1      26.161   6.008  -2.871  1.00  0.00    -0.265 OA
HETATM   17  O4  UNL     1      27.214   4.046  -2.486  1.00  0.00    -0.285 OA
HETATM   18  C17 UNL     1      27.966   3.182  -1.673  1.00  0.00     0.303 C 
HETATM   19  O6  UNL     1      28.664   2.212  -2.475  1.00  0.00    -0.282 OA
HETATM   20  C33 UNL     1      28.157   1.743  -3.699  1.00  0.00     0.296 C 
HETATM   21  O7  UNL     1      27.708   0.534  -3.820  1.00  0.00    -0.259 OA
ENDROOT
BRANCH  18  22
HETATM   22  C18 UNL     1      27.094   2.447  -0.719  1.00  0.00     0.032 C 
HETATM   23  C19 UNL     1      26.616   2.848   0.414  1.00  0.00     0.006 C 
BRANCH  23  24
HETATM   24  C20 UNL     1      26.786   4.135   1.100  1.00  0.00     0.150 C 
BRANCH  24  25
HETATM   25  O5  UNL     1      25.796   4.264   2.094  1.00  0.00    -0.386 OA
HETATM   26  C21 UNL     1      24.569   4.638   1.616  1.00  0.00     0.202 C 
ENDBRANCH  24  25
BRANCH  24  27
HETATM   27  C22 UNL     1      28.107   4.189   1.873  1.00  0.00     0.037 C 
HETATM   28  C23 UNL     1      27.852   4.987   3.173  1.00  0.00     0.017 C 
BRANCH  27  29
HETATM   29  C24 UNL     1      29.138   4.888   1.152  1.00  0.00    -0.013 C 
HETATM   30  C25 UNL     1      30.326   4.399   0.837  1.00  0.00    -0.065 C 
HETATM   31  C26 UNL     1      31.274   5.304   0.069  1.00  0.00     0.048 C 
BRANCH  30  32
HETATM   32  C27 UNL     1      30.725   3.077   1.197  1.00  0.00     0.006 C 
HETATM   33  C28 UNL     1      31.109   2.054   0.524  1.00  0.00     0.001 C 
BRANCH  33  34
HETATM   34  C29 UNL     1      31.274   1.887  -0.881  1.00  0.00     0.002 C 
HETATM   35  C30 UNL     1      31.885   0.749  -1.307  1.00  0.00    -0.088 C 
HETATM   36  C31 UNL     1      32.356  -0.270  -0.317  1.00  0.00     0.043 C 
HETATM   37  C32 UNL     1      32.061   0.538  -2.760  1.00  0.00     0.043 C 
ENDBRANCH  33  34
ENDBRANCH  30  32
ENDBRANCH  27  29
ENDBRANCH  24  27
ENDBRANCH  23  24
ENDBRANCH  18  22
BRANCH   7  38
HETATM   38  N1  UNL     1      31.470   2.987  -6.095  1.00  0.00    -0.071 N 
ATOM     39  H13 UNL     1      31.230   2.177  -6.665  1.00  0.00     0.275 HD
ATOM     40  H12 UNL     1      31.381   3.704  -6.815  1.00  0.00     0.275 HD
ATOM     41  H11 UNL     1      32.419   2.930  -5.725  1.00  0.00     0.275 HD
ENDBRANCH   7  38
BRANCH   1  42
HETATM   42  O1  UNL     1      27.382   4.635  -8.452  1.00  0.00    -0.356 OA
HETATM   43  C1  UNL     1      28.372   5.425  -9.079  1.00  0.00     0.210 C 
ENDBRANCH   1  42
BRANCH   9  44
HETATM   44  O2  UNL     1      31.524   5.990  -5.773  1.00  0.00    -0.392 OA
ATOM     45  H2  UNL     1      31.424   5.324  -6.443  1.00  0.00     0.210 HD
ENDBRANCH   9  44
TORSDOF 10
ENDMDL
MODEL 2
REMARK VINA RESULT: -7.042931830      1.074      1.631
REMARK  10 active torsions:
REMARK  status: ('A' for Active; 'I' for Inactive)
REMARK    1  A    between atoms: O1_2  and  C2_3 
REMARK    2  A    between atoms: C8_9  and  N1_10 
REMARK    3  A    between atoms: C10_15  and  O2_16 
REMARK    4  A    between atoms: C17_26  and  C18_27 
REMARK    5  A    between atoms: C19_28  and  C20_29 
REMARK    6  A    between atoms: C20_29  and  O5_30 
REMARK    7  A    between atoms: C20_29  and  C22_32 
REMARK    8  A    between atoms: C22_32  and  C24_34 
REMARK    9  A    between atoms: C25_35  and  C27_37 
REMARK   10  A    between atoms: C28_38  and  C29_39 
ROOT
HETATM    1  C2  UNL     1      27.793   3.882  -7.237  1.00  0.00     0.068 A 
HETATM    2  C3  UNL     1      26.748   3.190  -6.685  1.00  0.00     0.038 A 
HETATM    3  C4  UNL     1      26.967   2.506  -5.514  1.00  0.00     0.021 A 
HETATM    4  C5  UNL     1      28.213   2.490  -4.865  1.00  0.00     0.048 A 
HETATM    5  C6  UNL     1      29.287   3.196  -5.426  1.00  0.00    -0.009 A 
HETATM    6  C7  UNL     1      29.020   3.870  -6.604  1.00  0.00     0.047 A 
HETATM    7  C8  UNL     1      30.643   3.210  -4.874  1.00  0.00     0.220 C 
HETATM    8  C9  UNL     1      31.054   4.342  -4.028  1.00  0.00     0.073 C 
HETATM    9  C10 UNL     1      30.821   5.724  -4.517  1.00  0.00     0.143 C 
HETATM   10  C11 UNL     1      31.399   6.644  -3.472  1.00  0.00     0.004 C 
HETATM   11  C12 UNL     1      30.774   7.620  -2.883  1.00  0.00    -0.002 C 
HETATM   12  C13 UNL     1      29.424   8.081  -3.043  1.00  0.00    -0.004 C 
HETATM   13  C14 UNL     1      28.312   7.543  -2.602  1.00  0.00    -0.017 C 
HETATM   14  C15 UNL     1      28.239   6.271  -1.799  1.00  0.00     0.138 C 
HETATM   15  C16 UNL     1      27.223   5.390  -2.381  1.00  0.00     0.264 C 
HETATM   16  O3  UNL     1      26.189   5.956  -2.873  1.00  0.00    -0.265 OA
HETATM   17  O4  UNL     1      27.271   4.017  -2.452  1.00  0.00    -0.285 OA
HETATM   18  C17 UNL     1      28.023   3.174  -1.617  1.00  0.00     0.303 C 
HETATM   19  O6  UNL     1      28.756   2.212  -2.398  1.00  0.00    -0.282 OA
HETATM   20  C33 UNL     1      28.284   1.724  -3.628  1.00  0.00     0.296 C 
HETATM   21  O7  UNL     1      27.861   0.506  -3.750  1.00  0.00    -0.259 OA
ENDROOT
BRANCH  18  22
HETATM   22  C18 UNL     1      27.144   2.428  -0.677  1.00  0.00     0.032 C 
HETATM   23  C19 UNL     1      26.645   2.823   0.449  1.00  0.00     0.006 C 
BRANCH  23  24
HETATM   24  C20 UNL     1      26.789   4.112   1.137  1.00  0.00     0.150 C 
BRANCH  24  25
HETATM   25  O5  UNL     1      25.765   4.242   2.096  1.00  0.00    -0.386 OA
HETATM   26  C21 UNL     1      24.559   4.630   1.577  1.00  0.00     0.202 C 
ENDBRANCH  24  25
BRANCH  24  27
HETATM   27  C22 UNL     1      28.082   4.170   1.956  1.00  0.00     0.037 C 
HETATM   28  C23 UNL     1      27.875   5.214   3.077  1.00  0.00     0.017 C 
BRANCH  27  29
HETATM   29  C24 UNL     1      29.208   4.614   1.177  1.00  0.00    -0.013 C 
HETATM   30  C25 UNL     1      30.267   3.886   0.867  1.00  0.00    -0.065 C 
HETATM   31  C26 UNL     1      31.350   4.545   0.030  1.00  0.00     0.048 C 
BRANCH  30  32
HETATM   32  C27 UNL     1      30.412   2.531   1.294  1.00  0.00     0.006 C 
HETATM   33  C28 UNL     1      31.108   1.963   2.210  1.00  0.00     0.001 C 
BRANCH  33  34
HETATM   34  C29 UNL     1      32.017   2.520   3.154  1.00  0.00     0.002 C 
HETATM   35  C30 UNL     1      33.333   2.547   2.812  1.00  0.00    -0.088 C 
HETATM   36  C31 UNL     1      33.781   2.005   1.490  1.00  0.00     0.043 C 
HETATM   37  C32 UNL     1      34.303   3.131   3.764  1.00  0.00     0.043 C 
ENDBRANCH  33  34
ENDBRANCH  30  32
ENDBRANCH  27  29
ENDBRANCH  24  27
ENDBRANCH  23  24
ENDBRANCH  18  22
BRANCH   7  38
HETATM   38  N1  UNL     1      31.622   3.018  -5.963  1.00  0.00    -0.071 N 
ATOM     39  H13 UNL     1      32.109   2.124  -5.891  1.00  0.00     0.275 HD
ATOM     40  H12 UNL     1      31.170   2.865  -6.865  1.00  0.00     0.275 HD
ATOM     41  H11 UNL     1      32.268   3.807  -5.985  1.00  0.00     0.275 HD
ENDBRANCH   7  38
BRANCH   1  42
HETATM   42  O1  UNL     1      27.553   4.569  -8.417  1.00  0.00    -0.356 OA
HETATM   43  C1  UNL     1      28.555   5.337  -9.054  1.00  0.00     0.210 C 
ENDBRANCH   1  42
BRANCH   9  44
HETATM   44  O2  UNL     1      31.611   6.023  -5.662  1.00  0.00    -0.392 OA
ATOM     45  H2  UNL     1      31.889   6.931  -5.674  1.00  0.00     0.210 HD
ENDBRANCH   9  44
TORSDOF 10
ENDMDL
MODEL 3
REMARK VINA RESULT: -6.899781523      1.010      1.117
REMARK  10 active torsions:
REMARK  status: ('A' for Active; 'I' for Inactive)
REMARK    1  A    between atoms: O1_2  and  C2_3 
REMARK    2  A    between atoms: C8_9  and  N1_10 
REMARK    3  A    between atoms: C10_15  and  O2_16 
REMARK    4  A    between atoms: C17_26  and  C18_27 
REMARK    5  A    between atoms: C19_28  and  C20_29 
REMARK    6  A    between atoms: C20_29  and  O5_30 
REMARK    7  A    between atoms: C20_29  and  C22_32 
REMARK    8  A    between atoms: C22_32  and  C24_34 
REMARK    9  A    between atoms: C25_35  and  C27_37 
REMARK   10  A    between atoms: C28_38  and  C29_39 
ROOT
HETATM    1  C2  UNL     1      28.058   3.947  -7.061  1.00  0.00     0.068 A 
HETATM    2  C3  UNL     1      27.225   3.091  -6.391  1.00  0.00     0.038 A 
HETATM    3  C4  UNL     1      27.677   2.527  -5.221  1.00  0.00     0.021 A 
HETATM    4  C5  UNL     1      28.951   2.794  -4.692  1.00  0.00     0.048 A 
HETATM    5  C6  UNL     1      29.808   3.669  -5.375  1.00  0.00    -0.009 A 
HETATM    6  C7  UNL     1      29.311   4.213  -6.546  1.00  0.00     0.047 A 
HETATM    7  C8  UNL     1      31.174   3.981  -4.953  1.00  0.00     0.220 C 
HETATM    8  C9  UNL     1      31.417   5.216  -4.189  1.00  0.00     0.073 C 
HETATM    9  C10 UNL     1      30.868   6.496  -4.703  1.00  0.00     0.143 C 
HETATM   10  C11 UNL     1      31.333   7.567  -3.748  1.00  0.00     0.004 C 
HETATM   11  C12 UNL     1      30.575   8.428  -3.138  1.00  0.00    -0.002 C 
HETATM   12  C13 UNL     1      29.151   8.603  -3.187  1.00  0.00    -0.004 C 
HETATM   13  C14 UNL     1      28.212   7.878  -2.626  1.00  0.00    -0.017 C 
HETATM   14  C15 UNL     1      28.467   6.662  -1.775  1.00  0.00     0.138 C 
HETATM   15  C16 UNL     1      27.606   5.567  -2.229  1.00  0.00     0.264 C 
HETATM   16  O3  UNL     1      26.440   5.888  -2.642  1.00  0.00    -0.265 OA
HETATM   17  O4  UNL     1      27.925   4.229  -2.257  1.00  0.00    -0.285 OA
HETATM   18  C17 UNL     1      28.900   3.598  -1.466  1.00  0.00     0.303 C 
HETATM   19  O6  UNL     1      29.745   2.761  -2.278  1.00  0.00    -0.282 OA
HETATM   20  C33 UNL     1      29.280   2.125  -3.441  1.00  0.00     0.296 C 
HETATM   21  O7  UNL     1      29.104   0.842  -3.481  1.00  0.00    -0.259 OA
ENDROOT
BRANCH  18  22
HETATM   22  C18 UNL     1      28.274   2.743  -0.422  1.00  0.00     0.032 C 
HETATM   23  C19 UNL     1      27.720   3.101   0.691  1.00  0.00     0.006 C 
BRANCH  23  24
HETATM   24  C20 UNL     1      27.541   4.442   1.259  1.00  0.00     0.150 C 
BRANCH  24  25
HETATM   25  O5  UNL     1      26.414   4.440   2.105  1.00  0.00    -0.386 OA
HETATM   26  C21 UNL     1      25.251   4.067   1.487  1.00  0.00     0.202 C 
ENDBRANCH  24  25
BRANCH  24  27
HETATM   27  C22 UNL     1      28.704   4.822   2.180  1.00  0.00     0.037 C 
HETATM   28  C23 UNL     1      28.230   5.997   3.066  1.00  0.00     0.017 C 
BRANCH  27  29
HETATM   29  C24 UNL     1      29.854   5.287   1.451  1.00  0.00    -0.013 C 
HETATM   30  C25 UNL     1      31.074   4.783   1.529  1.00  0.00    -0.065 C 
HETATM   31  C26 UNL     1      32.152   5.422   0.672  1.00  0.00     0.048 C 
BRANCH  30  32
HETATM   32  C27 UNL     1      31.389   3.682   2.382  1.00  0.00     0.006 C 
HETATM   33  C28 UNL     1      31.505   2.418   2.189  1.00  0.00     0.001 C 
BRANCH  33  34
HETATM   34  C29 UNL     1      31.350   1.652   0.999  1.00  0.00     0.002 C 
HETATM   35  C30 UNL     1      32.481   1.184   0.407  1.00  0.00    -0.088 C 
HETATM   36  C31 UNL     1      33.822   1.478   1.002  1.00  0.00     0.043 C 
HETATM   37  C32 UNL     1      32.355   0.373  -0.824  1.00  0.00     0.043 C 
ENDBRANCH  33  34
ENDBRANCH  30  32
ENDBRANCH  27  29
ENDBRANCH  24  27
ENDBRANCH  23  24
ENDBRANCH  18  22
BRANCH   7  38
HETATM   38  N1  UNL     1      32.077   3.930  -6.121  1.00  0.00    -0.071 N 
ATOM     39  H13 UNL     1      32.122   2.998  -6.533  1.00  0.00     0.275 HD
ATOM     40  H12 UNL     1      31.694   4.427  -6.926  1.00  0.00     0.275 HD
ATOM     41  H11 UNL     1      32.998   4.279  -5.856  1.00  0.00     0.275 HD
ENDBRANCH   7  38
BRANCH   1  42
HETATM   42  O1  UNL     1      27.585   4.509  -8.237  1.00  0.00    -0.356 OA
HETATM   43  C1  UNL     1      28.406   5.301  -9.073  1.00  0.00     0.210 C 
ENDBRANCH   1  42
BRANCH   9  44
HETATM   44  O2  UNL     1      31.481   6.885  -5.925  1.00  0.00    -0.392 OA
ATOM     45  H2  UNL     1      31.135   7.708  -6.251  1.00  0.00     0.210 HD
ENDBRANCH   9  44
TORSDOF 10
ENDMDL
MODEL 4
REMARK VINA RESULT: -6.885459125      2.235      3.333
REMARK  10 active torsions:
REMARK  status: ('A' for Active; 'I' for Inactive)
REMARK    1  A    between atoms: O1_2  and  C2_3 
REMARK    2  A    between atoms: C8_9  and  N1_10 
REMARK    3  A    between atoms: C10_15  and  O2_16 
REMARK    4  A    between atoms: C17_26  and  C18_27 
REMARK    5  A    between atoms: C19_28  and  C20_29 
REMARK    6  A    between atoms: C20_29  and  O5_30 
REMARK    7  A    between atoms: C20_29  and  C22_32 
REMARK    8  A    between atoms: C22_32  and  C24_34 
REMARK    9  A    between atoms: C25_35  and  C27_37 
REMARK   10  A    between atoms: C28_38  and  C29_39 
ROOT
HETATM    1  C2  UNL     1      28.099   3.225  -6.290  1.00  0.00     0.068 A 
HETATM    2  C3  UNL     1      27.178   4.067  -5.726  1.00  0.00     0.038 A 
HETATM    3  C4  UNL     1      26.755   3.805  -4.445  1.00  0.00     0.021 A 
HETATM    4  C5  UNL     1      27.228   2.713  -3.697  1.00  0.00     0.048 A 
HETATM    5  C6  UNL     1      28.170   1.847  -4.270  1.00  0.00    -0.009 A 
HETATM    6  C7  UNL     1      28.568   2.150  -5.560  1.00  0.00     0.047 A 
HETATM    7  C8  UNL     1      28.695   0.649  -3.613  1.00  0.00     0.220 C 
HETATM    8  C9  UNL     1      29.997   0.726  -2.928  1.00  0.00     0.073 C 
HETATM    9  C10 UNL     1      31.153   1.309  -3.652  1.00  0.00     0.143 C 
HETATM   10  C11 UNL     1      32.335   1.191  -2.723  1.00  0.00     0.004 C 
HETATM   11  C12 UNL     1      33.118   2.160  -2.356  1.00  0.00    -0.002 C 
HETATM   12  C13 UNL     1      33.089   3.553  -2.703  1.00  0.00    -0.004 C 
HETATM   13  C14 UNL     1      32.277   4.491  -2.280  1.00  0.00    -0.017 C 
HETATM   14  C15 UNL     1      31.162   4.272  -1.290  1.00  0.00     0.138 C 
HETATM   15  C16 UNL     1      29.932   4.877  -1.808  1.00  0.00     0.264 C 
HETATM   16  O3  UNL     1      30.062   5.961  -2.472  1.00  0.00    -0.265 OA
HETATM   17  O4  UNL     1      28.652   4.396  -1.653  1.00  0.00    -0.285 OA
HETATM   18  C17 UNL     1      28.213   3.539  -0.631  1.00  0.00     0.303 C 
HETATM   19  O6  UNL     1      27.454   2.446  -1.180  1.00  0.00    -0.282 OA
HETATM   20  C33 UNL     1      26.689   2.574  -2.352  1.00  0.00     0.296 C 
HETATM   21  O7  UNL     1      25.394   2.577  -2.312  1.00  0.00    -0.259 OA
ENDROOT
BRANCH  18  22
HETATM   22  C18 UNL     1      27.345   4.259   0.339  1.00  0.00     0.032 C 
HETATM   23  C19 UNL     1      27.650   5.242   1.122  1.00  0.00     0.006 C 
BRANCH  23  24
HETATM   24  C20 UNL     1      28.930   5.940   1.294  1.00  0.00     0.150 C 
BRANCH  24  25
HETATM   25  O5  UNL     1      28.714   7.329   1.210  1.00  0.00    -0.386 OA
HETATM   26  C21 UNL     1      29.406   7.943   0.201  1.00  0.00     0.202 C 
ENDBRANCH  24  25
BRANCH  24  27
HETATM   27  C22 UNL     1      29.498   5.731   2.701  1.00  0.00     0.037 C 
HETATM   28  C23 UNL     1      28.973   6.881   3.590  1.00  0.00     0.017 C 
BRANCH  27  29
HETATM   29  C24 UNL     1      30.935   5.806   2.730  1.00  0.00    -0.013 C 
HETATM   30  C25 UNL     1      31.765   4.792   2.556  1.00  0.00    -0.065 C 
HETATM   31  C26 UNL     1      33.254   5.085   2.624  1.00  0.00     0.048 C 
BRANCH  30  32
HETATM   32  C27 UNL     1      31.303   3.463   2.314  1.00  0.00     0.006 C 
HETATM   33  C28 UNL     1      31.865   2.397   1.872  1.00  0.00     0.001 C 
BRANCH  33  34
HETATM   34  C29 UNL     1      33.207   2.172   1.451  1.00  0.00     0.002 C 
HETATM   35  C30 UNL     1      33.496   0.958   0.911  1.00  0.00    -0.088 C 
HETATM   36  C31 UNL     1      32.427  -0.082   0.776  1.00  0.00     0.043 C 
HETATM   37  C32 UNL     1      34.877   0.695   0.452  1.00  0.00     0.043 C 
ENDBRANCH  33  34
ENDBRANCH  30  32
ENDBRANCH  27  29
ENDBRANCH  24  27
ENDBRANCH  23  24
ENDBRANCH  18  22
BRANCH   7  38
HETATM   38  N1  UNL     1      28.699  -0.478  -4.568  1.00  0.00    -0.071 N 
ATOM     39  H13 UNL     1      28.060  -1.222  -4.289  1.00  0.00     0.275 HD
ATOM     40  H12 UNL     1      28.258  -0.232  -5.455  1.00  0.00     0.275 HD
ATOM     41  H11 UNL     1      29.653  -0.816  -4.693  1.00  0.00     0.275 HD
ENDBRANCH   7  38
BRANCH   1  42
HETATM   42  O1  UNL     1      28.516   3.506  -7.582  1.00  0.00    -0.356 OA
HETATM   43  C1  UNL     1      28.304   4.770  -8.178  1.00  0.00     0.210 C 
ENDBRANCH   1  42
BRANCH   9  44
HETATM   44  O2  UNL     1      31.548   0.506  -4.758  1.00  0.00    -0.392 OA
ATOM     45  H2  UNL     1      31.452   0.966  -5.583  1.00  0.00     0.210 HD
ENDBRANCH   9  44
TORSDOF 10
ENDMDL
MODEL 5
REMARK VINA RESULT: -6.823717744      1.077      1.746
REMARK  10 active torsions:
REMARK  status: ('A' for Active; 'I' for Inactive)
REMARK    1  A    between atoms: O1_2  and  C2_3 
REMARK    2  A    between atoms: C8_9  and  N1_10 
REMARK    3  A    between atoms: C10_15  and  O2_16 
REMARK    4  A    between atoms: C17_26  and  C18_27 
REMARK    5  A    between atoms: C19_28  and  C20_29 
REMARK    6  A    between atoms: C20_29  and  O5_30 
REMARK    7  A    between atoms: C20_29  and  C22_32 
REMARK    8  A    between atoms: C22_32  and  C24_34 
REMARK    9  A    between atoms: C25_35  and  C27_37 
REMARK   10  A    between atoms: C28_38  and  C29_39 
ROOT
HETATM    1  C2  UNL     1      27.876   4.099  -7.491  1.00  0.00     0.068 A 
HETATM    2  C3  UNL     1      26.643   3.639  -7.111  1.00  0.00     0.038 A 
HETATM    3  C4  UNL     1      26.567   2.817  -6.011  1.00  0.00     0.021 A 
HETATM    4  C5  UNL     1      27.697   2.434  -5.269  1.00  0.00     0.048 A 
HETATM    5  C6  UNL     1      28.961   2.901  -5.655  1.00  0.00    -0.009 A 
HETATM    6  C7  UNL     1      28.990   3.726  -6.766  1.00  0.00     0.047 A 
HETATM    7  C8  UNL     1      30.215   2.530  -4.997  1.00  0.00     0.220 C 
HETATM    8  C9  UNL     1      30.789   3.443  -3.995  1.00  0.00     0.073 C 
HETATM    9  C10 UNL     1      30.944   4.879  -4.340  1.00  0.00     0.143 C 
HETATM   10  C11 UNL     1      31.607   5.528  -3.152  1.00  0.00     0.004 C 
HETATM   11  C12 UNL     1      31.172   6.569  -2.508  1.00  0.00    -0.002 C 
HETATM   12  C13 UNL     1      29.994   7.362  -2.723  1.00  0.00    -0.004 C 
HETATM   13  C14 UNL     1      28.746   7.077  -2.440  1.00  0.00    -0.017 C 
HETATM   14  C15 UNL     1      28.289   5.794  -1.796  1.00  0.00     0.138 C 
HETATM   15  C16 UNL     1      27.161   5.248  -2.557  1.00  0.00     0.264 C 
HETATM   16  O3  UNL     1      26.349   6.094  -3.064  1.00  0.00    -0.265 OA
HETATM   17  O4  UNL     1      26.890   3.918  -2.782  1.00  0.00    -0.285 OA
HETATM   18  C17 UNL     1      27.326   2.843  -1.991  1.00  0.00     0.303 C 
HETATM   19  O6  UNL     1      27.891   1.806  -2.814  1.00  0.00    -0.282 OA
HETATM   20  C33 UNL     1      27.452   1.565  -4.127  1.00  0.00     0.296 C 
HETATM   21  O7  UNL     1      26.768   0.505  -4.423  1.00  0.00    -0.259 OA
ENDROOT
BRANCH  18  22
HETATM   22  C18 UNL     1      26.201   2.254  -1.217  1.00  0.00     0.032 C 
HETATM   23  C19 UNL     1      25.651   2.690  -0.131  1.00  0.00     0.006 C 
BRANCH  23  24
HETATM   24  C20 UNL     1      25.964   3.884   0.664  1.00  0.00     0.150 C 
BRANCH  24  25
HETATM   25  O5  UNL     1      25.263   3.825   1.884  1.00  0.00    -0.386 OA
HETATM   26  C21 UNL     1      24.183   4.663   1.951  1.00  0.00     0.202 C 
ENDBRANCH  24  25
BRANCH  24  27
HETATM   27  C22 UNL     1      27.438   3.913   1.077  1.00  0.00     0.037 C 
HETATM   28  C23 UNL     1      27.800   2.505   1.605  1.00  0.00     0.017 C 
BRANCH  27  29
HETATM   29  C24 UNL     1      27.691   4.837   2.151  1.00  0.00    -0.013 C 
HETATM   30  C25 UNL     1      28.717   5.668   2.228  1.00  0.00    -0.065 C 
HETATM   31  C26 UNL     1      28.799   6.566   3.450  1.00  0.00     0.048 C 
BRANCH  30  32
HETATM   32  C27 UNL     1      29.722   5.734   1.216  1.00  0.00     0.006 C 
HETATM   33  C28 UNL     1      30.772   5.039   0.967  1.00  0.00     0.001 C 
BRANCH  33  34
HETATM   34  C29 UNL     1      31.314   3.914   1.650  1.00  0.00     0.002 C 
HETATM   35  C30 UNL     1      31.375   2.739   0.968  1.00  0.00    -0.088 C 
HETATM   36  C31 UNL     1      30.882   2.660  -0.443  1.00  0.00     0.043 C 
HETATM   37  C32 UNL     1      31.945   1.554   1.644  1.00  0.00     0.043 C 
ENDBRANCH  33  34
ENDBRANCH  30  32
ENDBRANCH  27  29
ENDBRANCH  24  27
ENDBRANCH  23  24
ENDBRANCH  18  22
BRANCH   7  38
HETATM   38  N1  UNL     1      31.232   2.203  -6.017  1.00  0.00    -0.071 N 
ATOM     39  H13 UNL     1      32.113   2.689  -5.852  1.00  0.00     0.275 HD
ATOM     40  H12 UNL     1      31.574   1.246  -5.926  1.00  0.00     0.275 HD
ATOM     41  H11 UNL     1      30.856   2.391  -6.946  1.00  0.00     0.275 HD
ENDBRANCH   7  38
BRANCH   1  42
HETATM   42  O1  UNL     1      27.933   4.929  -8.601  1.00  0.00    -0.356 OA
HETATM   43  C1  UNL     1      28.998   5.836  -8.803  1.00  0.00     0.210 C 
ENDBRANCH   1  42
BRANCH   9  44
HETATM   44  O2  UNL     1      31.900   5.077  -5.374  1.00  0.00    -0.392 OA
ATOM     45  H2  UNL     1      32.141   5.992  -5.464  1.00  0.00     0.210 HD
ENDBRANCH   9  44
TORSDOF 10
ENDMDL
