MODEL 1
REMARK VINA RESULT: -3.062585460      0.000      0.000
REMARK  4 active torsions:
REMARK  status: ('A' for Active; 'I' for Inactive)
REMARK    1  A    between atoms: C2_2  and  O1_4 
REMARK    2  A    between atoms: C2_2  and  C4_6 
REMARK    3  A    between atoms: C5_7  and  C6_8 
REMARK    4  A    between atoms: C6_8  and  O2_9 
ROOT
HETATM    1  C4  UNL     1     -67.671  19.367 -16.317  1.00  0.00    -0.066 C 
HETATM    2  C5  UNL     1     -68.347  20.157 -15.681  1.00  0.00    -0.065 C 
ENDROOT
BRANCH   1   3
HETATM    3  C2  UNL     1     -66.851  18.439 -17.096  1.00  0.00     0.114 C 
HETATM    4  C1  UNL     1     -67.109  18.582 -18.564  1.00  0.00     0.060 C 
HETATM    5  C3  UNL     1     -67.113  17.036 -16.584  1.00  0.00     0.060 C 
BRANCH   3   6
HETATM    6  O1  UNL     1     -65.479  18.678 -16.874  1.00  0.00    -0.378 OA
ATOM      7  H1  UNL     1     -65.294  19.570 -17.144  1.00  0.00     0.211 HD
ENDBRANCH   3   6
ENDBRANCH   1   3
BRANCH   2   8
HETATM    8  C6  UNL     1     -69.144  21.126 -14.924  1.00  0.00     0.121 A 
HETATM    9  C7  UNL     1     -68.672  22.527 -14.976  1.00  0.00     0.055 A 
HETATM   10  C8  UNL     1     -68.472  21.783 -13.703  1.00  0.00     0.055 A 
BRANCH   8  11
HETATM   11  O2  UNL     1     -70.505  20.859 -14.782  1.00  0.00    -0.378 OA
ATOM     12  H2  UNL     1     -71.024  21.493 -14.301  1.00  0.00     0.211 HD
ENDBRANCH   8  11
ENDBRANCH   2   8
TORSDOF 4
ENDMDL
MODEL 2
REMARK VINA RESULT: -2.938500294      0.862      1.049
REMARK  4 active torsions:
REMARK  status: ('A' for Active; 'I' for Inactive)
REMARK    1  A    between atoms: C2_2  and  O1_4 
REMARK    2  A    between atoms: C2_2  and  C4_6 
REMARK    3  A    between atoms: C5_7  and  C6_8 
REMARK    4  A    between atoms: C6_8  and  O2_9 
ROOT
HETATM    1  C4  UNL     1     -67.615  19.340 -16.143  1.00  0.00    -0.066 C 
HETATM    2  C5  UNL     1     -68.182  20.147 -15.426  1.00  0.00    -0.065 C 
ENDROOT
BRANCH   1   3
HETATM    3  C2  UNL     1     -66.912  18.385 -16.999  1.00  0.00     0.114 C 
HETATM    4  C1  UNL     1     -67.201  18.634 -18.448  1.00  0.00     0.060 C 
HETATM    5  C3  UNL     1     -67.289  16.986 -16.553  1.00  0.00     0.060 C 
BRANCH   3   6
HETATM    6  O1  UNL     1     -65.518  18.483 -16.816  1.00  0.00    -0.378 OA
ATOM      7  H1  UNL     1     -65.113  17.754 -17.272  1.00  0.00     0.211 HD
ENDBRANCH   3   6
ENDBRANCH   1   3
BRANCH   2   8
HETATM    8  C6  UNL     1     -68.843  21.122 -14.553  1.00  0.00     0.121 A 
HETATM    9  C7  UNL     1     -70.040  21.781 -15.118  1.00  0.00     0.055 A 
HETATM   10  C8  UNL     1     -68.802  22.596 -14.996  1.00  0.00     0.055 A 
BRANCH   8  11
HETATM   11  O2  UNL     1     -68.752  20.911 -13.179  1.00  0.00    -0.378 OA
ATOM     12  H2  UNL     1     -68.329  21.586 -12.663  1.00  0.00     0.211 HD
ENDBRANCH   8  11
ENDBRANCH   2   8
TORSDOF 4
ENDMDL
MODEL 3
REMARK VINA RESULT: -2.011403729      0.915      4.847
REMARK  4 active torsions:
REMARK  status: ('A' for Active; 'I' for Inactive)
REMARK    1  A    between atoms: C2_2  and  O1_4 
REMARK    2  A    between atoms: C2_2  and  C4_6 
REMARK    3  A    between atoms: C5_7  and  C6_8 
REMARK    4  A    between atoms: C6_8  and  O2_9 
ROOT
HETATM    1  C4  UNL     1     -68.166  20.430 -15.409  1.00  0.00    -0.066 C 
HETATM    2  C5  UNL     1     -67.476  19.669 -16.064  1.00  0.00    -0.065 C 
ENDROOT
BRANCH   1   3
HETATM    3  C2  UNL     1     -68.976  21.360 -14.622  1.00  0.00     0.114 C 
HETATM    4  C1  UNL     1     -70.422  21.287 -15.007  1.00  0.00     0.060 C 
HETATM    5  C3  UNL     1     -68.390  22.749 -14.785  1.00  0.00     0.060 C 
BRANCH   3   6
HETATM    6  O1  UNL     1     -68.882  21.063 -13.246  1.00  0.00    -0.378 OA
ATOM      7  H1  UNL     1     -68.369  20.268 -13.156  1.00  0.00     0.211 HD
ENDBRANCH   3   6
ENDBRANCH   1   3
BRANCH   2   8
HETATM    8  C6  UNL     1     -66.630  18.773 -16.859  1.00  0.00     0.121 A 
HETATM    9  C7  UNL     1     -67.255  18.215 -18.078  1.00  0.00     0.055 A 
HETATM   10  C8  UNL     1     -67.052  17.293 -16.929  1.00  0.00     0.055 A 
BRANCH   8  11
HETATM   11  O2  UNL     1     -65.256  18.999 -16.827  1.00  0.00    -0.378 OA
ATOM     12  H2  UNL     1     -64.694  18.310 -17.162  1.00  0.00     0.211 HD
ENDBRANCH   8  11
ENDBRANCH   2   8
TORSDOF 4
ENDMDL
MODEL 4
REMARK VINA RESULT: -1.655421602      1.022      4.852
REMARK  4 active torsions:
REMARK  status: ('A' for Active; 'I' for Inactive)
REMARK    1  A    between atoms: C2_2  and  O1_4 
REMARK    2  A    between atoms: C2_2  and  C4_6 
REMARK    3  A    between atoms: C5_7  and  C6_8 
REMARK    4  A    between atoms: C6_8  and  O2_9 
ROOT
HETATM    1  C4  UNL     1     -68.192  20.560 -15.481  1.00  0.00    -0.066 C 
HETATM    2  C5  UNL     1     -67.501  19.774 -16.106  1.00  0.00    -0.065 C 
ENDROOT
BRANCH   1   3
HETATM    3  C2  UNL     1     -69.001  21.520 -14.730  1.00  0.00     0.114 C 
HETATM    4  C1  UNL     1     -68.596  21.565 -13.288  1.00  0.00     0.060 C 
HETATM    5  C3  UNL     1     -70.460  21.159 -14.923  1.00  0.00     0.060 C 
BRANCH   3   6
HETATM    6  O1  UNL     1     -68.853  22.818 -15.259  1.00  0.00    -0.378 OA
ATOM      7  H1  UNL     1     -69.476  22.914 -15.970  1.00  0.00     0.211 HD
ENDBRANCH   3   6
ENDBRANCH   1   3
BRANCH   2   8
HETATM    8  C6  UNL     1     -66.657  18.848 -16.866  1.00  0.00     0.121 A 
HETATM    9  C7  UNL     1     -67.265  18.281 -18.090  1.00  0.00     0.055 A 
HETATM   10  C8  UNL     1     -67.107  17.375 -16.920  1.00  0.00     0.055 A 
BRANCH   8  11
HETATM   11  O2  UNL     1     -65.279  19.047 -16.807  1.00  0.00    -0.378 OA
ATOM     12  H2  UNL     1     -64.734  18.475 -17.334  1.00  0.00     0.211 HD
ENDBRANCH   8  11
ENDBRANCH   2   8
TORSDOF 4
ENDMDL
MODEL 5
REMARK VINA RESULT: -1.629634472      0.469      4.829
REMARK  4 active torsions:
REMARK  status: ('A' for Active; 'I' for Inactive)
REMARK    1  A    between atoms: C2_2  and  O1_4 
REMARK    2  A    between atoms: C2_2  and  C4_6 
REMARK    3  A    between atoms: C5_7  and  C6_8 
REMARK    4  A    between atoms: C6_8  and  O2_9 
ROOT
HETATM    1  C4  UNL     1     -68.231  20.430 -15.472  1.00  0.00    -0.066 C 
HETATM    2  C5  UNL     1     -67.510  19.689 -16.118  1.00  0.00    -0.065 C 
ENDROOT
BRANCH   1   3
HETATM    3  C2  UNL     1     -69.078  21.337 -14.698  1.00  0.00     0.114 C 
HETATM    4  C1  UNL     1     -68.978  22.743 -15.204  1.00  0.00     0.060 C 
HETATM    5  C3  UNL     1     -68.695  21.206 -13.237  1.00  0.00     0.060 C 
BRANCH   3   6
HETATM    6  O1  UNL     1     -70.430  20.946 -14.776  1.00  0.00    -0.378 OA
ATOM      7  H1  UNL     1     -70.925  21.490 -14.175  1.00  0.00     0.211 HD
ENDBRANCH   3   6
ENDBRANCH   1   3
BRANCH   2   8
HETATM    8  C6  UNL     1     -66.630  18.819 -16.904  1.00  0.00     0.121 A 
HETATM    9  C7  UNL     1     -67.216  18.264 -18.143  1.00  0.00     0.055 A 
HETATM   10  C8  UNL     1     -67.022  17.332 -17.000  1.00  0.00     0.055 A 
BRANCH   8  11
HETATM   11  O2  UNL     1     -65.261  19.070 -16.838  1.00  0.00    -0.378 OA
ATOM     12  H2  UNL     1     -64.982  19.829 -16.340  1.00  0.00     0.211 HD
ENDBRANCH   8  11
ENDBRANCH   2   8
TORSDOF 4
ENDMDL
