MODEL 1
REMARK VINA RESULT: -4.253202085      0.000      0.000
REMARK  2 active torsions:
REMARK  status: ('A' for Active; 'I' for Inactive)
REMARK    1  A    between atoms: C2_2  and  O1_3 
REMARK    2  A    between atoms: C3_5  and  O2_6 
ROOT
HETATM    1  C1  UNL     1     -67.629  18.377 -18.355  1.00  0.00     0.049 C 
HETATM    2  C2  UNL     1     -67.177  18.141 -16.948  1.00  0.00     0.084 C 
HETATM    3  C3  UNL     1     -66.402  19.327 -16.449  1.00  0.00     0.152 C 
HETATM    4  C4  UNL     1     -67.339  20.287 -15.771  1.00  0.00     0.039 C 
HETATM    5  C5  UNL     1     -68.298  19.529 -14.893  1.00  0.00    -0.011 C 
HETATM    6  C6  UNL     1     -69.309  18.884 -15.853  1.00  0.00     0.012 C 
HETATM    7  C7  UNL     1     -68.307  17.764 -16.016  1.00  0.00     0.023 C 
HETATM    8  C8  UNL     1     -67.819  18.114 -14.604  1.00  0.00     0.012 C 
ENDROOT
BRANCH   2   9
HETATM    9  O1  UNL     1     -66.289  17.049 -16.952  1.00  0.00    -0.387 OA
ATOM     10  H1  UNL     1     -65.832  17.038 -16.119  1.00  0.00     0.210 HD
ENDBRANCH   2   9
BRANCH   3  11
HETATM   11  O2  UNL     1     -65.758  19.909 -17.553  1.00  0.00    -0.393 OA
ATOM     12  H2  UNL     1     -65.916  20.845 -17.518  1.00  0.00     0.210 HD
ENDBRANCH   3  11
TORSDOF 2
ENDMDL
MODEL 2
REMARK VINA RESULT: -4.209916482      1.719      3.275
REMARK  2 active torsions:
REMARK  status: ('A' for Active; 'I' for Inactive)
REMARK    1  A    between atoms: C2_2  and  O1_3 
REMARK    2  A    between atoms: C3_5  and  O2_6 
ROOT
HETATM    1  C1  UNL     1     -69.606  19.060 -15.570  1.00  0.00     0.049 C 
HETATM    2  C2  UNL     1     -68.111  19.123 -15.573  1.00  0.00     0.084 C 
HETATM    3  C3  UNL     1     -67.537  17.760 -15.313  1.00  0.00     0.152 C 
HETATM    4  C4  UNL     1     -67.307  17.055 -16.621  1.00  0.00     0.039 C 
HETATM    5  C5  UNL     1     -66.693  18.008 -17.612  1.00  0.00    -0.011 C 
HETATM    6  C6  UNL     1     -67.840  18.927 -18.060  1.00  0.00     0.012 C 
HETATM    7  C7  UNL     1     -67.545  19.751 -16.827  1.00  0.00     0.023 C 
HETATM    8  C8  UNL     1     -66.103  19.239 -16.938  1.00  0.00     0.012 C 
ENDROOT
BRANCH   2   9
HETATM    9  O1  UNL     1     -67.705  19.944 -14.505  1.00  0.00    -0.387 OA
ATOM     10  H1  UNL     1     -68.464  20.429 -14.201  1.00  0.00     0.210 HD
ENDBRANCH   2   9
BRANCH   3  11
HETATM   11  O2  UNL     1     -68.442  17.066 -14.493  1.00  0.00    -0.393 OA
ATOM     12  H2  UNL     1     -69.074  17.695 -14.165  1.00  0.00     0.210 HD
ENDBRANCH   3  11
TORSDOF 2
ENDMDL
MODEL 3
REMARK VINA RESULT: -4.014989484      1.095      2.316
REMARK  2 active torsions:
REMARK  status: ('A' for Active; 'I' for Inactive)
REMARK    1  A    between atoms: C2_2  and  O1_3 
REMARK    2  A    between atoms: C3_5  and  O2_6 
ROOT
HETATM    1  C1  UNL     1     -65.935  19.476 -16.956  1.00  0.00     0.049 C 
HETATM    2  C2  UNL     1     -67.372  19.064 -17.033  1.00  0.00     0.084 C 
HETATM    3  C3  UNL     1     -67.504  17.598 -16.734  1.00  0.00     0.152 C 
HETATM    4  C4  UNL     1     -67.739  17.406 -15.263  1.00  0.00     0.039 C 
HETATM    5  C5  UNL     1     -68.739  18.417 -14.770  1.00  0.00    -0.011 C 
HETATM    6  C6  UNL     1     -67.973  19.747 -14.694  1.00  0.00     0.012 C 
HETATM    7  C7  UNL     1     -68.280  19.907 -16.166  1.00  0.00     0.023 C 
HETATM    8  C8  UNL     1     -69.526  19.051 -15.909  1.00  0.00     0.012 C 
ENDROOT
BRANCH   2   9
HETATM    9  O1  UNL     1     -67.809  19.250 -18.357  1.00  0.00    -0.387 OA
ATOM     10  H1  UNL     1     -67.196  18.809 -18.935  1.00  0.00     0.210 HD
ENDBRANCH   2   9
BRANCH   3  11
HETATM   11  O2  UNL     1     -66.326  16.967 -17.167  1.00  0.00    -0.393 OA
ATOM     12  H2  UNL     1     -66.399  16.044 -16.954  1.00  0.00     0.210 HD
ENDBRANCH   3  11
TORSDOF 2
ENDMDL
MODEL 4
REMARK VINA RESULT: -3.620563752      1.213      1.798
REMARK  2 active torsions:
REMARK  status: ('A' for Active; 'I' for Inactive)
REMARK    1  A    between atoms: C2_2  and  O1_3 
REMARK    2  A    between atoms: C3_5  and  O2_6 
ROOT
HETATM    1  C1  UNL     1     -66.704  17.216 -17.122  1.00  0.00     0.049 C 
HETATM    2  C2  UNL     1     -66.815  18.599 -16.561  1.00  0.00     0.084 C 
HETATM    3  C3  UNL     1     -67.692  19.444 -17.442  1.00  0.00     0.152 C 
HETATM    4  C4  UNL     1     -69.114  19.355 -16.965  1.00  0.00     0.039 C 
HETATM    5  C5  UNL     1     -69.156  19.453 -15.464  1.00  0.00    -0.011 C 
HETATM    6  C6  UNL     1     -68.672  18.087 -14.952  1.00  0.00     0.012 C 
HETATM    7  C7  UNL     1     -67.267  18.621 -15.118  1.00  0.00     0.023 C 
HETATM    8  C8  UNL     1     -67.864  20.015 -14.887  1.00  0.00     0.012 C 
ENDROOT
BRANCH   2   9
HETATM    9  O1  UNL     1     -65.536  19.183 -16.581  1.00  0.00    -0.387 OA
ATOM     10  H1  UNL     1     -65.552  19.909 -17.195  1.00  0.00     0.210 HD
ENDBRANCH   2   9
BRANCH   3  11
HETATM   11  O2  UNL     1     -67.547  18.978 -18.759  1.00  0.00    -0.393 OA
ATOM     12  H2  UNL     1     -68.163  19.455 -19.302  1.00  0.00     0.210 HD
ENDBRANCH   3  11
TORSDOF 2
ENDMDL
MODEL 5
REMARK VINA RESULT: -3.003688538      1.948      3.142
REMARK  2 active torsions:
REMARK  status: ('A' for Active; 'I' for Inactive)
REMARK    1  A    between atoms: C2_2  and  O1_3 
REMARK    2  A    between atoms: C3_5  and  O2_6 
ROOT
HETATM    1  C1  UNL     1     -67.708  19.457 -14.268  1.00  0.00     0.049 C 
HETATM    2  C2  UNL     1     -67.896  18.383 -15.294  1.00  0.00     0.084 C 
HETATM    3  C3  UNL     1     -69.095  18.688 -16.146  1.00  0.00     0.152 C 
HETATM    4  C4  UNL     1     -68.666  19.479 -17.349  1.00  0.00     0.039 C 
HETATM    5  C5  UNL     1     -67.404  18.891 -17.922  1.00  0.00    -0.011 C 
HETATM    6  C6  UNL     1     -66.281  19.324 -16.967  1.00  0.00     0.012 C 
HETATM    7  C7  UNL     1     -66.657  18.128 -16.123  1.00  0.00     0.023 C 
HETATM    8  C8  UNL     1     -67.148  17.477 -17.422  1.00  0.00     0.012 C 
ENDROOT
BRANCH   2   9
HETATM    9  O1  UNL     1     -68.172  17.179 -14.620  1.00  0.00    -0.387 OA
ATOM     10  H1  UNL     1     -68.658  17.387 -13.830  1.00  0.00     0.210 HD
ENDBRANCH   2   9
BRANCH   3  11
HETATM   11  O2  UNL     1     -70.014  19.393 -15.351  1.00  0.00    -0.393 OA
ATOM     12  H2  UNL     1     -70.810  18.877 -15.305  1.00  0.00     0.210 HD
ENDBRANCH   3  11
TORSDOF 2
ENDMDL
