MODEL 1
REMARK VINA RESULT: -7.395996555      0.000      0.000
REMARK  3 active torsions:
REMARK  status: ('A' for Active; 'I' for Inactive)
REMARK    1  A    between atoms: N1_1  and  C1_4 
REMARK    2  A    between atoms: C2_7  and  C3_8 
REMARK    3  A    between atoms: C10_18  and  C11_20 
ROOT
HETATM    1  C1  UNL     1       0.658  -4.171 -12.836  1.00  0.00     0.676 A 
HETATM    2  N2  UNL     1       1.519  -3.448 -12.123  1.00  0.00    -0.190 N 
ATOM      3  H2  UNL     1       1.394  -2.436 -12.099  1.00  0.00     0.184 HD
HETATM    4  C2  UNL     1       2.574  -3.991 -11.411  1.00  0.00     0.074 A 
HETATM    5  C7  UNL     1       2.692  -5.320 -11.470  1.00  0.00    -0.006 A 
HETATM    6  C8  UNL     1       1.791  -6.120 -12.227  1.00  0.00     0.038 A 
HETATM    7  N3  UNL     1       0.818  -5.531 -12.874  1.00  0.00    -0.195 N 
ATOM      8  H3  UNL     1       0.167  -6.096 -13.419  1.00  0.00     0.184 HD
HETATM    9  C9  UNL     1       2.085  -7.554 -12.212  1.00  0.00     0.102 C 
HETATM   10  C10 UNL     1       3.545  -7.702 -12.596  1.00  0.00     0.112 C 
HETATM   11  F1  UNL     1       3.705  -7.049 -13.802  1.00  0.00    -0.242 F 
HETATM   12  C15 UNL     1       4.408  -7.096 -11.540  1.00  0.00     0.049 C 
HETATM   13  C16 UNL     1       3.677  -6.087 -10.680  1.00  0.00     0.046 C 
ENDROOT
BRANCH   4  14
HETATM   14  C3  UNL     1       3.491  -3.038 -10.799  1.00  0.00     0.032 A 
HETATM   15  C4  UNL     1       4.825  -2.800 -10.911  1.00  0.00     0.021 A 
HETATM   16  C5  UNL     1       5.347  -1.750 -10.238  1.00  0.00     0.008 A 
HETATM   17  C6  UNL     1       4.497  -0.995  -9.490  1.00  0.00     0.050 A 
HETATM   18  S1  UNL     1       3.000  -1.748  -9.730  1.00  0.00    -0.100 SA
ENDBRANCH   4  14
BRANCH   1  19
HETATM   19  N1  UNL     1      -0.314  -3.633 -13.488  1.00  0.00    -0.234 N 
ATOM     20  H12 UNL     1      -0.213  -3.472 -14.490  1.00  0.00     0.174 HD
ATOM     21  H11 UNL     1      -1.187  -3.361 -13.035  1.00  0.00     0.174 HD
ENDBRANCH   1  19
BRANCH  10  22
HETATM   22  C11 UNL     1       3.814  -9.177 -12.756  1.00  0.00     0.026 C 
HETATM   23  C12 UNL     1       3.935  -9.671 -14.159  1.00  0.00     0.008 C 
HETATM   24  C13 UNL     1       2.874 -10.712 -13.890  1.00  0.00     0.001 C 
HETATM   25  C14 UNL     1       2.532  -9.969 -12.612  1.00  0.00     0.008 C 
ENDBRANCH  10  22
TORSDOF 3
ENDMDL
MODEL 2
REMARK VINA RESULT: -7.347621745      3.601      6.639
REMARK  3 active torsions:
REMARK  status: ('A' for Active; 'I' for Inactive)
REMARK    1  A    between atoms: N1_1  and  C1_4 
REMARK    2  A    between atoms: C2_7  and  C3_8 
REMARK    3  A    between atoms: C10_18  and  C11_20 
ROOT
HETATM    1  C1  UNL     1       5.084  -6.896 -13.439  1.00  0.00     0.676 A 
HETATM    2  N2  UNL     1       4.878  -7.921 -12.615  1.00  0.00    -0.190 N 
ATOM      3  H2  UNL     1       4.754  -8.848 -13.022  1.00  0.00     0.184 HD
HETATM    4  C2  UNL     1       4.823  -7.800 -11.238  1.00  0.00     0.074 A 
HETATM    5  C7  UNL     1       4.996  -6.568 -10.754  1.00  0.00    -0.006 A 
HETATM    6  C8  UNL     1       5.213  -5.451 -11.609  1.00  0.00     0.038 A 
HETATM    7  N3  UNL     1       5.251  -5.646 -12.902  1.00  0.00    -0.195 N 
ATOM      8  H3  UNL     1       5.407  -4.852 -13.523  1.00  0.00     0.184 HD
HETATM    9  C9  UNL     1       5.348  -4.168 -10.917  1.00  0.00     0.102 C 
HETATM   10  C10 UNL     1       4.148  -4.043  -9.998  1.00  0.00     0.112 C 
HETATM   11  F1  UNL     1       3.026  -4.208 -10.786  1.00  0.00    -0.242 F 
HETATM   12  C15 UNL     1       4.214  -5.089  -8.936  1.00  0.00     0.049 C 
HETATM   13  C16 UNL     1       5.092  -6.264  -9.312  1.00  0.00     0.046 C 
ENDROOT
BRANCH   4  14
HETATM   14  C3  UNL     1       4.457  -9.006 -10.504  1.00  0.00     0.032 A 
HETATM   15  C4  UNL     1       3.281  -9.525 -10.061  1.00  0.00     0.021 A 
HETATM   16  C5  UNL     1       3.300 -10.742  -9.470  1.00  0.00     0.008 A 
HETATM   17  C6  UNL     1       4.503 -11.370  -9.361  1.00  0.00     0.050 A 
HETATM   18  S1  UNL     1       5.578 -10.273 -10.072  1.00  0.00    -0.100 SA
ENDBRANCH   4  14
BRANCH   1  19
HETATM   19  N1  UNL     1       5.129  -7.042 -14.718  1.00  0.00    -0.234 N 
ATOM     20  H12 UNL     1       5.677  -6.387 -15.275  1.00  0.00     0.174 HD
ATOM     21  H11 UNL     1       4.634  -7.795 -15.197  1.00  0.00     0.174 HD
ENDBRANCH   1  19
BRANCH  10  22
HETATM   22  C11 UNL     1       4.181  -2.653  -9.412  1.00  0.00     0.026 C 
HETATM   23  C12 UNL     1       3.015  -1.780  -9.736  1.00  0.00     0.008 C 
HETATM   24  C13 UNL     1       3.951  -0.714 -10.256  1.00  0.00     0.001 C 
HETATM   25  C14 UNL     1       5.062  -1.747 -10.246  1.00  0.00     0.008 C 
ENDBRANCH  10  22
TORSDOF 3
ENDMDL
MODEL 3
REMARK VINA RESULT: -7.310060776     10.611     12.738
REMARK  3 active torsions:
REMARK  status: ('A' for Active; 'I' for Inactive)
REMARK    1  A    between atoms: N1_1  and  C1_4 
REMARK    2  A    between atoms: C2_7  and  C3_8 
REMARK    3  A    between atoms: C10_18  and  C11_20 
ROOT
HETATM    1  C1  UNL     1      -2.757  -2.726 -20.122  1.00  0.00     0.676 A 
HETATM    2  N2  UNL     1      -3.499  -2.330 -19.090  1.00  0.00    -0.190 N 
ATOM      3  H2  UNL     1      -3.980  -3.043 -18.542  1.00  0.00     0.184 HD
HETATM    4  C2  UNL     1      -3.654  -1.006 -18.719  1.00  0.00     0.074 A 
HETATM    5  C7  UNL     1      -3.001  -0.112 -19.466  1.00  0.00    -0.006 A 
HETATM    6  C8  UNL     1      -2.204  -0.503 -20.577  1.00  0.00     0.038 A 
HETATM    7  N3  UNL     1      -2.107  -1.775 -20.866  1.00  0.00    -0.195 N 
ATOM      8  H3  UNL     1      -1.537  -2.066 -21.660  1.00  0.00     0.184 HD
HETATM    9  C9  UNL     1      -1.586   0.606 -21.307  1.00  0.00     0.102 C 
HETATM   10  C10 UNL     1      -2.698   1.583 -21.634  1.00  0.00     0.112 C 
HETATM   11  F1  UNL     1      -3.672   0.868 -22.302  1.00  0.00    -0.242 F 
HETATM   12  C15 UNL     1      -3.237   2.174 -20.374  1.00  0.00     0.049 C 
HETATM   13  C16 UNL     1      -2.948   1.330 -19.150  1.00  0.00     0.046 C 
ENDROOT
BRANCH   4  14
HETATM   14  C3  UNL     1      -4.610  -0.750 -17.648  1.00  0.00     0.032 A 
HETATM   15  C4  UNL     1      -4.561  -0.838 -16.293  1.00  0.00     0.021 A 
HETATM   16  C5  UNL     1      -5.638  -0.430 -15.584  1.00  0.00     0.008 A 
HETATM   17  C6  UNL     1      -6.706   0.048 -16.281  1.00  0.00     0.050 A 
HETATM   18  S1  UNL     1      -6.203  -0.077 -17.892  1.00  0.00    -0.100 SA
ENDBRANCH   4  14
BRANCH   1  19
HETATM   19  N1  UNL     1      -2.633  -3.968 -20.442  1.00  0.00    -0.234 N 
ATOM     20  H12 UNL     1      -3.462  -4.501 -20.701  1.00  0.00     0.174 HD
ATOM     21  H11 UNL     1      -1.729  -4.440 -20.444  1.00  0.00     0.174 HD
ENDBRANCH   1  19
BRANCH  10  22
HETATM   22  C11 UNL     1      -2.110   2.640 -22.535  1.00  0.00     0.026 C 
HETATM   23  C12 UNL     1      -2.310   2.435 -23.999  1.00  0.00     0.008 C 
HETATM   24  C13 UNL     1      -0.821   2.555 -24.226  1.00  0.00     0.001 C 
HETATM   25  C14 UNL     1      -0.626   2.406 -22.728  1.00  0.00     0.008 C 
ENDBRANCH  10  22
TORSDOF 3
ENDMDL
MODEL 4
REMARK VINA RESULT: -7.244829723      9.307     11.985
REMARK  3 active torsions:
REMARK  status: ('A' for Active; 'I' for Inactive)
REMARK    1  A    between atoms: N1_1  and  C1_4 
REMARK    2  A    between atoms: C2_7  and  C3_8 
REMARK    3  A    between atoms: C10_18  and  C11_20 
ROOT
HETATM    1  C1  UNL     1      -5.895  -0.348 -17.795  1.00  0.00     0.676 A 
HETATM    2  N2  UNL     1      -4.880  -0.944 -17.173  1.00  0.00    -0.190 N 
ATOM      3  H2  UNL     1      -5.014  -1.237 -16.206  1.00  0.00     0.184 HD
HETATM    4  C2  UNL     1      -3.654  -1.188 -17.765  1.00  0.00     0.074 A 
HETATM    5  C7  UNL     1      -3.530  -0.790 -19.034  1.00  0.00    -0.006 A 
HETATM    6  C8  UNL     1      -4.595  -0.146 -19.724  1.00  0.00     0.038 A 
HETATM    7  N3  UNL     1      -5.725   0.051 -19.095  1.00  0.00    -0.195 N 
ATOM      8  H3  UNL     1      -6.494   0.511 -19.582  1.00  0.00     0.184 HD
HETATM    9  C9  UNL     1      -4.279   0.257 -21.096  1.00  0.00     0.102 C 
HETATM   10  C10 UNL     1      -2.990   1.053 -21.029  1.00  0.00     0.112 C 
HETATM   11  F1  UNL     1      -3.199   2.068 -20.117  1.00  0.00    -0.242 F 
HETATM   12  C15 UNL     1      -1.871   0.166 -20.596  1.00  0.00     0.049 C 
HETATM   13  C16 UNL     1      -2.343  -1.074 -19.866  1.00  0.00     0.046 C 
ENDROOT
BRANCH   4  14
HETATM   14  C3  UNL     1      -2.618  -1.729 -16.893  1.00  0.00     0.032 A 
HETATM   15  C4  UNL     1      -1.262  -1.793 -16.958  1.00  0.00     0.021 A 
HETATM   16  C5  UNL     1      -0.593  -2.305 -15.900  1.00  0.00     0.008 A 
HETATM   17  C6  UNL     1      -1.327  -2.723 -14.833  1.00  0.00     0.050 A 
HETATM   18  S1  UNL     1      -2.919  -2.402 -15.310  1.00  0.00    -0.100 SA
ENDBRANCH   4  14
BRANCH   1  19
HETATM   19  N1  UNL     1      -7.025  -0.134 -17.214  1.00  0.00    -0.234 N 
ATOM     20  H12 UNL     1      -7.888  -0.380 -17.699  1.00  0.00     0.174 HD
ATOM     21  H11 UNL     1      -7.088   0.274 -16.282  1.00  0.00     0.174 HD
ENDBRANCH   1  19
BRANCH  10  22
HETATM   22  C11 UNL     1      -2.748   1.622 -22.405  1.00  0.00     0.026 C 
HETATM   23  C12 UNL     1      -3.457   2.896 -22.719  1.00  0.00     0.008 C 
HETATM   24  C13 UNL     1      -4.048   2.269 -23.959  1.00  0.00     0.001 C 
HETATM   25  C14 UNL     1      -3.611   0.916 -23.430  1.00  0.00     0.008 C 
ENDBRANCH  10  22
TORSDOF 3
ENDMDL
MODEL 5
REMARK VINA RESULT: -7.176837481      2.888      6.250
REMARK  3 active torsions:
REMARK  status: ('A' for Active; 'I' for Inactive)
REMARK    1  A    between atoms: N1_1  and  C1_4 
REMARK    2  A    between atoms: C2_7  and  C3_8 
REMARK    3  A    between atoms: C10_18  and  C11_20 
ROOT
HETATM    1  C1  UNL     1       1.593  -7.827 -11.410  1.00  0.00     0.676 A 
HETATM    2  N2  UNL     1       2.711  -8.479 -11.720  1.00  0.00    -0.190 N 
ATOM      3  H2  UNL     1       2.691  -9.499 -11.712  1.00  0.00     0.184 HD
HETATM    4  C2  UNL     1       3.899  -7.853 -12.053  1.00  0.00     0.074 A 
HETATM    5  C7  UNL     1       3.873  -6.518 -12.053  1.00  0.00    -0.006 A 
HETATM    6  C8  UNL     1       2.695  -5.791 -11.722  1.00  0.00     0.038 A 
HETATM    7  N3  UNL     1       1.611  -6.456 -11.417  1.00  0.00    -0.195 N 
ATOM      8  H3  UNL     1       0.761  -5.944 -11.180  1.00  0.00     0.184 HD
HETATM    9  C9  UNL     1       2.850  -4.335 -11.737  1.00  0.00     0.102 C 
HETATM   10  C10 UNL     1       4.057  -4.019 -10.875  1.00  0.00     0.112 C 
HETATM   11  F1  UNL     1       3.832  -4.605  -9.646  1.00  0.00    -0.242 F 
HETATM   12  C15 UNL     1       5.290  -4.567 -11.512  1.00  0.00     0.049 C 
HETATM   13  C16 UNL     1       5.005  -5.680 -12.499  1.00  0.00     0.046 C 
ENDROOT
BRANCH   4  14
HETATM   14  C3  UNL     1       5.054  -8.725 -12.231  1.00  0.00     0.032 A 
HETATM   15  C4  UNL     1       5.862  -9.414 -11.383  1.00  0.00     0.021 A 
HETATM   16  C5  UNL     1       6.816 -10.213 -11.914  1.00  0.00     0.008 A 
HETATM   17  C6  UNL     1       6.901 -10.277 -13.271  1.00  0.00     0.050 A 
HETATM   18  S1  UNL     1       5.669  -9.236 -13.784  1.00  0.00    -0.100 SA
ENDBRANCH   4  14
BRANCH   1  19
HETATM   19  N1  UNL     1       0.503  -8.440 -11.105  1.00  0.00    -0.234 N 
ATOM     20  H12 UNL     1       0.445  -9.450 -11.238  1.00  0.00     0.174 HD
ATOM     21  H11 UNL     1      -0.311  -7.950 -10.733  1.00  0.00     0.174 HD
ENDBRANCH   1  19
BRANCH  10  22
HETATM   22  C11 UNL     1       4.123  -2.518 -10.739  1.00  0.00     0.026 C 
HETATM   23  C12 UNL     1       5.375  -1.970 -10.140  1.00  0.00     0.008 C 
HETATM   24  C13 UNL     1       4.563  -1.224  -9.108  1.00  0.00     0.001 C 
HETATM   25  C14 UNL     1       3.364  -2.063  -9.510  1.00  0.00     0.008 C 
ENDBRANCH  10  22
TORSDOF 3
ENDMDL
