MODEL 1
REMARK VINA RESULT: -8.024266552      0.000      0.000
REMARK  14 active torsions:
REMARK  status: ('A' for Active; 'I' for Inactive)
REMARK    1  A    between atoms: C2_2  and  C3_3 
REMARK    2  A    between atoms: C3_3  and  C4_4 
REMARK    3  A    between atoms: C4_4  and  N1_5 
REMARK    4  A    between atoms: C9_10  and  C10_11 
REMARK    5  A    between atoms: C10_11  and  C11_12 
REMARK    6  A    between atoms: C12_14  and  C13_15 
REMARK    7  A    between atoms: C13_15  and  C14_16 
REMARK    8  A    between atoms: C19_21  and  N2_22 
REMARK       I    between atoms: N2_22  and  C20_24 
REMARK    9  A    between atoms: C20_24  and  C21_26 
REMARK   10  A    between atoms: C22_29  and  O5_30 
REMARK   11  A    between atoms: C25_33  and  O6_34 
REMARK   12  A    between atoms: C26_36  and  O7_37 
REMARK   13  A    between atoms: O7_37  and  C27_38 
REMARK   14  A    between atoms: C27_38  and  O8_39 
ROOT
HETATM    1  C11 UNL     1      21.073  30.895  14.978  1.00  0.00     0.155 C 
HETATM    2  O1  UNL     1      19.948  30.159  15.025  1.00  0.00    -0.372 OA
HETATM    3  C12 UNL     1      18.723  30.601  14.817  1.00  0.00     0.069 C 
HETATM    4  C18 UNL     1      17.994  31.146  16.025  1.00  0.00     0.066 C 
HETATM    5  C19 UNL     1      17.714  32.614  15.714  1.00  0.00     0.125 C 
HETATM    6  C22 UNL     1      18.631  32.934  14.597  1.00  0.00     0.112 C 
HETATM    7  C24 UNL     1      18.483  31.662  13.790  1.00  0.00     0.081 C 
HETATM    8  C25 UNL     1      20.038  33.223  14.844  1.00  0.00     0.186 C 
HETATM    9  C26 UNL     1      20.996  32.310  15.427  1.00  0.00     0.184 C 
ENDROOT
BRANCH   1  10
HETATM   10  C10 UNL     1      21.777  30.641  13.679  1.00  0.00     0.048 C 
BRANCH  10  11
HETATM   11  C9  UNL     1      21.758  29.257  13.153  1.00  0.00     0.081 C 
HETATM   12  C8  UNL     1      23.181  28.922  12.624  1.00  0.00     0.020 C 
HETATM   13  C6  UNL     1      23.218  27.439  12.497  1.00  0.00     0.000 C 
HETATM   14  C5  UNL     1      21.962  26.824  11.947  1.00  0.00     0.130 C 
HETATM   15  C7  UNL     1      24.463  27.063  11.704  1.00  0.00     0.011 C 
HETATM   16  N1  UNL     1      21.042  27.737  11.344  1.00  0.00    -0.351 N 
HETATM   17  C29 UNL     1      20.910  29.043  11.949  1.00  0.00     0.224 C 
HETATM   18  O9  UNL     1      20.134  29.844  11.432  1.00  0.00    -0.273 OA
BRANCH  16  19
HETATM   19  C4  UNL     1      20.228  27.412  10.219  1.00  0.00     0.125 C 
BRANCH  19  20
HETATM   20  C3  UNL     1      19.921  25.970   9.998  1.00  0.00     0.020 C 
BRANCH  20  21
HETATM   21  C2  UNL     1      19.081  25.612   8.836  1.00  0.00    -0.003 C 
HETATM   22  C1  UNL     1      17.605  25.485   9.118  1.00  0.00     0.005 C 
ENDBRANCH  20  21
ENDBRANCH  19  20
ENDBRANCH  16  19
ENDBRANCH  10  11
ENDBRANCH   1  10
BRANCH   9  23
HETATM   23  O7  UNL     1      21.094  32.389  16.845  1.00  0.00    -0.356 OA
BRANCH  23  24
HETATM   24  C27 UNL     1      22.365  32.581  17.301  1.00  0.00     0.337 C 
BRANCH  24  25
HETATM   25  O8  UNL     1      22.700  33.921  17.190  1.00  0.00    -0.372 OA
HETATM   26  C28 UNL     1      22.083  34.615  18.221  1.00  0.00     0.204 C 
ENDBRANCH  24  25
ENDBRANCH  23  24
ENDBRANCH   9  23
BRANCH   3  27
HETATM   27  C13 UNL     1      17.928  29.378  14.314  1.00  0.00     0.065 C 
BRANCH  27  28
HETATM   28  C14 UNL     1      17.422  29.555  12.950  1.00  0.00    -0.022 C 
HETATM   29  C15 UNL     1      17.254  28.519  12.150  1.00  0.00    -0.091 C 
HETATM   30  C16 UNL     1      17.561  27.135  12.580  1.00  0.00     0.042 C 
HETATM   31  C17 UNL     1      16.739  28.712  10.756  1.00  0.00     0.042 C 
ENDBRANCH  27  28
ENDBRANCH   3  27
BRANCH   8  32
HETATM   32  O6  UNL     1      20.112  34.429  15.595  1.00  0.00    -0.390 OA
ATOM     33  H6  UNL     1      19.541  34.339  16.349  1.00  0.00     0.210 HD
ENDBRANCH   8  32
BRANCH   6  34
HETATM   34  O5  UNL     1      18.138  34.053  13.930  1.00  0.00    -0.380 OA
HETATM   35  C23 UNL     1      16.832  34.352  14.048  1.00  0.00     0.202 C 
ENDBRANCH   6  34
BRANCH   5  36
HETATM   36  N2  UNL     1      17.652  33.469  16.826  1.00  0.00    -0.344 N 
HETATM   37  C20 UNL     1      16.448  33.992  17.366  1.00  0.00     0.318 C 
HETATM   38  O2  UNL     1      15.310  33.721  16.873  1.00  0.00    -0.261 OA
ATOM     39  H2  UNL     1      18.529  33.731  17.276  1.00  0.00     0.163 HD
BRANCH  37  40
HETATM   40  C21 UNL     1      16.439  34.882  18.527  1.00  0.00     0.270 C 
HETATM   41  O3  UNL     1      17.572  35.197  19.026  1.00  0.00    -0.640 OA
HETATM   42  O4  UNL     1      15.270  35.377  19.086  1.00  0.00    -0.640 OA
ENDBRANCH  37  40
ENDBRANCH   5  36
TORSDOF 14
ENDMDL
MODEL 2
REMARK VINA RESULT: -7.371628265      2.282      8.324
REMARK  14 active torsions:
REMARK  status: ('A' for Active; 'I' for Inactive)
REMARK    1  A    between atoms: C2_2  and  C3_3 
REMARK    2  A    between atoms: C3_3  and  C4_4 
REMARK    3  A    between atoms: C4_4  and  N1_5 
REMARK    4  A    between atoms: C9_10  and  C10_11 
REMARK    5  A    between atoms: C10_11  and  C11_12 
REMARK    6  A    between atoms: C12_14  and  C13_15 
REMARK    7  A    between atoms: C13_15  and  C14_16 
REMARK    8  A    between atoms: C19_21  and  N2_22 
REMARK       I    between atoms: N2_22  and  C20_24 
REMARK    9  A    between atoms: C20_24  and  C21_26 
REMARK   10  A    between atoms: C22_29  and  O5_30 
REMARK   11  A    between atoms: C25_33  and  O6_34 
REMARK   12  A    between atoms: C26_36  and  O7_37 
REMARK   13  A    between atoms: O7_37  and  C27_38 
REMARK   14  A    between atoms: C27_38  and  O8_39 
ROOT
HETATM    1  C11 UNL     1      20.801  32.901  15.146  1.00  0.00     0.155 C 
HETATM    2  O1  UNL     1      19.709  32.980  14.365  1.00  0.00    -0.372 OA
HETATM    3  C12 UNL     1      18.946  31.970  13.993  1.00  0.00     0.069 C 
HETATM    4  C18 UNL     1      19.362  31.247  12.731  1.00  0.00     0.066 C 
HETATM    5  C19 UNL     1      19.668  29.813  13.156  1.00  0.00     0.125 C 
HETATM    6  C22 UNL     1      19.831  29.892  14.625  1.00  0.00     0.112 C 
HETATM    7  C24 UNL     1      18.697  30.842  14.944  1.00  0.00     0.081 C 
HETATM    8  C25 UNL     1      21.077  30.365  15.214  1.00  0.00     0.186 C 
HETATM    9  C26 UNL     1      21.646  31.683  15.037  1.00  0.00     0.184 C 
ENDROOT
BRANCH   1  10
HETATM   10  C10 UNL     1      20.452  33.352  16.533  1.00  0.00     0.048 C 
BRANCH  10  11
HETATM   11  C9  UNL     1      20.176  34.794  16.730  1.00  0.00     0.081 C 
HETATM   12  C8  UNL     1      21.413  35.431  17.424  1.00  0.00     0.020 C 
HETATM   13  C6  UNL     1      21.265  36.900  17.228  1.00  0.00     0.000 C 
HETATM   14  C5  UNL     1      19.864  37.417  17.391  1.00  0.00     0.130 C 
HETATM   15  C7  UNL     1      22.270  37.601  18.133  1.00  0.00     0.011 C 
HETATM   16  N1  UNL     1      18.940  36.513  18.000  1.00  0.00    -0.351 N 
HETATM   17  C29 UNL     1      19.077  35.109  17.683  1.00  0.00     0.224 C 
HETATM   18  O9  UNL     1      18.300  34.318  18.212  1.00  0.00    -0.273 OA
BRANCH  16  19
HETATM   19  C4  UNL     1      17.879  36.925  18.860  1.00  0.00     0.125 C 
BRANCH  19  20
HETATM   20  C3  UNL     1      16.595  37.317  18.211  1.00  0.00     0.020 C 
BRANCH  20  21
HETATM   21  C2  UNL     1      15.426  36.432  18.398  1.00  0.00    -0.003 C 
HETATM   22  C1  UNL     1      14.190  37.099  18.947  1.00  0.00     0.005 C 
ENDBRANCH  20  21
ENDBRANCH  19  20
ENDBRANCH  16  19
ENDBRANCH  10  11
ENDBRANCH   1  10
BRANCH   9  23
HETATM   23  O7  UNL     1      22.537  31.793  13.932  1.00  0.00    -0.356 OA
BRANCH  23  24
HETATM   24  C27 UNL     1      23.219  32.974  13.887  1.00  0.00     0.337 C 
BRANCH  24  25
HETATM   25  O8  UNL     1      24.331  32.899  14.711  1.00  0.00    -0.372 OA
HETATM   26  C28 UNL     1      24.215  33.872  15.694  1.00  0.00     0.204 C 
ENDBRANCH  24  25
ENDBRANCH  23  24
ENDBRANCH   9  23
BRANCH   3  27
HETATM   27  C13 UNL     1      17.554  32.583  13.735  1.00  0.00     0.065 C 
BRANCH  27  28
HETATM   28  C14 UNL     1      16.647  32.426  14.875  1.00  0.00    -0.022 C 
HETATM   29  C15 UNL     1      16.147  33.479  15.492  1.00  0.00    -0.091 C 
HETATM   30  C16 UNL     1      16.468  34.863  15.075  1.00  0.00     0.042 C 
HETATM   31  C17 UNL     1      15.221  33.306  16.659  1.00  0.00     0.042 C 
ENDBRANCH  27  28
ENDBRANCH   3  27
BRANCH   8  32
HETATM   32  O6  UNL     1      22.098  29.431  14.889  1.00  0.00    -0.390 OA
ATOM     33  H6  UNL     1      21.690  28.582  14.766  1.00  0.00     0.210 HD
ENDBRANCH   8  32
BRANCH   6  34
HETATM   34  O5  UNL     1      19.633  28.621  15.158  1.00  0.00    -0.380 OA
HETATM   35  C23 UNL     1      18.518  27.947  14.823  1.00  0.00     0.202 C 
ENDBRANCH   6  34
BRANCH   5  36
HETATM   36  N2  UNL     1      20.635  29.146  12.386  1.00  0.00    -0.344 N 
HETATM   37  C20 UNL     1      20.392  27.953  11.657  1.00  0.00     0.318 C 
HETATM   38  O2  UNL     1      19.257  27.385  11.644  1.00  0.00    -0.261 OA
ATOM     39  H2  UNL     1      21.572  29.545  12.348  1.00  0.00     0.163 HD
BRANCH  37  40
HETATM   40  C21 UNL     1      21.436  27.296  10.870  1.00  0.00     0.270 C 
HETATM   41  O3  UNL     1      22.568  27.884  10.802  1.00  0.00    -0.640 OA
HETATM   42  O4  UNL     1      21.238  26.090  10.215  1.00  0.00    -0.640 OA
ENDBRANCH  37  40
ENDBRANCH   5  36
TORSDOF 14
ENDMDL
MODEL 3
REMARK VINA RESULT: -7.330178612      2.126      8.121
REMARK  14 active torsions:
REMARK  status: ('A' for Active; 'I' for Inactive)
REMARK    1  A    between atoms: C2_2  and  C3_3 
REMARK    2  A    between atoms: C3_3  and  C4_4 
REMARK    3  A    between atoms: C4_4  and  N1_5 
REMARK    4  A    between atoms: C9_10  and  C10_11 
REMARK    5  A    between atoms: C10_11  and  C11_12 
REMARK    6  A    between atoms: C12_14  and  C13_15 
REMARK    7  A    between atoms: C13_15  and  C14_16 
REMARK    8  A    between atoms: C19_21  and  N2_22 
REMARK       I    between atoms: N2_22  and  C20_24 
REMARK    9  A    between atoms: C20_24  and  C21_26 
REMARK   10  A    between atoms: C22_29  and  O5_30 
REMARK   11  A    between atoms: C25_33  and  O6_34 
REMARK   12  A    between atoms: C26_36  and  O7_37 
REMARK   13  A    between atoms: O7_37  and  C27_38 
REMARK   14  A    between atoms: C27_38  and  O8_39 
ROOT
HETATM    1  C11 UNL     1      21.498  31.356  14.037  1.00  0.00     0.155 C 
HETATM    2  O1  UNL     1      20.361  31.895  13.561  1.00  0.00    -0.372 OA
HETATM    3  C12 UNL     1      19.201  31.279  13.440  1.00  0.00     0.069 C 
HETATM    4  C18 UNL     1      18.972  30.534  12.144  1.00  0.00     0.066 C 
HETATM    5  C19 UNL     1      18.800  29.067  12.533  1.00  0.00     0.125 C 
HETATM    6  C22 UNL     1      19.347  28.984  13.905  1.00  0.00     0.112 C 
HETATM    7  C24 UNL     1      18.787  30.273  14.467  1.00  0.00     0.081 C 
HETATM    8  C25 UNL     1      20.785  28.908  14.133  1.00  0.00     0.186 C 
HETATM    9  C26 UNL     1      21.752  29.917  13.762  1.00  0.00     0.184 C 
ENDROOT
BRANCH   1  10
HETATM   10  C10 UNL     1      21.713  31.818  15.447  1.00  0.00     0.048 C 
BRANCH  10  11
HETATM   11  C9  UNL     1      21.193  33.156  15.812  1.00  0.00     0.081 C 
HETATM   12  C8  UNL     1      22.245  33.849  16.722  1.00  0.00     0.020 C 
HETATM   13  C6  UNL     1      21.882  35.293  16.719  1.00  0.00     0.000 C 
HETATM   14  C5  UNL     1      20.407  35.570  16.795  1.00  0.00     0.130 C 
HETATM   15  C7  UNL     1      22.676  35.984  17.820  1.00  0.00     0.011 C 
HETATM   16  N1  UNL     1      19.589  34.457  17.165  1.00  0.00    -0.351 N 
HETATM   17  C29 UNL     1      19.978  33.155  16.671  1.00  0.00     0.224 C 
HETATM   18  O9  UNL     1      19.293  32.187  16.994  1.00  0.00    -0.273 OA
BRANCH  16  19
HETATM   19  C4  UNL     1      18.404  34.572  17.949  1.00  0.00     0.125 C 
BRANCH  19  20
HETATM   20  C3  UNL     1      18.010  35.941  18.386  1.00  0.00     0.020 C 
BRANCH  20  21
HETATM   21  C2  UNL     1      16.694  36.454  17.953  1.00  0.00    -0.003 C 
HETATM   22  C1  UNL     1      15.500  35.689  18.466  1.00  0.00     0.005 C 
ENDBRANCH  20  21
ENDBRANCH  19  20
ENDBRANCH  16  19
ENDBRANCH  10  11
ENDBRANCH   1  10
BRANCH   9  23
HETATM   23  O7  UNL     1      22.305  29.749  12.461  1.00  0.00    -0.356 OA
BRANCH  23  24
HETATM   24  C27 UNL     1      22.935  28.553  12.280  1.00  0.00     0.337 C 
BRANCH  24  25
HETATM   25  O8  UNL     1      22.424  27.925  11.155  1.00  0.00    -0.372 OA
HETATM   26  C28 UNL     1      23.389  27.060  10.658  1.00  0.00     0.204 C 
ENDBRANCH  24  25
ENDBRANCH  23  24
ENDBRANCH   9  23
BRANCH   3  27
HETATM   27  C13 UNL     1      18.136  32.391  13.525  1.00  0.00     0.065 C 
BRANCH  27  28
HETATM   28  C14 UNL     1      17.105  32.111  14.528  1.00  0.00    -0.022 C 
HETATM   29  C15 UNL     1      16.424  33.091  15.092  1.00  0.00    -0.091 C 
HETATM   30  C16 UNL     1      16.658  34.512  14.747  1.00  0.00     0.042 C 
HETATM   31  C17 UNL     1      15.374  32.793  16.119  1.00  0.00     0.042 C 
ENDBRANCH  27  28
ENDBRANCH   3  27
BRANCH   8  32
HETATM   32  O6  UNL     1      21.249  27.678  13.593  1.00  0.00    -0.390 OA
ATOM     33  H6  UNL     1      21.636  27.175  14.300  1.00  0.00     0.210 HD
ENDBRANCH   8  32
BRANCH   6  34
HETATM   34  O5  UNL     1      18.818  27.854  14.523  1.00  0.00    -0.380 OA
HETATM   35  C23 UNL     1      17.612  27.409  14.129  1.00  0.00     0.202 C 
ENDBRANCH   6  34
BRANCH   5  36
HETATM   36  N2  UNL     1      19.206  28.132  11.567  1.00  0.00    -0.344 N 
HETATM   37  C20 UNL     1      18.533  27.909  10.338  1.00  0.00     0.318 C 
HETATM   38  O2  UNL     1      17.490  28.552  10.010  1.00  0.00    -0.261 OA
ATOM     39  H2  UNL     1      20.039  27.577  11.761  1.00  0.00     0.163 HD
BRANCH  37  40
HETATM   40  C21 UNL     1      18.997  26.919   9.365  1.00  0.00     0.270 C 
HETATM   41  O3  UNL     1      18.619  27.072   8.154  1.00  0.00    -0.640 OA
HETATM   42  O4  UNL     1      19.812  25.851   9.710  1.00  0.00    -0.640 OA
ENDBRANCH  37  40
ENDBRANCH   5  36
TORSDOF 14
ENDMDL
MODEL 4
REMARK VINA RESULT: -7.239146026      1.115      1.433
REMARK  14 active torsions:
REMARK  status: ('A' for Active; 'I' for Inactive)
REMARK    1  A    between atoms: C2_2  and  C3_3 
REMARK    2  A    between atoms: C3_3  and  C4_4 
REMARK    3  A    between atoms: C4_4  and  N1_5 
REMARK    4  A    between atoms: C9_10  and  C10_11 
REMARK    5  A    between atoms: C10_11  and  C11_12 
REMARK    6  A    between atoms: C12_14  and  C13_15 
REMARK    7  A    between atoms: C13_15  and  C14_16 
REMARK    8  A    between atoms: C19_21  and  N2_22 
REMARK       I    between atoms: N2_22  and  C20_24 
REMARK    9  A    between atoms: C20_24  and  C21_26 
REMARK   10  A    between atoms: C22_29  and  O5_30 
REMARK   11  A    between atoms: C25_33  and  O6_34 
REMARK   12  A    between atoms: C26_36  and  O7_37 
REMARK   13  A    between atoms: O7_37  and  C27_38 
REMARK   14  A    between atoms: C27_38  and  O8_39 
ROOT
HETATM    1  C11 UNL     1      21.251  30.572  14.581  1.00  0.00     0.155 C 
HETATM    2  O1  UNL     1      20.106  29.898  14.792  1.00  0.00    -0.372 OA
HETATM    3  C12 UNL     1      18.890  30.408  14.763  1.00  0.00     0.069 C 
HETATM    4  C18 UNL     1      18.376  30.983  16.064  1.00  0.00     0.066 C 
HETATM    5  C19 UNL     1      18.135  32.467  15.795  1.00  0.00     0.125 C 
HETATM    6  C22 UNL     1      18.896  32.744  14.557  1.00  0.00     0.112 C 
HETATM    7  C24 UNL     1      18.563  31.487  13.782  1.00  0.00     0.081 C 
HETATM    8  C25 UNL     1      20.338  32.954  14.597  1.00  0.00     0.186 C 
HETATM    9  C26 UNL     1      21.319  31.986  15.035  1.00  0.00     0.184 C 
ENDROOT
BRANCH   1  10
HETATM   10  C10 UNL     1      21.745  30.289  13.193  1.00  0.00     0.048 C 
BRANCH  10  11
HETATM   11  C9  UNL     1      21.996  28.874  12.835  1.00  0.00     0.081 C 
HETATM   12  C8  UNL     1      23.433  28.772  12.252  1.00  0.00     0.020 C 
HETATM   13  C6  UNL     1      23.777  27.324  12.296  1.00  0.00     0.000 C 
HETATM   14  C5  UNL     1      22.657  26.400  11.910  1.00  0.00     0.130 C 
HETATM   15  C7  UNL     1      25.039  27.112  11.468  1.00  0.00     0.011 C 
HETATM   16  N1  UNL     1      21.540  27.020  11.270  1.00  0.00    -0.351 N 
HETATM   17  C29 UNL     1      21.161  28.339  11.726  1.00  0.00     0.224 C 
HETATM   18  O9  UNL     1      20.212  28.890  11.174  1.00  0.00    -0.273 OA
BRANCH  16  19
HETATM   19  C4  UNL     1      20.765  26.394  10.250  1.00  0.00     0.125 C 
BRANCH  19  20
HETATM   20  C3  UNL     1      21.139  25.001   9.873  1.00  0.00     0.020 C 
BRANCH  20  21
HETATM   21  C2  UNL     1      21.850  24.797   8.594  1.00  0.00    -0.003 C 
HETATM   22  C1  UNL     1      23.330  25.089   8.622  1.00  0.00     0.005 C 
ENDBRANCH  20  21
ENDBRANCH  19  20
ENDBRANCH  16  19
ENDBRANCH  10  11
ENDBRANCH   1  10
BRANCH   9  23
HETATM   23  O7  UNL     1      21.626  32.049  16.423  1.00  0.00    -0.356 OA
BRANCH  23  24
HETATM   24  C27 UNL     1      22.922  32.382  16.688  1.00  0.00     0.337 C 
BRANCH  24  25
HETATM   25  O8  UNL     1      23.476  33.006  15.581  1.00  0.00    -0.372 OA
HETATM   26  C28 UNL     1      24.010  34.222  15.984  1.00  0.00     0.204 C 
ENDBRANCH  24  25
ENDBRANCH  23  24
ENDBRANCH   9  23
BRANCH   3  27
HETATM   27  C13 UNL     1      17.964  29.234  14.383  1.00  0.00     0.065 C 
BRANCH  27  28
HETATM   28  C14 UNL     1      17.430  29.354  13.023  1.00  0.00    -0.022 C 
HETATM   29  C15 UNL     1      17.339  28.299  12.236  1.00  0.00    -0.091 C 
HETATM   30  C16 UNL     1      17.764  26.950  12.675  1.00  0.00     0.042 C 
HETATM   31  C17 UNL     1      16.792  28.434  10.846  1.00  0.00     0.042 C 
ENDBRANCH  27  28
ENDBRANCH   3  27
BRANCH   8  32
HETATM   32  O6  UNL     1      20.586  34.148  15.328  1.00  0.00    -0.390 OA
ATOM     33  H6  UNL     1      20.738  34.847  14.703  1.00  0.00     0.210 HD
ENDBRANCH   8  32
BRANCH   6  34
HETATM   34  O5  UNL     1      18.374  33.893  13.968  1.00  0.00    -0.380 OA
HETATM   35  C23 UNL     1      17.052  34.121  14.058  1.00  0.00     0.202 C 
ENDBRANCH   6  34
BRANCH   5  36
HETATM   36  N2  UNL     1      18.282  33.316  16.904  1.00  0.00    -0.344 N 
HETATM   37  C20 UNL     1      17.218  34.038  17.505  1.00  0.00     0.318 C 
HETATM   38  O2  UNL     1      16.026  33.970  17.076  1.00  0.00    -0.261 OA
ATOM     39  H2  UNL     1      19.214  33.421  17.304  1.00  0.00     0.163 HD
BRANCH  37  40
HETATM   40  C21 UNL     1      17.426  34.912  18.660  1.00  0.00     0.270 C 
HETATM   41  O3  UNL     1      16.485  35.726  18.949  1.00  0.00    -0.640 OA
HETATM   42  O4  UNL     1      18.581  34.883  19.426  1.00  0.00    -0.640 OA
ENDBRANCH  37  40
ENDBRANCH   5  36
TORSDOF 14
ENDMDL
MODEL 5
REMARK VINA RESULT: -7.220382662      2.441      8.014
REMARK  14 active torsions:
REMARK  status: ('A' for Active; 'I' for Inactive)
REMARK    1  A    between atoms: C2_2  and  C3_3 
REMARK    2  A    between atoms: C3_3  and  C4_4 
REMARK    3  A    between atoms: C4_4  and  N1_5 
REMARK    4  A    between atoms: C9_10  and  C10_11 
REMARK    5  A    between atoms: C10_11  and  C11_12 
REMARK    6  A    between atoms: C12_14  and  C13_15 
REMARK    7  A    between atoms: C13_15  and  C14_16 
REMARK    8  A    between atoms: C19_21  and  N2_22 
REMARK       I    between atoms: N2_22  and  C20_24 
REMARK    9  A    between atoms: C20_24  and  C21_26 
REMARK   10  A    between atoms: C22_29  and  O5_30 
REMARK   11  A    between atoms: C25_33  and  O6_34 
REMARK   12  A    between atoms: C26_36  and  O7_37 
REMARK   13  A    between atoms: O7_37  and  C27_38 
REMARK   14  A    between atoms: C27_38  and  O8_39 
ROOT
HETATM    1  C11 UNL     1      21.723  30.295  13.018  1.00  0.00     0.155 C 
HETATM    2  O1  UNL     1      20.590  30.936  12.678  1.00  0.00    -0.372 OA
HETATM    3  C12 UNL     1      19.375  30.422  12.687  1.00  0.00     0.069 C 
HETATM    4  C18 UNL     1      18.938  29.720  11.420  1.00  0.00     0.066 C 
HETATM    5  C19 UNL     1      18.686  28.267  11.816  1.00  0.00     0.125 C 
HETATM    6  C22 UNL     1      19.375  28.116  13.116  1.00  0.00     0.112 C 
HETATM    7  C24 UNL     1      18.995  29.438  13.747  1.00  0.00     0.081 C 
HETATM    8  C25 UNL     1      20.818  27.915  13.178  1.00  0.00     0.186 C 
HETATM    9  C26 UNL     1      21.820  28.844  12.705  1.00  0.00     0.184 C 
ENDROOT
BRANCH   1  10
HETATM   10  C10 UNL     1      22.135  30.712  14.397  1.00  0.00     0.048 C 
BRANCH  10  11
HETATM   11  C9  UNL     1      21.725  32.061  14.851  1.00  0.00     0.081 C 
HETATM   12  C8  UNL     1      22.933  32.713  15.580  1.00  0.00     0.020 C 
HETATM   13  C6  UNL     1      22.620  34.167  15.646  1.00  0.00     0.000 C 
HETATM   14  C5  UNL     1      21.187  34.487  15.964  1.00  0.00     0.130 C 
HETATM   15  C7  UNL     1      23.606  34.821  16.606  1.00  0.00     0.011 C 
HETATM   16  N1  UNL     1      20.406  33.396  16.456  1.00  0.00    -0.351 N 
HETATM   17  C29 UNL     1      20.667  32.088  15.898  1.00  0.00     0.224 C 
HETATM   18  O9  UNL     1      20.014  31.138  16.322  1.00  0.00    -0.273 OA
BRANCH  16  19
HETATM   19  C4  UNL     1      19.370  33.537  17.425  1.00  0.00     0.125 C 
BRANCH  19  20
HETATM   20  C3  UNL     1      18.835  34.911  17.650  1.00  0.00     0.020 C 
BRANCH  20  21
HETATM   21  C2  UNL     1      17.433  35.043  18.097  1.00  0.00    -0.003 C 
HETATM   22  C1  UNL     1      16.580  35.984  17.284  1.00  0.00     0.005 C 
ENDBRANCH  20  21
ENDBRANCH  19  20
ENDBRANCH  16  19
ENDBRANCH  10  11
ENDBRANCH   1  10
BRANCH   9  23
HETATM   23  O7  UNL     1      22.205  28.651  11.349  1.00  0.00    -0.356 OA
BRANCH  23  24
HETATM   24  C27 UNL     1      23.517  28.311  11.191  1.00  0.00     0.337 C 
BRANCH  24  25
HETATM   25  O8  UNL     1      23.940  27.574  12.286  1.00  0.00    -0.372 OA
HETATM   26  C28 UNL     1      24.806  26.584  11.841  1.00  0.00     0.204 C 
ENDBRANCH  24  25
ENDBRANCH  23  24
ENDBRANCH   9  23
BRANCH   3  27
HETATM   27  C13 UNL     1      18.426  31.619  12.900  1.00  0.00     0.065 C 
BRANCH  27  28
HETATM   28  C14 UNL     1      17.502  31.415  14.019  1.00  0.00    -0.022 C 
HETATM   29  C15 UNL     1      17.040  32.439  14.710  1.00  0.00    -0.091 C 
HETATM   30  C16 UNL     1      17.420  33.836  14.399  1.00  0.00     0.042 C 
HETATM   31  C17 UNL     1      16.097  32.218  15.855  1.00  0.00     0.042 C 
ENDBRANCH  27  28
ENDBRANCH   3  27
BRANCH   8  32
HETATM   32  O6  UNL     1      21.111  26.658  12.580  1.00  0.00    -0.390 OA
ATOM     33  H6  UNL     1      21.868  26.294  13.021  1.00  0.00     0.210 HD
ENDBRANCH   8  32
BRANCH   6  34
HETATM   34  O5  UNL     1      18.824  27.024  13.782  1.00  0.00    -0.380 OA
HETATM   35  C23 UNL     1      17.501  27.016  14.021  1.00  0.00     0.202 C 
ENDBRANCH   6  34
BRANCH   5  36
HETATM   36  N2  UNL     1      18.898  27.317  10.803  1.00  0.00    -0.344 N 
HETATM   37  C20 UNL     1      17.896  26.872   9.902  1.00  0.00     0.318 C 
HETATM   38  O2  UNL     1      16.705  27.307   9.944  1.00  0.00    -0.261 OA
ATOM     39  H2  UNL     1      19.833  26.922  10.709  1.00  0.00     0.163 HD
BRANCH  37  40
HETATM   40  C21 UNL     1      18.170  25.877   8.865  1.00  0.00     0.270 C 
HETATM   41  O3  UNL     1      17.684  24.708   9.038  1.00  0.00    -0.640 OA
HETATM   42  O4  UNL     1      18.920  26.158   7.733  1.00  0.00    -0.640 OA
ENDBRANCH  37  40
ENDBRANCH   5  36
TORSDOF 14
ENDMDL
