MODEL 1
REMARK VINA RESULT: -7.602203603      0.000      0.000
REMARK  14 active torsions:
REMARK  status: ('A' for Active; 'I' for Inactive)
REMARK    1  A    between atoms: C2_2  and  O1_3 
REMARK    2  A    between atoms: O1_3  and  C3_4 
REMARK       I    between atoms: C3_4  and  N1_6 
REMARK       I    between atoms: N2_9  and  C6_10 
REMARK    3  A    between atoms: C6_10  and  C7_12 
REMARK    4  A    between atoms: C7_12  and  N3_13 
REMARK    5  A    between atoms: C7_12  and  C22_38 
REMARK    6  A    between atoms: N3_13  and  C8_15 
REMARK    7  A    between atoms: C8_15  and  C9_16 
REMARK    8  A    between atoms: C8_15  and  C16_26 
REMARK       I    between atoms: C9_16  and  N4_18 
REMARK    9  A    between atoms: C13_22  and  C14_23 
REMARK   10  A    between atoms: C14_23  and  S1_24 
REMARK   11  A    between atoms: C16_26  and  C21_31 
REMARK   12  A    between atoms: C17_27  and  C18_28 
REMARK   13  A    between atoms: C21_31  and  O5_32 
REMARK   14  A    between atoms: N5_34  and  O6_36 
ROOT
HETATM    1  C8  UNL     1      21.191  27.364  11.732  1.00  0.00     0.112 C 
ENDROOT
BRANCH   1   2
HETATM    2  N3  UNL     1      19.871  26.892  11.644  1.00  0.00    -0.371 N 
ATOM      3  H3  UNL     1      19.727  26.043  12.192  1.00  0.00     0.160 HD
BRANCH   2   4
HETATM    4  C7  UNL     1      18.734  27.293  11.004  1.00  0.00     0.177 C 
BRANCH   4   5
HETATM    5  C6  UNL     1      18.166  25.956  10.352  1.00  0.00     0.243 C 
HETATM    6  N2  UNL     1      18.214  25.929   8.955  1.00  0.00    -0.347 N 
HETATM    7  C5  UNL     1      17.643  24.739   8.301  1.00  0.00     0.146 C 
HETATM    8  C25 UNL     1      18.793  26.917   8.099  1.00  0.00     0.146 C 
HETATM    9  C4  UNL     1      16.711  25.264   7.202  1.00  0.00     0.148 C 
HETATM   10  N1  UNL     1      17.568  25.910   6.242  1.00  0.00    -0.325 N 
HETATM   11  C3  UNL     1      17.131  26.106   4.920  1.00  0.00     0.362 C 
HETATM   12  C26 UNL     1      18.874  26.367   6.660  1.00  0.00     0.148 C 
HETATM   13  O2  UNL     1      17.922  26.656   4.092  1.00  0.00    -0.238 OA
HETATM   14  O3  UNL     1      17.757  25.109  11.136  1.00  0.00    -0.271 OA
BRANCH  11  15
HETATM   15  O1  UNL     1      15.897  25.752   4.420  1.00  0.00    -0.304 OA
BRANCH  15  16
HETATM   16  C2  UNL     1      15.626  24.471   3.877  1.00  0.00     0.176 C 
HETATM   17  C1  UNL     1      14.394  23.921   4.542  1.00  0.00     0.034 C 
ENDBRANCH  15  16
ENDBRANCH  11  15
ENDBRANCH   4   5
BRANCH   4  18
HETATM   18  C22 UNL     1      17.486  27.787  11.649  1.00  0.00     0.009 C 
HETATM   19  C23 UNL     1      17.490  27.723  13.136  1.00  0.00     0.012 C 
HETATM   20  C24 UNL     1      16.684  28.835  10.989  1.00  0.00     0.012 C 
ENDBRANCH   4  18
ENDBRANCH   2   4
ENDBRANCH   1   2
BRANCH   1  21
HETATM   21  C9  UNL     1      21.348  28.614  12.421  1.00  0.00     0.271 C 
HETATM   22  O4  UNL     1      21.761  29.578  11.652  1.00  0.00    -0.266 OA
HETATM   23  N4  UNL     1      21.143  29.038  13.750  1.00  0.00    -0.341 N 
HETATM   24  C10 UNL     1      20.574  28.385  14.925  1.00  0.00     0.127 C 
HETATM   25  C13 UNL     1      21.505  30.353  14.314  1.00  0.00     0.097 C 
HETATM   26  C11 UNL     1      19.849  29.455  15.701  1.00  0.00     0.022 C 
HETATM   27  C12 UNL     1      20.297  30.743  15.117  1.00  0.00     0.028 C 
BRANCH  25  28
HETATM   28  C14 UNL     1      21.877  31.419  13.370  1.00  0.00     0.098 C 
BRANCH  28  29
HETATM   29  S1  UNL     1      22.062  32.951  14.412  1.00  0.00    -0.172 SA
HETATM   30  C15 UNL     1      23.781  33.037  15.021  1.00  0.00     0.089 C 
ENDBRANCH  28  29
ENDBRANCH  25  28
ENDBRANCH   1  21
BRANCH   1  31
HETATM   31  C16 UNL     1      22.152  26.227  11.792  1.00  0.00     0.045 C 
HETATM   32  C17 UNL     1      23.570  26.313  11.595  1.00  0.00    -0.005 C 
BRANCH  32  33
HETATM   33  C18 UNL     1      24.249  26.808  10.392  1.00  0.00     0.001 C 
HETATM   34  C19 UNL     1      25.766  26.562  10.693  1.00  0.00     0.013 C 
HETATM   35  C20 UNL     1      24.216  28.277  10.095  1.00  0.00     0.013 C 
ENDBRANCH  32  33
BRANCH  31  36
HETATM   36  C21 UNL     1      21.480  24.989  11.273  1.00  0.00     0.172 C 
HETATM   37  N5  UNL     1      21.367  24.597  10.095  1.00  0.00    -0.247 N 
ATOM     38  H5  UNL     1      20.860  23.714  10.045  1.00  0.00     0.196 HD
BRANCH  36  39
HETATM   39  O5  UNL     1      20.862  24.092  12.180  1.00  0.00    -0.344 OA
ATOM     40  H5  UNL     1      19.918  24.100  12.282  1.00  0.00     0.219 HD
ENDBRANCH  36  39
BRANCH  37  41
HETATM   41  O6  UNL     1      21.726  25.014   8.899  1.00  0.00    -0.288 OA
ATOM     42  H6  UNL     1      22.106  24.637   8.113  1.00  0.00     0.244 HD
ENDBRANCH  37  41
ENDBRANCH  31  36
ENDBRANCH   1  31
TORSDOF 14
ENDMDL
MODEL 2
REMARK VINA RESULT: -7.455093430      7.364     12.553
REMARK  14 active torsions:
REMARK  status: ('A' for Active; 'I' for Inactive)
REMARK    1  A    between atoms: C2_2  and  O1_3 
REMARK    2  A    between atoms: O1_3  and  C3_4 
REMARK       I    between atoms: C3_4  and  N1_6 
REMARK       I    between atoms: N2_9  and  C6_10 
REMARK    3  A    between atoms: C6_10  and  C7_12 
REMARK    4  A    between atoms: C7_12  and  N3_13 
REMARK    5  A    between atoms: C7_12  and  C22_38 
REMARK    6  A    between atoms: N3_13  and  C8_15 
REMARK    7  A    between atoms: C8_15  and  C9_16 
REMARK    8  A    between atoms: C8_15  and  C16_26 
REMARK       I    between atoms: C9_16  and  N4_18 
REMARK    9  A    between atoms: C13_22  and  C14_23 
REMARK   10  A    between atoms: C14_23  and  S1_24 
REMARK   11  A    between atoms: C16_26  and  C21_31 
REMARK   12  A    between atoms: C17_27  and  C18_28 
REMARK   13  A    between atoms: C21_31  and  O5_32 
REMARK   14  A    between atoms: N5_34  and  O6_36 
ROOT
HETATM    1  C8  UNL     1      19.329  33.386  15.934  1.00  0.00     0.112 C 
ENDROOT
BRANCH   1   2
HETATM    2  N3  UNL     1      18.401  34.430  16.091  1.00  0.00    -0.371 N 
ATOM      3  H3  UNL     1      18.385  35.057  15.287  1.00  0.00     0.160 HD
BRANCH   2   4
HETATM    4  C7  UNL     1      17.516  34.808  17.059  1.00  0.00     0.177 C 
BRANCH   4   5
HETATM    5  C6  UNL     1      16.992  36.229  16.568  1.00  0.00     0.243 C 
HETATM    6  N2  UNL     1      17.416  37.304  17.356  1.00  0.00    -0.347 N 
HETATM    7  C5  UNL     1      16.908  38.635  16.980  1.00  0.00     0.146 C 
HETATM    8  C25 UNL     1      18.321  37.251  18.462  1.00  0.00     0.146 C 
HETATM    9  C4  UNL     1      16.381  39.269  18.273  1.00  0.00     0.148 C 
HETATM   10  N1  UNL     1      17.539  39.472  19.106  1.00  0.00    -0.325 N 
HETATM   11  C3  UNL     1      17.507  40.416  20.147  1.00  0.00     0.362 C 
HETATM   12  C26 UNL     1      18.725  38.683  18.865  1.00  0.00     0.148 C 
HETATM   13  O2  UNL     1      18.553  40.589  20.846  1.00  0.00    -0.238 OA
HETATM   14  O3  UNL     1      16.287  36.225  15.568  1.00  0.00    -0.271 OA
BRANCH  11  15
HETATM   15  O1  UNL     1      16.423  41.193  20.496  1.00  0.00    -0.304 OA
BRANCH  15  16
HETATM   16  C2  UNL     1      15.753  41.063  21.738  1.00  0.00     0.176 C 
HETATM   17  C1  UNL     1      15.042  39.738  21.762  1.00  0.00     0.034 C 
ENDBRANCH  15  16
ENDBRANCH  11  15
ENDBRANCH   4   5
BRANCH   4  18
HETATM   18  C22 UNL     1      16.206  34.165  17.355  1.00  0.00     0.009 C 
HETATM   19  C23 UNL     1      15.333  34.937  18.283  1.00  0.00     0.012 C 
HETATM   20  C24 UNL     1      15.570  33.295  16.347  1.00  0.00     0.012 C 
ENDBRANCH   4  18
ENDBRANCH   2   4
ENDBRANCH   1   2
BRANCH   1  21
HETATM   21  C9  UNL     1      18.870  32.274  15.149  1.00  0.00     0.271 C 
HETATM   22  O4  UNL     1      18.194  32.631  14.097  1.00  0.00    -0.266 OA
HETATM   23  N4  UNL     1      18.996  30.875  15.257  1.00  0.00    -0.341 N 
HETATM   24  C10 UNL     1      19.754  30.012  16.159  1.00  0.00     0.127 C 
HETATM   25  C13 UNL     1      18.319  29.868  14.417  1.00  0.00     0.097 C 
HETATM   26  C11 UNL     1      20.195  28.823  15.344  1.00  0.00     0.022 C 
HETATM   27  C12 UNL     1      19.406  28.884  14.090  1.00  0.00     0.028 C 
BRANCH  25  28
HETATM   28  C14 UNL     1      17.651  30.342  13.193  1.00  0.00     0.098 C 
BRANCH  28  29
HETATM   29  S1  UNL     1      18.197  29.169  11.854  1.00  0.00    -0.172 SA
HETATM   30  C15 UNL     1      16.764  28.791  10.789  1.00  0.00     0.089 C 
ENDBRANCH  28  29
ENDBRANCH  25  28
ENDBRANCH   1  21
BRANCH   1  31
HETATM   31  C16 UNL     1      20.721  33.917  15.935  1.00  0.00     0.045 C 
HETATM   32  C17 UNL     1      21.730  33.635  14.955  1.00  0.00    -0.005 C 
BRANCH  32  33
HETATM   33  C18 UNL     1      22.249  32.308  14.604  1.00  0.00     0.001 C 
HETATM   34  C19 UNL     1      23.793  32.533  14.482  1.00  0.00     0.013 C 
HETATM   35  C20 UNL     1      21.903  31.725  13.267  1.00  0.00     0.013 C 
ENDBRANCH  32  33
BRANCH  31  36
HETATM   36  C21 UNL     1      21.190  34.061  17.353  1.00  0.00     0.172 C 
HETATM   37  N5  UNL     1      21.725  33.209  18.089  1.00  0.00    -0.247 N 
ATOM     38  H5  UNL     1      21.940  33.595  19.008  1.00  0.00     0.196 HD
BRANCH  36  39
HETATM   39  O5  UNL     1      21.038  35.302  18.022  1.00  0.00    -0.344 OA
ATOM     40  H5  UNL     1      21.540  35.479  18.809  1.00  0.00     0.219 HD
ENDBRANCH  36  39
BRANCH  37  41
HETATM   41  O6  UNL     1      22.088  31.946  18.001  1.00  0.00    -0.288 OA
ATOM     42  H6  UNL     1      22.075  31.176  18.558  1.00  0.00     0.244 HD
ENDBRANCH  37  41
ENDBRANCH  31  36
ENDBRANCH   1  31
TORSDOF 14
ENDMDL
MODEL 3
REMARK VINA RESULT: -7.394247790      3.782      8.597
REMARK  14 active torsions:
REMARK  status: ('A' for Active; 'I' for Inactive)
REMARK    1  A    between atoms: C2_2  and  O1_3 
REMARK    2  A    between atoms: O1_3  and  C3_4 
REMARK       I    between atoms: C3_4  and  N1_6 
REMARK       I    between atoms: N2_9  and  C6_10 
REMARK    3  A    between atoms: C6_10  and  C7_12 
REMARK    4  A    between atoms: C7_12  and  N3_13 
REMARK    5  A    between atoms: C7_12  and  C22_38 
REMARK    6  A    between atoms: N3_13  and  C8_15 
REMARK    7  A    between atoms: C8_15  and  C9_16 
REMARK    8  A    between atoms: C8_15  and  C16_26 
REMARK       I    between atoms: C9_16  and  N4_18 
REMARK    9  A    between atoms: C13_22  and  C14_23 
REMARK   10  A    between atoms: C14_23  and  S1_24 
REMARK   11  A    between atoms: C16_26  and  C21_31 
REMARK   12  A    between atoms: C17_27  and  C18_28 
REMARK   13  A    between atoms: C21_31  and  O5_32 
REMARK   14  A    between atoms: N5_34  and  O6_36 
ROOT
HETATM    1  C8  UNL     1      19.992  27.164  11.952  1.00  0.00     0.112 C 
ENDROOT
BRANCH   1   2
HETATM    2  N3  UNL     1      20.196  27.937  13.108  1.00  0.00    -0.371 N 
ATOM      3  H3  UNL     1      20.242  27.366  13.951  1.00  0.00     0.160 HD
BRANCH   2   4
HETATM    4  C7  UNL     1      20.347  29.267  13.375  1.00  0.00     0.177 C 
BRANCH   4   5
HETATM    5  C6  UNL     1      19.639  29.460  14.788  1.00  0.00     0.243 C 
HETATM    6  N2  UNL     1      18.769  30.552  14.852  1.00  0.00    -0.347 N 
HETATM    7  C5  UNL     1      18.135  30.811  16.158  1.00  0.00     0.146 C 
HETATM    8  C25 UNL     1      18.400  31.419  13.777  1.00  0.00     0.146 C 
HETATM    9  C4  UNL     1      18.336  32.305  16.439  1.00  0.00     0.148 C 
HETATM   10  N1  UNL     1      17.558  32.995  15.441  1.00  0.00    -0.325 N 
HETATM   11  C3  UNL     1      17.148  34.323  15.655  1.00  0.00     0.362 C 
HETATM   12  C26 UNL     1      17.219  32.309  14.215  1.00  0.00     0.148 C 
HETATM   13  O2  UNL     1      16.442  34.893  14.767  1.00  0.00    -0.238 OA
HETATM   14  O3  UNL     1      19.930  28.640  15.649  1.00  0.00    -0.271 OA
BRANCH  11  15
HETATM   15  O1  UNL     1      17.446  35.088  16.761  1.00  0.00    -0.304 OA
BRANCH  15  16
HETATM   16  C2  UNL     1      16.452  35.737  17.537  1.00  0.00     0.176 C 
HETATM   17  C1  UNL     1      15.470  34.703  18.016  1.00  0.00     0.034 C 
ENDBRANCH  15  16
ENDBRANCH  11  15
ENDBRANCH   4   5
BRANCH   4  18
HETATM   18  C22 UNL     1      21.629  29.969  13.658  1.00  0.00     0.009 C 
HETATM   19  C23 UNL     1      22.785  29.067  13.919  1.00  0.00     0.012 C 
HETATM   20  C24 UNL     1      21.888  31.295  13.063  1.00  0.00     0.012 C 
ENDBRANCH   4  18
ENDBRANCH   2   4
ENDBRANCH   1   2
BRANCH   1  21
HETATM   21  C9  UNL     1      21.166  26.521  11.433  1.00  0.00     0.271 C 
HETATM   22  O4  UNL     1      21.027  25.236  11.288  1.00  0.00    -0.266 OA
HETATM   23  N4  UNL     1      22.439  26.972  11.032  1.00  0.00    -0.341 N 
HETATM   24  C10 UNL     1      23.020  28.303  10.879  1.00  0.00     0.127 C 
HETATM   25  C13 UNL     1      23.589  26.125  10.655  1.00  0.00     0.097 C 
HETATM   26  C11 UNL     1      23.956  28.230   9.701  1.00  0.00     0.022 C 
HETATM   27  C12 UNL     1      24.127  26.784   9.416  1.00  0.00     0.028 C 
BRANCH  25  28
HETATM   28  C14 UNL     1      23.332  24.695  10.422  1.00  0.00     0.098 C 
BRANCH  28  29
HETATM   29  S1  UNL     1      23.373  24.487   8.572  1.00  0.00    -0.172 SA
HETATM   30  C15 UNL     1      21.657  24.443   7.952  1.00  0.00     0.089 C 
ENDBRANCH  28  29
ENDBRANCH  25  28
ENDBRANCH   1  21
BRANCH   1  31
HETATM   31  C16 UNL     1      18.622  26.579  11.948  1.00  0.00     0.045 C 
HETATM   32  C17 UNL     1      17.998  25.905  10.845  1.00  0.00    -0.005 C 
BRANCH  32  33
HETATM   33  C18 UNL     1      17.748  26.471   9.515  1.00  0.00     0.001 C 
HETATM   34  C19 UNL     1      17.657  25.213   8.587  1.00  0.00     0.013 C 
HETATM   35  C20 UNL     1      18.825  27.277   8.856  1.00  0.00     0.013 C 
ENDBRANCH  32  33
BRANCH  31  36
HETATM   36  C21 UNL     1      17.726  27.421  12.809  1.00  0.00     0.172 C 
HETATM   37  N5  UNL     1      17.038  28.409  12.488  1.00  0.00    -0.247 N 
ATOM     38  H5  UNL     1      16.525  28.780  13.287  1.00  0.00     0.196 HD
BRANCH  36  39
HETATM   39  O5  UNL     1      17.589  27.119  14.187  1.00  0.00    -0.344 OA
ATOM     40  H5  UNL     1      16.726  27.112  14.585  1.00  0.00     0.219 HD
ENDBRANCH  36  39
BRANCH  37  41
HETATM   41  O6  UNL     1      16.795  29.105  11.396  1.00  0.00    -0.288 OA
ATOM     42  H6  UNL     1      16.883  30.007  11.109  1.00  0.00     0.244 HD
ENDBRANCH  37  41
ENDBRANCH  31  36
ENDBRANCH   1  31
TORSDOF 14
ENDMDL
MODEL 4
REMARK VINA RESULT: -7.193552008      6.757     13.183
REMARK  14 active torsions:
REMARK  status: ('A' for Active; 'I' for Inactive)
REMARK    1  A    between atoms: C2_2  and  O1_3 
REMARK    2  A    between atoms: O1_3  and  C3_4 
REMARK       I    between atoms: C3_4  and  N1_6 
REMARK       I    between atoms: N2_9  and  C6_10 
REMARK    3  A    between atoms: C6_10  and  C7_12 
REMARK    4  A    between atoms: C7_12  and  N3_13 
REMARK    5  A    between atoms: C7_12  and  C22_38 
REMARK    6  A    between atoms: N3_13  and  C8_15 
REMARK    7  A    between atoms: C8_15  and  C9_16 
REMARK    8  A    between atoms: C8_15  and  C16_26 
REMARK       I    between atoms: C9_16  and  N4_18 
REMARK    9  A    between atoms: C13_22  and  C14_23 
REMARK   10  A    between atoms: C14_23  and  S1_24 
REMARK   11  A    between atoms: C16_26  and  C21_31 
REMARK   12  A    between atoms: C17_27  and  C18_28 
REMARK   13  A    between atoms: C21_31  and  O5_32 
REMARK   14  A    between atoms: N5_34  and  O6_36 
ROOT
HETATM    1  C8  UNL     1      18.991  34.275  16.647  1.00  0.00     0.112 C 
ENDROOT
BRANCH   1   2
HETATM    2  N3  UNL     1      20.292  34.395  17.165  1.00  0.00    -0.371 N 
ATOM      3  H3  UNL     1      20.326  34.211  18.168  1.00  0.00     0.160 HD
BRANCH   2   4
HETATM    4  C7  UNL     1      21.519  34.698  16.653  1.00  0.00     0.177 C 
BRANCH   4   5
HETATM    5  C6  UNL     1      22.121  35.749  17.687  1.00  0.00     0.243 C 
HETATM    6  N2  UNL     1      21.882  37.086  17.355  1.00  0.00    -0.347 N 
HETATM    7  C5  UNL     1      22.471  38.099  18.248  1.00  0.00     0.146 C 
HETATM    8  C25 UNL     1      21.094  37.571  16.265  1.00  0.00     0.146 C 
HETATM    9  C4  UNL     1      23.185  39.105  17.337  1.00  0.00     0.148 C 
HETATM   10  N1  UNL     1      22.142  39.754  16.583  1.00  0.00    -0.325 N 
HETATM   11  C3  UNL     1      22.369  41.010  15.994  1.00  0.00     0.362 C 
HETATM   12  C26 UNL     1      20.869  39.088  16.429  1.00  0.00     0.148 C 
HETATM   13  O2  UNL     1      21.421  41.565  15.358  1.00  0.00    -0.238 OA
HETATM   14  O3  UNL     1      22.717  35.276  18.646  1.00  0.00    -0.271 OA
BRANCH  11  15
HETATM   15  O1  UNL     1      23.551  41.717  16.039  1.00  0.00    -0.304 OA
BRANCH  15  16
HETATM   16  C2  UNL     1      24.381  41.899  14.905  1.00  0.00     0.176 C 
HETATM   17  C1  UNL     1      25.815  41.747  15.333  1.00  0.00     0.034 C 
ENDBRANCH  15  16
ENDBRANCH  11  15
ENDBRANCH   4   5
BRANCH   4  18
HETATM   18  C22 UNL     1      22.685  33.776  16.552  1.00  0.00     0.009 C 
HETATM   19  C23 UNL     1      22.397  32.369  16.941  1.00  0.00     0.012 C 
HETATM   20  C24 UNL     1      23.737  34.031  15.549  1.00  0.00     0.012 C 
ENDBRANCH   4  18
ENDBRANCH   2   4
ENDBRANCH   1   2
BRANCH   1  21
HETATM   21  C9  UNL     1      18.806  33.211  15.701  1.00  0.00     0.271 C 
HETATM   22  O4  UNL     1      18.588  33.631  14.490  1.00  0.00    -0.266 OA
HETATM   23  N4  UNL     1      18.819  31.805  15.788  1.00  0.00    -0.341 N 
HETATM   24  C10 UNL     1      19.145  30.877  16.868  1.00  0.00     0.127 C 
HETATM   25  C13 UNL     1      18.456  30.859  14.714  1.00  0.00     0.097 C 
HETATM   26  C11 UNL     1      19.802  29.684  16.224  1.00  0.00     0.022 C 
HETATM   27  C12 UNL     1      19.540  29.820  14.770  1.00  0.00     0.028 C 
BRANCH  25  28
HETATM   28  C14 UNL     1      18.314  31.399  13.352  1.00  0.00     0.098 C 
BRANCH  28  29
HETATM   29  S1  UNL     1      18.807  30.005  12.221  1.00  0.00    -0.172 SA
HETATM   30  C15 UNL     1      17.299  29.126  11.685  1.00  0.00     0.089 C 
ENDBRANCH  28  29
ENDBRANCH  25  28
ENDBRANCH   1  21
BRANCH   1  31
HETATM   31  C16 UNL     1      17.983  34.711  17.655  1.00  0.00     0.045 C 
HETATM   32  C17 UNL     1      16.622  34.262  17.732  1.00  0.00    -0.005 C 
BRANCH  32  33
HETATM   33  C18 UNL     1      15.608  34.389  16.679  1.00  0.00     0.001 C 
HETATM   34  C19 UNL     1      14.338  34.890  17.445  1.00  0.00     0.013 C 
HETATM   35  C20 UNL     1      15.106  33.148  16.004  1.00  0.00     0.013 C 
ENDBRANCH  32  33
BRANCH  31  36
HETATM   36  C21 UNL     1      18.233  36.148  18.010  1.00  0.00     0.172 C 
HETATM   37  N5  UNL     1      17.874  37.175  17.403  1.00  0.00    -0.247 N 
ATOM     38  H5  UNL     1      18.187  38.018  17.884  1.00  0.00     0.196 HD
BRANCH  36  39
HETATM   39  O5  UNL     1      18.972  36.465  19.177  1.00  0.00    -0.344 OA
ATOM     40  H5  UNL     1      18.823  37.293  19.618  1.00  0.00     0.219 HD
ENDBRANCH  36  39
BRANCH  37  41
HETATM   41  O6  UNL     1      17.200  37.468  16.310  1.00  0.00    -0.288 OA
ATOM     42  H6  UNL     1      16.978  38.248  15.815  1.00  0.00     0.244 HD
ENDBRANCH  37  41
ENDBRANCH  31  36
ENDBRANCH   1  31
TORSDOF 14
ENDMDL
MODEL 5
REMARK VINA RESULT: -7.067333932      4.038      7.434
REMARK  14 active torsions:
REMARK  status: ('A' for Active; 'I' for Inactive)
REMARK    1  A    between atoms: C2_2  and  O1_3 
REMARK    2  A    between atoms: O1_3  and  C3_4 
REMARK       I    between atoms: C3_4  and  N1_6 
REMARK       I    between atoms: N2_9  and  C6_10 
REMARK    3  A    between atoms: C6_10  and  C7_12 
REMARK    4  A    between atoms: C7_12  and  N3_13 
REMARK    5  A    between atoms: C7_12  and  C22_38 
REMARK    6  A    between atoms: N3_13  and  C8_15 
REMARK    7  A    between atoms: C8_15  and  C9_16 
REMARK    8  A    between atoms: C8_15  and  C16_26 
REMARK       I    between atoms: C9_16  and  N4_18 
REMARK    9  A    between atoms: C13_22  and  C14_23 
REMARK   10  A    between atoms: C14_23  and  S1_24 
REMARK   11  A    between atoms: C16_26  and  C21_31 
REMARK   12  A    between atoms: C17_27  and  C18_28 
REMARK   13  A    between atoms: C21_31  and  O5_32 
REMARK   14  A    between atoms: N5_34  and  O6_36 
ROOT
HETATM    1  C8  UNL     1      19.621  32.500  15.548  1.00  0.00     0.112 C 
ENDROOT
BRANCH   1   2
HETATM    2  N3  UNL     1      20.506  32.047  14.555  1.00  0.00    -0.371 N 
ATOM      3  H3  UNL     1      20.974  32.816  14.076  1.00  0.00     0.160 HD
BRANCH   2   4
HETATM    4  C7  UNL     1      20.889  30.828  14.075  1.00  0.00     0.177 C 
BRANCH   4   5
HETATM    5  C6  UNL     1      20.118  30.699  12.688  1.00  0.00     0.243 C 
HETATM    6  N2  UNL     1      19.402  29.508  12.535  1.00  0.00    -0.347 N 
HETATM    7  C5  UNL     1      18.721  29.312  11.243  1.00  0.00     0.146 C 
HETATM    8  C25 UNL     1      19.231  28.479  13.513  1.00  0.00     0.146 C 
HETATM    9  C4  UNL     1      19.103  27.905  10.770  1.00  0.00     0.148 C 
HETATM   10  N1  UNL     1      18.498  27.000  11.714  1.00  0.00    -0.325 N 
HETATM   11  C3  UNL     1      18.259  25.660  11.361  1.00  0.00     0.362 C 
HETATM   12  C26 UNL     1      18.154  27.486  13.031  1.00  0.00     0.148 C 
HETATM   13  O2  UNL     1      17.700  24.897  12.208  1.00  0.00    -0.238 OA
HETATM   14  O3  UNL     1      20.234  31.645  11.920  1.00  0.00    -0.271 OA
BRANCH  11  15
HETATM   15  O1  UNL     1      18.581  25.077  10.154  1.00  0.00    -0.304 OA
BRANCH  15  16
HETATM   16  C2  UNL     1      17.754  25.178   9.007  1.00  0.00     0.176 C 
HETATM   17  C1  UNL     1      18.597  25.638   7.850  1.00  0.00     0.034 C 
ENDBRANCH  15  16
ENDBRANCH  11  15
ENDBRANCH   4   5
BRANCH   4  18
HETATM   18  C22 UNL     1      22.256  30.451  13.619  1.00  0.00     0.009 C 
HETATM   19  C23 UNL     1      23.340  31.351  14.098  1.00  0.00     0.012 C 
HETATM   20  C24 UNL     1      22.577  29.034  13.358  1.00  0.00     0.012 C 
ENDBRANCH   4  18
ENDBRANCH   2   4
ENDBRANCH   1   2
BRANCH   1  21
HETATM   21  C9  UNL     1      19.981  33.746  16.165  1.00  0.00     0.271 C 
HETATM   22  O4  UNL     1      20.953  34.359  15.557  1.00  0.00    -0.266 OA
HETATM   23  N4  UNL     1      19.508  34.464  17.281  1.00  0.00    -0.341 N 
HETATM   24  C10 UNL     1      18.377  34.268  18.183  1.00  0.00     0.127 C 
HETATM   25  C13 UNL     1      20.113  35.681  17.858  1.00  0.00     0.097 C 
HETATM   26  C11 UNL     1      17.878  35.642  18.550  1.00  0.00     0.022 C 
HETATM   27  C12 UNL     1      18.936  36.581  18.106  1.00  0.00     0.028 C 
BRANCH  25  28
HETATM   28  C14 UNL     1      21.146  36.368  17.066  1.00  0.00     0.098 C 
BRANCH  28  29
HETATM   29  S1  UNL     1      21.172  38.115  17.711  1.00  0.00    -0.172 SA
HETATM   30  C15 UNL     1      21.097  39.261  16.292  1.00  0.00     0.089 C 
ENDBRANCH  28  29
ENDBRANCH  25  28
ENDBRANCH   1  21
BRANCH   1  31
HETATM   31  C16 UNL     1      18.228  32.063  15.249  1.00  0.00     0.045 C 
HETATM   32  C17 UNL     1      17.149  32.916  14.840  1.00  0.00    -0.005 C 
BRANCH  32  33
HETATM   33  C18 UNL     1      16.617  34.058  15.590  1.00  0.00     0.001 C 
HETATM   34  C19 UNL     1      15.135  33.651  15.888  1.00  0.00     0.013 C 
HETATM   35  C20 UNL     1      16.453  35.373  14.888  1.00  0.00     0.013 C 
ENDBRANCH  32  33
BRANCH  31  36
HETATM   36  C21 UNL     1      17.869  30.916  16.148  1.00  0.00     0.172 C 
HETATM   37  N5  UNL     1      18.622  30.191  16.827  1.00  0.00    -0.247 N 
ATOM     38  H5  UNL     1      18.093  29.491  17.346  1.00  0.00     0.196 HD
BRANCH  36  39
HETATM   39  O5  UNL     1      16.511  30.541  16.300  1.00  0.00    -0.344 OA
ATOM     40  H5  UNL     1      16.219  30.144  17.113  1.00  0.00     0.219 HD
ENDBRANCH  36  39
BRANCH  37  41
HETATM   41  O6  UNL     1      19.914  30.084  17.055  1.00  0.00    -0.288 OA
ATOM     42  H6  UNL     1      20.630  30.660  17.299  1.00  0.00     0.244 HD
ENDBRANCH  37  41
ENDBRANCH  31  36
ENDBRANCH   1  31
TORSDOF 14
ENDMDL
