MODEL 1
REMARK VINA RESULT: -8.616007997      0.000      0.000
REMARK  17 active torsions:
REMARK  status: ('A' for Active; 'I' for Inactive)
REMARK    1  A    between atoms: C2_2  and  C4_4 
REMARK    2  A    between atoms: C4_4  and  C5_5 
REMARK    3  A    between atoms: C5_5  and  N1_6 
REMARK    4  A    between atoms: C5_5  and  C25_34 
REMARK    5  A    between atoms: N1_6  and  C6_8 
REMARK    6  A    between atoms: C6_8  and  O1_9 
REMARK    7  A    between atoms: C6_8  and  C7_11 
REMARK       I    between atoms: N2_18  and  C14_19 
REMARK    8  A    between atoms: C14_19  and  C15_21 
REMARK    9  A    between atoms: C15_21  and  C16_22 
REMARK   10  A    between atoms: C15_21  and  N3_26 
REMARK   11  A    between atoms: C16_22  and  C17_23 
REMARK       I    between atoms: N3_26  and  C20_27 
REMARK   12  A    between atoms: C20_27  and  O4_29 
REMARK   13  A    between atoms: O4_29  and  C21_30 
REMARK   14  A    between atoms: C25_34  and  C26_36 
REMARK   15  A    between atoms: C26_36  and  O7_38 
REMARK   16  A    between atoms: O7_38  and  C27_39 
REMARK   17  A    between atoms: C27_39  and  C28_40 
ROOT
HETATM    1  C7  UNL     1      21.265  33.908  16.983  1.00  0.00     0.162 C 
HETATM    2  C8  UNL     1      22.282  34.578  16.013  1.00  0.00     0.034 C 
HETATM    3  C9  UNL     1      23.662  34.057  16.177  1.00  0.00     0.002 C 
HETATM    4  C10 UNL     1      24.064  33.385  14.854  1.00  0.00     0.000 C 
HETATM    5  C11 UNL     1      23.609  31.971  14.892  1.00  0.00     0.002 C 
HETATM    6  C12 UNL     1      22.157  31.846  14.558  1.00  0.00     0.020 C 
HETATM    7  C13 UNL     1      21.245  31.650  15.707  1.00  0.00     0.127 C 
HETATM    8  N2  UNL     1      20.594  32.833  16.287  1.00  0.00    -0.334 N 
HETATM    9  C14 UNL     1      19.237  32.711  16.252  1.00  0.00     0.281 C 
HETATM   10  O2  UNL     1      18.582  33.467  17.081  1.00  0.00    -0.265 OA
ENDROOT
BRANCH   1  11
HETATM   11  C6  UNL     1      20.524  34.933  17.690  1.00  0.00     0.135 C 
BRANCH  11  12
HETATM   12  N1  UNL     1      19.945  36.117  17.284  1.00  0.00    -0.361 N 
ATOM     13  H1  UNL     1      19.220  36.020  16.574  1.00  0.00     0.162 HD
BRANCH  12  14
HETATM   14  C5  UNL     1      20.209  37.487  17.710  1.00  0.00     0.164 C 
BRANCH  14  15
HETATM   15  C4  UNL     1      21.334  38.094  16.896  1.00  0.00     0.037 C 
BRANCH  15  16
HETATM   16  C2  UNL     1      21.249  39.522  16.513  1.00  0.00    -0.020 C 
HETATM   17  C1  UNL     1      22.656  40.099  16.918  1.00  0.00     0.009 C 
HETATM   18  C3  UNL     1      21.245  39.779  15.007  1.00  0.00     0.009 C 
ENDBRANCH  15  16
ENDBRANCH  14  15
BRANCH  14  19
HETATM   19  C25 UNL     1      19.043  38.283  17.955  1.00  0.00     0.246 C 
HETATM   20  O5  UNL     1      19.054  39.047  18.995  1.00  0.00    -0.284 OA
BRANCH  19  21
HETATM   21  C26 UNL     1      17.840  38.329  17.153  1.00  0.00     0.332 C 
HETATM   22  O6  UNL     1      17.512  39.409  16.604  1.00  0.00    -0.256 OA
BRANCH  21  23
HETATM   23  O7  UNL     1      17.071  37.217  16.988  1.00  0.00    -0.305 OA
BRANCH  23  24
HETATM   24  C27 UNL     1      15.955  36.880  17.751  1.00  0.00     0.292 C 
BRANCH  24  25
HETATM   25  C28 UNL     1      16.176  35.689  18.561  1.00  0.00     0.198 C 
HETATM   26  O8  UNL     1      17.324  35.394  18.956  1.00  0.00    -0.646 OA
HETATM   27  O9  UNL     1      15.125  34.863  18.918  1.00  0.00    -0.646 OA
ENDBRANCH  24  25
ENDBRANCH  23  24
ENDBRANCH  21  23
ENDBRANCH  19  21
ENDBRANCH  14  19
ENDBRANCH  12  14
ENDBRANCH  11  12
BRANCH  11  28
HETATM   28  O1  UNL     1      20.387  34.654  18.973  1.00  0.00    -0.348 OA
ATOM     29  H1  UNL     1      19.581  34.207  19.205  1.00  0.00     0.219 HD
ENDBRANCH  11  28
ENDBRANCH   1  11
BRANCH   9  30
HETATM   30  C15 UNL     1      18.251  31.874  15.466  1.00  0.00     0.158 C 
BRANCH  30  31
HETATM   31  C16 UNL     1      16.887  31.758  16.036  1.00  0.00     0.082 C 
BRANCH  31  32
HETATM   32  C17 UNL     1      15.843  32.648  15.329  1.00  0.00    -0.016 C 
HETATM   33  C18 UNL     1      16.277  34.040  15.090  1.00  0.00     0.010 C 
HETATM   34  C19 UNL     1      14.637  32.679  16.284  1.00  0.00     0.010 C 
ENDBRANCH  31  32
ENDBRANCH  30  31
BRANCH  30  35
HETATM   35  N3  UNL     1      18.578  31.617  14.241  1.00  0.00    -0.345 NA
HETATM   36  C20 UNL     1      18.954  31.340  12.864  1.00  0.00     0.441 C 
HETATM   37  O3  UNL     1      19.767  32.055  12.221  1.00  0.00    -0.221 OA
BRANCH  36  38
HETATM   38  O4  UNL     1      18.435  30.258  12.162  1.00  0.00    -0.282 OA
BRANCH  38  39
HETATM   39  C21 UNL     1      19.017  28.966  12.393  1.00  0.00     0.062 C 
HETATM   40  C22 UNL     1      20.394  29.045  12.940  1.00  0.00     0.046 C 
HETATM   41  C23 UNL     1      18.112  28.221  13.364  1.00  0.00     0.046 C 
HETATM   42  C24 UNL     1      18.963  28.146  11.108  1.00  0.00     0.046 C 
ENDBRANCH  38  39
ENDBRANCH  36  38
ENDBRANCH  30  35
ENDBRANCH   9  30
TORSDOF 17
ENDMDL
MODEL 2
REMARK VINA RESULT: -8.305316597      2.201      8.523
REMARK  17 active torsions:
REMARK  status: ('A' for Active; 'I' for Inactive)
REMARK    1  A    between atoms: C2_2  and  C4_4 
REMARK    2  A    between atoms: C4_4  and  C5_5 
REMARK    3  A    between atoms: C5_5  and  N1_6 
REMARK    4  A    between atoms: C5_5  and  C25_34 
REMARK    5  A    between atoms: N1_6  and  C6_8 
REMARK    6  A    between atoms: C6_8  and  O1_9 
REMARK    7  A    between atoms: C6_8  and  C7_11 
REMARK       I    between atoms: N2_18  and  C14_19 
REMARK    8  A    between atoms: C14_19  and  C15_21 
REMARK    9  A    between atoms: C15_21  and  C16_22 
REMARK   10  A    between atoms: C15_21  and  N3_26 
REMARK   11  A    between atoms: C16_22  and  C17_23 
REMARK       I    between atoms: N3_26  and  C20_27 
REMARK   12  A    between atoms: C20_27  and  O4_29 
REMARK   13  A    between atoms: O4_29  and  C21_30 
REMARK   14  A    between atoms: C25_34  and  C26_36 
REMARK   15  A    between atoms: C26_36  and  O7_38 
REMARK   16  A    between atoms: O7_38  and  C27_39 
REMARK   17  A    between atoms: C27_39  and  C28_40 
ROOT
HETATM    1  C7  UNL     1      20.317  31.536  15.701  1.00  0.00     0.162 C 
HETATM    2  C8  UNL     1      21.706  31.599  16.400  1.00  0.00     0.034 C 
HETATM    3  C9  UNL     1      22.782  32.085  15.500  1.00  0.00     0.002 C 
HETATM    4  C10 UNL     1      23.320  33.399  16.089  1.00  0.00     0.000 C 
HETATM    5  C11 UNL     1      22.488  34.517  15.571  1.00  0.00     0.002 C 
HETATM    6  C12 UNL     1      21.208  34.656  16.333  1.00  0.00     0.020 C 
HETATM    7  C13 UNL     1      20.002  34.110  15.672  1.00  0.00     0.127 C 
HETATM    8  N2  UNL     1      19.583  32.742  16.009  1.00  0.00    -0.334 N 
HETATM    9  C14 UNL     1      18.310  32.727  16.497  1.00  0.00     0.281 C 
HETATM   10  O2  UNL     1      17.698  31.583  16.439  1.00  0.00    -0.265 OA
ENDROOT
BRANCH   1  11
HETATM   11  C6  UNL     1      19.735  30.223  15.898  1.00  0.00     0.135 C 
BRANCH  11  12
HETATM   12  N1  UNL     1      19.157  29.317  15.034  1.00  0.00    -0.361 N 
ATOM     13  H1  UNL     1      18.338  28.833  15.403  1.00  0.00     0.162 HD
BRANCH  12  14
HETATM   14  C5  UNL     1      19.532  28.942  13.675  1.00  0.00     0.164 C 
BRANCH  14  15
HETATM   15  C4  UNL     1      20.928  28.351  13.650  1.00  0.00     0.037 C 
BRANCH  15  16
HETATM   16  C2  UNL     1      22.035  29.159  13.088  1.00  0.00    -0.020 C 
HETATM   17  C1  UNL     1      22.588  28.265  11.916  1.00  0.00     0.009 C 
HETATM   18  C3  UNL     1      21.591  30.406  12.325  1.00  0.00     0.009 C 
ENDBRANCH  15  16
ENDBRANCH  14  15
BRANCH  14  19
HETATM   19  C25 UNL     1      18.506  28.288  12.919  1.00  0.00     0.246 C 
HETATM   20  O5  UNL     1      17.669  27.551  13.568  1.00  0.00    -0.284 OA
BRANCH  19  21
HETATM   21  C26 UNL     1      18.299  28.366  11.489  1.00  0.00     0.332 C 
HETATM   22  O6  UNL     1      17.386  29.104  11.042  1.00  0.00    -0.256 OA
BRANCH  21  23
HETATM   23  O7  UNL     1      19.084  27.655  10.633  1.00  0.00    -0.305 OA
BRANCH  23  24
HETATM   24  C27 UNL     1      19.541  26.355  10.838  1.00  0.00     0.292 C 
BRANCH  24  25
HETATM   25  C28 UNL     1      18.489  25.363  10.661  1.00  0.00     0.198 C 
HETATM   26  O8  UNL     1      18.144  25.000   9.517  1.00  0.00    -0.646 OA
HETATM   27  O9  UNL     1      17.854  24.794  11.751  1.00  0.00    -0.646 OA
ENDBRANCH  24  25
ENDBRANCH  23  24
ENDBRANCH  21  23
ENDBRANCH  19  21
ENDBRANCH  14  19
ENDBRANCH  12  14
ENDBRANCH  11  12
BRANCH  11  28
HETATM   28  O1  UNL     1      19.781  29.841  17.161  1.00  0.00    -0.348 OA
ATOM     29  H1  UNL     1      20.629  29.937  17.580  1.00  0.00     0.219 HD
ENDBRANCH  11  28
ENDBRANCH   1  11
BRANCH   9  30
HETATM   30  C15 UNL     1      17.379  33.752  17.109  1.00  0.00     0.158 C 
BRANCH  30  31
HETATM   31  C16 UNL     1      15.930  33.445  17.041  1.00  0.00     0.082 C 
BRANCH  31  32
HETATM   32  C17 UNL     1      15.029  34.696  17.123  1.00  0.00    -0.016 C 
HETATM   33  C18 UNL     1      14.906  35.281  18.474  1.00  0.00     0.010 C 
HETATM   34  C19 UNL     1      13.637  34.211  16.682  1.00  0.00     0.010 C 
ENDBRANCH  31  32
ENDBRANCH  30  31
BRANCH  30  35
HETATM   35  N3  UNL     1      17.929  34.612  17.903  1.00  0.00    -0.345 NA
HETATM   36  C20 UNL     1      18.558  35.571  18.797  1.00  0.00     0.441 C 
HETATM   37  O3  UNL     1      19.644  35.339  19.392  1.00  0.00    -0.221 OA
BRANCH  36  38
HETATM   38  O4  UNL     1      17.996  36.815  19.058  1.00  0.00    -0.282 OA
BRANCH  38  39
HETATM   39  C21 UNL     1      18.281  37.885  18.143  1.00  0.00     0.062 C 
HETATM   40  C22 UNL     1      19.644  37.799  17.563  1.00  0.00     0.046 C 
HETATM   41  C23 UNL     1      17.238  37.833  17.035  1.00  0.00     0.046 C 
HETATM   42  C24 UNL     1      18.043  39.223  18.835  1.00  0.00     0.046 C 
ENDBRANCH  38  39
ENDBRANCH  36  38
ENDBRANCH  30  35
ENDBRANCH   9  30
TORSDOF 17
ENDMDL
MODEL 3
REMARK VINA RESULT: -8.119586735      2.658      8.732
REMARK  17 active torsions:
REMARK  status: ('A' for Active; 'I' for Inactive)
REMARK    1  A    between atoms: C2_2  and  C4_4 
REMARK    2  A    between atoms: C4_4  and  C5_5 
REMARK    3  A    between atoms: C5_5  and  N1_6 
REMARK    4  A    between atoms: C5_5  and  C25_34 
REMARK    5  A    between atoms: N1_6  and  C6_8 
REMARK    6  A    between atoms: C6_8  and  O1_9 
REMARK    7  A    between atoms: C6_8  and  C7_11 
REMARK       I    between atoms: N2_18  and  C14_19 
REMARK    8  A    between atoms: C14_19  and  C15_21 
REMARK    9  A    between atoms: C15_21  and  C16_22 
REMARK   10  A    between atoms: C15_21  and  N3_26 
REMARK   11  A    between atoms: C16_22  and  C17_23 
REMARK       I    between atoms: N3_26  and  C20_27 
REMARK   12  A    between atoms: C20_27  and  O4_29 
REMARK   13  A    between atoms: O4_29  and  C21_30 
REMARK   14  A    between atoms: C25_34  and  C26_36 
REMARK   15  A    between atoms: C26_36  and  O7_38 
REMARK   16  A    between atoms: O7_38  and  C27_39 
REMARK   17  A    between atoms: C27_39  and  C28_40 
ROOT
HETATM    1  C7  UNL     1      20.311  31.552  15.540  1.00  0.00     0.162 C 
HETATM    2  C8  UNL     1      21.714  31.568  16.214  1.00  0.00     0.034 C 
HETATM    3  C9  UNL     1      22.779  32.075  15.313  1.00  0.00     0.002 C 
HETATM    4  C10 UNL     1      23.346  33.358  15.943  1.00  0.00     0.000 C 
HETATM    5  C11 UNL     1      22.520  34.506  15.486  1.00  0.00     0.002 C 
HETATM    6  C12 UNL     1      21.257  34.632  16.277  1.00  0.00     0.020 C 
HETATM    7  C13 UNL     1      20.030  34.128  15.620  1.00  0.00     0.127 C 
HETATM    8  N2  UNL     1      19.599  32.754  15.910  1.00  0.00    -0.334 N 
HETATM    9  C14 UNL     1      18.336  32.736  16.422  1.00  0.00     0.281 C 
HETATM   10  O2  UNL     1      17.707  31.603  16.330  1.00  0.00    -0.265 OA
ENDROOT
BRANCH   1  11
HETATM   11  C6  UNL     1      19.714  30.239  15.696  1.00  0.00     0.135 C 
BRANCH  11  12
HETATM   12  N1  UNL     1      19.048  29.405  14.823  1.00  0.00    -0.361 N 
ATOM     13  H1  UNL     1      18.288  28.867  15.239  1.00  0.00     0.162 HD
BRANCH  12  14
HETATM   14  C5  UNL     1      19.260  29.171  13.399  1.00  0.00     0.164 C 
BRANCH  14  15
HETATM   15  C4  UNL     1      18.079  29.672  12.592  1.00  0.00     0.037 C 
BRANCH  15  16
HETATM   16  C2  UNL     1      17.666  28.918  11.386  1.00  0.00    -0.020 C 
HETATM   17  C1  UNL     1      17.770  27.413  11.837  1.00  0.00     0.009 C 
HETATM   18  C3  UNL     1      16.180  29.023  11.046  1.00  0.00     0.009 C 
ENDBRANCH  15  16
ENDBRANCH  14  15
BRANCH  14  19
HETATM   19  C25 UNL     1      20.579  29.464  12.924  1.00  0.00     0.246 C 
HETATM   20  O5  UNL     1      20.730  30.531  12.213  1.00  0.00    -0.284 OA
BRANCH  19  21
HETATM   21  C26 UNL     1      21.778  28.689  13.157  1.00  0.00     0.332 C 
HETATM   22  O6  UNL     1      22.121  28.433  14.337  1.00  0.00    -0.256 OA
BRANCH  21  23
HETATM   23  O7  UNL     1      22.527  28.236  12.114  1.00  0.00    -0.305 OA
BRANCH  23  24
HETATM   24  C27 UNL     1      22.657  26.904  11.724  1.00  0.00     0.292 C 
BRANCH  24  25
HETATM   25  C28 UNL     1      24.036  26.438  11.797  1.00  0.00     0.198 C 
HETATM   26  O8  UNL     1      24.321  25.254  11.518  1.00  0.00    -0.646 OA
HETATM   27  O9  UNL     1      25.060  27.291  12.165  1.00  0.00    -0.646 OA
ENDBRANCH  24  25
ENDBRANCH  23  24
ENDBRANCH  21  23
ENDBRANCH  19  21
ENDBRANCH  14  19
ENDBRANCH  12  14
ENDBRANCH  11  12
BRANCH  11  28
HETATM   28  O1  UNL     1      19.851  29.772  16.923  1.00  0.00    -0.348 OA
ATOM     29  H1  UNL     1      20.487  29.073  17.019  1.00  0.00     0.219 HD
ENDBRANCH  11  28
ENDBRANCH   1  11
BRANCH   9  30
HETATM   30  C15 UNL     1      17.431  33.747  17.092  1.00  0.00     0.158 C 
BRANCH  30  31
HETATM   31  C16 UNL     1      15.980  33.445  17.071  1.00  0.00     0.082 C 
BRANCH  31  32
HETATM   32  C17 UNL     1      15.085  34.702  17.135  1.00  0.00    -0.016 C 
HETATM   33  C18 UNL     1      14.973  35.312  18.476  1.00  0.00     0.010 C 
HETATM   34  C19 UNL     1      13.688  34.217  16.712  1.00  0.00     0.010 C 
ENDBRANCH  31  32
ENDBRANCH  30  31
BRANCH  30  35
HETATM   35  N3  UNL     1      18.012  34.588  17.885  1.00  0.00    -0.345 NA
HETATM   36  C20 UNL     1      18.676  35.523  18.779  1.00  0.00     0.441 C 
HETATM   37  O3  UNL     1      19.769  35.264  19.349  1.00  0.00    -0.221 OA
BRANCH  36  38
HETATM   38  O4  UNL     1      18.142  36.774  19.066  1.00  0.00    -0.282 OA
BRANCH  38  39
HETATM   39  C21 UNL     1      18.393  37.840  18.137  1.00  0.00     0.062 C 
HETATM   40  C22 UNL     1      19.750  37.778  17.542  1.00  0.00     0.046 C 
HETATM   41  C23 UNL     1      17.339  37.752  17.042  1.00  0.00     0.046 C 
HETATM   42  C24 UNL     1      18.132  39.180  18.817  1.00  0.00     0.046 C 
ENDBRANCH  38  39
ENDBRANCH  36  38
ENDBRANCH  30  35
ENDBRANCH   9  30
TORSDOF 17
ENDMDL
MODEL 4
REMARK VINA RESULT: -8.097130442      2.099      9.277
REMARK  17 active torsions:
REMARK  status: ('A' for Active; 'I' for Inactive)
REMARK    1  A    between atoms: C2_2  and  C4_4 
REMARK    2  A    between atoms: C4_4  and  C5_5 
REMARK    3  A    between atoms: C5_5  and  N1_6 
REMARK    4  A    between atoms: C5_5  and  C25_34 
REMARK    5  A    between atoms: N1_6  and  C6_8 
REMARK    6  A    between atoms: C6_8  and  O1_9 
REMARK    7  A    between atoms: C6_8  and  C7_11 
REMARK       I    between atoms: N2_18  and  C14_19 
REMARK    8  A    between atoms: C14_19  and  C15_21 
REMARK    9  A    between atoms: C15_21  and  C16_22 
REMARK   10  A    between atoms: C15_21  and  N3_26 
REMARK   11  A    between atoms: C16_22  and  C17_23 
REMARK       I    between atoms: N3_26  and  C20_27 
REMARK   12  A    between atoms: C20_27  and  O4_29 
REMARK   13  A    between atoms: O4_29  and  C21_30 
REMARK   14  A    between atoms: C25_34  and  C26_36 
REMARK   15  A    between atoms: C26_36  and  O7_38 
REMARK   16  A    between atoms: O7_38  and  C27_39 
REMARK   17  A    between atoms: C27_39  and  C28_40 
ROOT
HETATM    1  C7  UNL     1      17.242  32.154  16.054  1.00  0.00     0.162 C 
HETATM    2  C8  UNL     1      15.931  32.827  15.550  1.00  0.00     0.034 C 
HETATM    3  C9  UNL     1      14.837  32.775  16.551  1.00  0.00     0.002 C 
HETATM    4  C10 UNL     1      14.487  34.223  16.932  1.00  0.00     0.000 C 
HETATM    5  C11 UNL     1      15.380  34.642  18.044  1.00  0.00     0.002 C 
HETATM    6  C12 UNL     1      16.728  35.058  17.548  1.00  0.00     0.020 C 
HETATM    7  C13 UNL     1      17.812  34.063  17.713  1.00  0.00     0.127 C 
HETATM    8  N2  UNL     1      18.118  33.174  16.585  1.00  0.00    -0.334 N 
HETATM    9  C14 UNL     1      19.420  33.301  16.202  1.00  0.00     0.281 C 
HETATM   10  O2  UNL     1      19.906  32.307  15.520  1.00  0.00    -0.265 OA
ENDROOT
BRANCH   1  11
HETATM   11  C6  UNL     1      17.703  31.196  15.068  1.00  0.00     0.135 C 
BRANCH  11  12
HETATM   12  N1  UNL     1      18.321  29.968  15.175  1.00  0.00    -0.361 N 
ATOM     13  H1  UNL     1      18.245  29.527  16.092  1.00  0.00     0.162 HD
BRANCH  12  14
HETATM   14  C5  UNL     1      19.068  29.202  14.184  1.00  0.00     0.164 C 
BRANCH  14  15
HETATM   15  C4  UNL     1      20.316  28.602  14.801  1.00  0.00     0.037 C 
BRANCH  15  16
HETATM   16  C2  UNL     1      21.633  28.926  14.206  1.00  0.00    -0.020 C 
HETATM   17  C1  UNL     1      21.755  27.917  13.004  1.00  0.00     0.009 C 
HETATM   18  C3  UNL     1      21.690  30.266  13.475  1.00  0.00     0.009 C 
ENDBRANCH  15  16
ENDBRANCH  14  15
BRANCH  14  19
HETATM   19  C25 UNL     1      18.271  28.375  13.327  1.00  0.00     0.246 C 
HETATM   20  O5  UNL     1      17.715  27.337  13.854  1.00  0.00    -0.284 OA
BRANCH  19  21
HETATM   21  C26 UNL     1      18.014  28.580  11.919  1.00  0.00     0.332 C 
HETATM   22  O6  UNL     1      17.325  29.566  11.558  1.00  0.00    -0.256 OA
BRANCH  21  23
HETATM   23  O7  UNL     1      18.515  27.720  10.988  1.00  0.00    -0.305 OA
BRANCH  23  24
HETATM   24  C27 UNL     1      17.768  27.024  10.040  1.00  0.00     0.292 C 
BRANCH  24  25
HETATM   25  C28 UNL     1      17.855  25.580  10.218  1.00  0.00     0.198 C 
HETATM   26  O8  UNL     1      17.849  25.080  11.363  1.00  0.00    -0.646 OA
HETATM   27  O9  UNL     1      17.937  24.730   9.130  1.00  0.00    -0.646 OA
ENDBRANCH  24  25
ENDBRANCH  23  24
ENDBRANCH  21  23
ENDBRANCH  19  21
ENDBRANCH  14  19
ENDBRANCH  12  14
ENDBRANCH  11  12
BRANCH  11  28
HETATM   28  O1  UNL     1      17.472  31.601  13.833  1.00  0.00    -0.348 OA
ATOM     29  H1  UNL     1      18.156  32.139  13.451  1.00  0.00     0.219 HD
ENDBRANCH  11  28
ENDBRANCH   1  11
BRANCH   9  30
HETATM   30  C15 UNL     1      20.499  34.346  16.383  1.00  0.00     0.158 C 
BRANCH  30  31
HETATM   31  C16 UNL     1      21.635  34.289  15.432  1.00  0.00     0.082 C 
BRANCH  31  32
HETATM   32  C17 UNL     1      22.993  34.001  16.107  1.00  0.00    -0.016 C 
HETATM   33  C18 UNL     1      23.974  33.306  15.249  1.00  0.00     0.010 C 
HETATM   34  C19 UNL     1      22.659  33.083  17.295  1.00  0.00     0.010 C 
ENDBRANCH  31  32
ENDBRANCH  30  31
BRANCH  30  35
HETATM   35  N3  UNL     1      20.182  35.364  17.115  1.00  0.00    -0.345 NA
HETATM   36  C20 UNL     1      19.825  36.500  17.949  1.00  0.00     0.441 C 
HETATM   37  O3  UNL     1      19.554  36.389  19.175  1.00  0.00    -0.221 OA
BRANCH  36  38
HETATM   38  O4  UNL     1      19.756  37.793  17.444  1.00  0.00    -0.282 OA
BRANCH  38  39
HETATM   39  C21 UNL     1      20.970  38.558  17.388  1.00  0.00     0.062 C 
HETATM   40  C22 UNL     1      22.180  37.736  17.638  1.00  0.00     0.046 C 
HETATM   41  C23 UNL     1      21.049  39.195  16.008  1.00  0.00     0.046 C 
HETATM   42  C24 UNL     1      20.876  39.736  18.352  1.00  0.00     0.046 C 
ENDBRANCH  38  39
ENDBRANCH  36  38
ENDBRANCH  30  35
ENDBRANCH   9  30
TORSDOF 17
ENDMDL
MODEL 5
REMARK VINA RESULT: -8.010400914      1.212      1.427
REMARK  17 active torsions:
REMARK  status: ('A' for Active; 'I' for Inactive)
REMARK    1  A    between atoms: C2_2  and  C4_4 
REMARK    2  A    between atoms: C4_4  and  C5_5 
REMARK    3  A    between atoms: C5_5  and  N1_6 
REMARK    4  A    between atoms: C5_5  and  C25_34 
REMARK    5  A    between atoms: N1_6  and  C6_8 
REMARK    6  A    between atoms: C6_8  and  O1_9 
REMARK    7  A    between atoms: C6_8  and  C7_11 
REMARK       I    between atoms: N2_18  and  C14_19 
REMARK    8  A    between atoms: C14_19  and  C15_21 
REMARK    9  A    between atoms: C15_21  and  C16_22 
REMARK   10  A    between atoms: C15_21  and  N3_26 
REMARK   11  A    between atoms: C16_22  and  C17_23 
REMARK       I    between atoms: N3_26  and  C20_27 
REMARK   12  A    between atoms: C20_27  and  O4_29 
REMARK   13  A    between atoms: O4_29  and  C21_30 
REMARK   14  A    between atoms: C25_34  and  C26_36 
REMARK   15  A    between atoms: C26_36  and  O7_38 
REMARK   16  A    between atoms: O7_38  and  C27_39 
REMARK   17  A    between atoms: C27_39  and  C28_40 
ROOT
HETATM    1  C7  UNL     1      21.132  34.092  16.998  1.00  0.00     0.162 C 
HETATM    2  C8  UNL     1      22.138  34.598  15.924  1.00  0.00     0.034 C 
HETATM    3  C9  UNL     1      23.481  33.980  16.057  1.00  0.00     0.002 C 
HETATM    4  C10 UNL     1      23.750  33.175  14.775  1.00  0.00     0.000 C 
HETATM    5  C11 UNL     1      23.189  31.810  14.955  1.00  0.00     0.002 C 
HETATM    6  C12 UNL     1      21.714  31.779  14.709  1.00  0.00     0.020 C 
HETATM    7  C13 UNL     1      20.859  31.751  15.917  1.00  0.00     0.127 C 
HETATM    8  N2  UNL     1      20.339  33.026  16.431  1.00  0.00    -0.334 N 
HETATM    9  C14 UNL     1      18.976  33.014  16.478  1.00  0.00     0.281 C 
HETATM   10  O2  UNL     1      18.433  33.884  17.275  1.00  0.00    -0.265 OA
ENDROOT
BRANCH   1  11
HETATM   11  C6  UNL     1      20.516  35.228  17.656  1.00  0.00     0.135 C 
BRANCH  11  12
HETATM   12  N1  UNL     1      20.086  36.455  17.197  1.00  0.00    -0.361 N 
ATOM     13  H1  UNL     1      19.776  36.466  16.225  1.00  0.00     0.162 HD
BRANCH  12  14
HETATM   14  C5  UNL     1      20.006  37.740  17.882  1.00  0.00     0.164 C 
BRANCH  14  15
HETATM   15  C4  UNL     1      20.892  38.765  17.202  1.00  0.00     0.037 C 
BRANCH  15  16
HETATM   16  C2  UNL     1      20.322  39.594  16.115  1.00  0.00    -0.020 C 
HETATM   17  C1  UNL     1      20.303  41.044  16.727  1.00  0.00     0.009 C 
HETATM   18  C3  UNL     1      21.245  39.792  14.913  1.00  0.00     0.009 C 
ENDBRANCH  15  16
ENDBRANCH  14  15
BRANCH  14  19
HETATM   19  C25 UNL     1      18.687  38.139  18.275  1.00  0.00     0.246 C 
HETATM   20  O5  UNL     1      18.589  39.084  19.149  1.00  0.00    -0.284 OA
BRANCH  19  21
HETATM   21  C26 UNL     1      17.436  37.595  17.795  1.00  0.00     0.332 C 
HETATM   22  O6  UNL     1      17.137  37.727  16.582  1.00  0.00    -0.256 OA
BRANCH  21  23
HETATM   23  O7  UNL     1      16.591  36.942  18.640  1.00  0.00    -0.305 OA
BRANCH  23  24
HETATM   24  C27 UNL     1      15.251  37.256  18.852  1.00  0.00     0.292 C 
BRANCH  24  25
HETATM   25  C28 UNL     1      15.077  38.585  19.424  1.00  0.00     0.198 C 
HETATM   26  O8  UNL     1      15.140  38.758  20.660  1.00  0.00    -0.646 OA
HETATM   27  O9  UNL     1      14.848  39.685  18.618  1.00  0.00    -0.646 OA
ENDBRANCH  24  25
ENDBRANCH  23  24
ENDBRANCH  21  23
ENDBRANCH  19  21
ENDBRANCH  14  19
ENDBRANCH  12  14
ENDBRANCH  11  12
BRANCH  11  28
HETATM   28  O1  UNL     1      20.341  35.021  18.948  1.00  0.00    -0.348 OA
ATOM     29  H1  UNL     1      19.839  34.245  19.168  1.00  0.00     0.219 HD
ENDBRANCH  11  28
ENDBRANCH   1  11
BRANCH   9  30
HETATM   30  C15 UNL     1      17.883  32.202  15.818  1.00  0.00     0.158 C 
BRANCH  30  31
HETATM   31  C16 UNL     1      16.527  32.326  16.406  1.00  0.00     0.082 C 
BRANCH  31  32
HETATM   32  C17 UNL     1      15.574  33.217  15.581  1.00  0.00    -0.016 C 
HETATM   33  C18 UNL     1      16.190  34.445  15.039  1.00  0.00     0.010 C 
HETATM   34  C19 UNL     1      14.467  33.630  16.565  1.00  0.00     0.010 C 
ENDBRANCH  31  32
ENDBRANCH  30  31
BRANCH  30  35
HETATM   35  N3  UNL     1      18.152  31.747  14.637  1.00  0.00    -0.345 NA
HETATM   36  C20 UNL     1      18.463  31.246  13.308  1.00  0.00     0.441 C 
HETATM   37  O3  UNL     1      19.266  31.826  12.530  1.00  0.00    -0.221 OA
BRANCH  36  38
HETATM   38  O4  UNL     1      17.888  30.085  12.805  1.00  0.00    -0.282 OA
BRANCH  38  39
HETATM   39  C21 UNL     1      18.634  28.863  12.917  1.00  0.00     0.062 C 
HETATM   40  C22 UNL     1      19.445  28.796  14.157  1.00  0.00     0.046 C 
HETATM   41  C23 UNL     1      17.638  27.712  12.884  1.00  0.00     0.046 C 
HETATM   42  C24 UNL     1      19.488  28.670  11.669  1.00  0.00     0.046 C 
ENDBRANCH  38  39
ENDBRANCH  36  38
ENDBRANCH  30  35
ENDBRANCH   9  30
TORSDOF 17
ENDMDL
