MODEL 1
REMARK VINA RESULT: -8.519266433      0.000      0.000
REMARK  16 active torsions:
REMARK  status: ('A' for Active; 'I' for Inactive)
REMARK    1  A    between atoms: O1_2  and  C2_3 
REMARK    2  A    between atoms: C5_6  and  C6_7 
REMARK    3  A    between atoms: C6_7  and  C7_8 
REMARK    4  A    between atoms: C7_8  and  O2_9 
REMARK    5  A    between atoms: N1_11  and  O3_13 
REMARK    6  A    between atoms: N2_17  and  C10_18 
REMARK    7  A    between atoms: C10_18  and  O4_19 
REMARK    8  A    between atoms: C11_21  and  N3_22 
REMARK    9  A    between atoms: N4_25  and  C14_26 
REMARK   10  A    between atoms: C14_26  and  C15_27 
REMARK   11  A    between atoms: C15_27  and  C16_28 
REMARK   12  A    between atoms: C16_28  and  C17_29 
REMARK   13  A    between atoms: C17_29  and  C18_30 
REMARK   14  A    between atoms: C18_30  and  C19_31 
REMARK   15  A    between atoms: C19_31  and  C20_32 
REMARK   16  A    between atoms: C20_32  and  N5_33 
ROOT
HETATM    1  C10 UNL     1      20.300  29.913  16.084  1.00  0.00     0.149 C 
HETATM    2  C11 UNL     1      20.437  31.277  16.547  1.00  0.00     0.115 C 
ENDROOT
BRANCH   1   3
HETATM    3  N2  UNL     1      20.553  29.347  14.838  1.00  0.00    -0.352 N 
HETATM    4  C9  UNL     1      19.396  29.323  13.885  1.00  0.00     0.129 C 
HETATM    5  C2  UNL     1      19.783  29.815  12.548  1.00  0.00     0.141 C 
HETATM    6  C8  UNL     1      18.697  28.015  13.971  1.00  0.00     0.033 C 
HETATM    7  C3  UNL     1      18.747  29.434  11.520  1.00  0.00     0.049 C 
HETATM    8  C30 UNL     1      21.088  29.251  12.083  1.00  0.00     0.168 C 
HETATM    9  C4  UNL     1      18.651  27.938  11.471  1.00  0.00     0.008 C 
HETATM   10  C5  UNL     1      18.011  27.507  12.770  1.00  0.00    -0.005 C 
HETATM   11  C28 UNL     1      22.163  28.887  12.984  1.00  0.00     0.072 C 
HETATM   12  O6  UNL     1      21.235  29.100  10.890  1.00  0.00    -0.294 OA
HETATM   13  C27 UNL     1      21.825  28.857  14.451  1.00  0.00     0.137 C 
HETATM   14  C29 UNL     1      22.847  27.580  12.556  1.00  0.00     0.020 C 
BRANCH   5  15
HETATM   15  O1  UNL     1      19.972  31.207  12.467  1.00  0.00    -0.375 OA
HETATM   16  C1  UNL     1      19.035  31.974  13.075  1.00  0.00     0.203 C 
ENDBRANCH   5  15
BRANCH  10  17
HETATM   17  C6  UNL     1      17.804  26.004  12.815  1.00  0.00     0.090 C 
BRANCH  17  18
HETATM   18  C7  UNL     1      18.549  25.330  11.728  1.00  0.00     0.135 C 
HETATM   19  N1  UNL     1      19.793  25.056  11.920  1.00  0.00    -0.251 N 
ATOM     20  H1  UNL     1      20.224  25.311  12.808  1.00  0.00     0.196 HD
BRANCH  18  21
HETATM   21  O2  UNL     1      17.990  24.974  10.510  1.00  0.00    -0.348 OA
ATOM     22  H2  UNL     1      18.273  24.228   9.994  1.00  0.00     0.219 HD
ENDBRANCH  18  21
BRANCH  19  23
HETATM   23  O3  UNL     1      20.559  24.427  10.958  1.00  0.00    -0.288 OA
ATOM     24  H3  UNL     1      20.373  23.543  10.666  1.00  0.00     0.244 HD
ENDBRANCH  19  23
ENDBRANCH  17  18
ENDBRANCH  10  17
ENDBRANCH   1   3
BRANCH   1  25
HETATM   25  O4  UNL     1      19.852  29.089  17.033  1.00  0.00    -0.345 OA
ATOM     26  H4  UNL     1      20.211  29.211  17.905  1.00  0.00     0.219 HD
ENDBRANCH   1  25
BRANCH   2  27
HETATM   27  N3  UNL     1      20.999  32.292  15.744  1.00  0.00    -0.286 NA
HETATM   28  C12 UNL     1      20.367  33.564  16.145  1.00  0.00     0.125 C 
HETATM   29  C13 UNL     1      21.307  34.710  15.873  1.00  0.00     0.287 C 
HETATM   30  N4  UNL     1      22.366  34.755  16.880  1.00  0.00     0.090 N 
HETATM   31  C25 UNL     1      22.575  33.355  17.280  1.00  0.00     0.287 C 
HETATM   32  C26 UNL     1      22.427  32.510  16.057  1.00  0.00     0.125 C 
BRANCH  30  33
HETATM   33  C14 UNL     1      21.837  35.403  18.089  1.00  0.00     0.272 C 
BRANCH  33  34
HETATM   34  C15 UNL     1      21.627  36.857  17.764  1.00  0.00     0.030 C 
BRANCH  34  35
HETATM   35  C16 UNL     1      20.288  37.367  18.220  1.00  0.00     0.002 C 
BRANCH  35  36
HETATM   36  C17 UNL     1      19.549  36.193  18.846  1.00  0.00     0.000 C 
BRANCH  36  37
HETATM   37  C18 UNL     1      18.034  36.365  18.721  1.00  0.00     0.002 C 
BRANCH  37  38
HETATM   38  C19 UNL     1      17.711  36.581  17.265  1.00  0.00     0.020 C 
BRANCH  38  39
HETATM   39  C20 UNL     1      16.251  36.363  16.952  1.00  0.00     0.125 C 
BRANCH  39  40
HETATM   40  N5  UNL     1      16.102  34.937  16.627  1.00  0.00    -0.352 N 
HETATM   41  C21 UNL     1      16.496  34.360  15.385  1.00  0.00     0.126 C 
HETATM   42  C22 UNL     1      16.381  32.880  15.535  1.00  0.00     0.029 C 
HETATM   43  C23 UNL     1      15.342  32.701  16.634  1.00  0.00     0.104 C 
HETATM   44  C24 UNL     1      15.560  33.928  17.456  1.00  0.00     0.219 C 
HETATM   45  O5  UNL     1      15.306  34.045  18.680  1.00  0.00    -0.273 OA
ENDBRANCH  39  40
ENDBRANCH  38  39
ENDBRANCH  37  38
ENDBRANCH  36  37
ENDBRANCH  35  36
ENDBRANCH  34  35
ENDBRANCH  33  34
ENDBRANCH  30  33
ENDBRANCH   2  27
TORSDOF 16
ENDMDL
MODEL 2
REMARK VINA RESULT: -8.485657489      1.814      3.070
REMARK  16 active torsions:
REMARK  status: ('A' for Active; 'I' for Inactive)
REMARK    1  A    between atoms: O1_2  and  C2_3 
REMARK    2  A    between atoms: C5_6  and  C6_7 
REMARK    3  A    between atoms: C6_7  and  C7_8 
REMARK    4  A    between atoms: C7_8  and  O2_9 
REMARK    5  A    between atoms: N1_11  and  O3_13 
REMARK    6  A    between atoms: N2_17  and  C10_18 
REMARK    7  A    between atoms: C10_18  and  O4_19 
REMARK    8  A    between atoms: C11_21  and  N3_22 
REMARK    9  A    between atoms: N4_25  and  C14_26 
REMARK   10  A    between atoms: C14_26  and  C15_27 
REMARK   11  A    between atoms: C15_27  and  C16_28 
REMARK   12  A    between atoms: C16_28  and  C17_29 
REMARK   13  A    between atoms: C17_29  and  C18_30 
REMARK   14  A    between atoms: C18_30  and  C19_31 
REMARK   15  A    between atoms: C19_31  and  C20_32 
REMARK   16  A    between atoms: C20_32  and  N5_33 
ROOT
HETATM    1  C10 UNL     1      20.494  30.519  16.396  1.00  0.00     0.149 C 
HETATM    2  C11 UNL     1      21.027  31.601  17.195  1.00  0.00     0.115 C 
ENDROOT
BRANCH   1   3
HETATM    3  N2  UNL     1      20.347  30.394  15.018  1.00  0.00    -0.352 N 
HETATM    4  C9  UNL     1      20.463  29.001  14.474  1.00  0.00     0.129 C 
HETATM    5  C2  UNL     1      19.361  28.689  13.542  1.00  0.00     0.141 C 
HETATM    6  C8  UNL     1      21.855  28.752  14.017  1.00  0.00     0.033 C 
HETATM    7  C3  UNL     1      19.688  27.465  12.723  1.00  0.00     0.049 C 
HETATM    8  C30 UNL     1      19.091  29.800  12.577  1.00  0.00     0.168 C 
HETATM    9  C4  UNL     1      20.927  27.741  11.925  1.00  0.00     0.008 C 
HETATM   10  C5  UNL     1      22.069  27.800  12.913  1.00  0.00    -0.005 C 
HETATM   11  C28 UNL     1      19.304  31.197  12.895  1.00  0.00     0.072 C 
HETATM   12  O6  UNL     1      18.670  29.496  11.483  1.00  0.00    -0.294 OA
HETATM   13  C27 UNL     1      20.061  31.487  14.164  1.00  0.00     0.137 C 
HETATM   14  C29 UNL     1      19.911  31.964  11.711  1.00  0.00     0.020 C 
BRANCH   5  15
HETATM   15  O1  UNL     1      18.116  28.470  14.159  1.00  0.00    -0.375 OA
HETATM   16  C1  UNL     1      17.535  27.268  13.925  1.00  0.00     0.203 C 
ENDBRANCH   5  15
BRANCH  10  17
HETATM   17  C6  UNL     1      23.398  28.018  12.212  1.00  0.00     0.090 C 
BRANCH  17  18
HETATM   18  C7  UNL     1      24.112  26.737  12.010  1.00  0.00     0.135 C 
HETATM   19  N1  UNL     1      23.567  25.848  11.255  1.00  0.00    -0.251 N 
ATOM     20  H1  UNL     1      22.665  26.051  10.822  1.00  0.00     0.196 HD
BRANCH  18  21
HETATM   21  O2  UNL     1      25.335  26.433  12.587  1.00  0.00    -0.348 OA
ATOM     22  H2  UNL     1      25.593  25.558  12.854  1.00  0.00     0.219 HD
ENDBRANCH  18  21
BRANCH  19  23
HETATM   23  O3  UNL     1      24.167  24.628  11.013  1.00  0.00    -0.288 OA
ATOM     24  H3  UNL     1      23.996  24.132  10.221  1.00  0.00     0.244 HD
ENDBRANCH  19  23
ENDBRANCH  17  18
ENDBRANCH  10  17
ENDBRANCH   1   3
BRANCH   1  25
HETATM   25  O4  UNL     1      20.083  29.486  17.136  1.00  0.00    -0.345 OA
ATOM     26  H4  UNL     1      19.722  29.693  17.990  1.00  0.00     0.219 HD
ENDBRANCH   1  25
BRANCH   2  27
HETATM   27  N3  UNL     1      21.620  32.743  16.616  1.00  0.00    -0.286 NA
HETATM   28  C12 UNL     1      20.546  33.734  16.411  1.00  0.00     0.125 C 
HETATM   29  C13 UNL     1      21.121  35.126  16.447  1.00  0.00     0.287 C 
HETATM   30  N4  UNL     1      21.417  35.523  17.823  1.00  0.00     0.090 N 
HETATM   31  C25 UNL     1      21.762  34.272  18.517  1.00  0.00     0.287 C 
HETATM   32  C26 UNL     1      22.532  33.423  17.560  1.00  0.00     0.125 C 
BRANCH  30  33
HETATM   33  C14 UNL     1      20.169  35.961  18.464  1.00  0.00     0.272 C 
BRANCH  33  34
HETATM   34  C15 UNL     1      19.843  37.328  17.925  1.00  0.00     0.030 C 
BRANCH  34  35
HETATM   35  C16 UNL     1      18.660  37.955  18.608  1.00  0.00     0.002 C 
BRANCH  35  36
HETATM   36  C17 UNL     1      17.469  37.804  17.674  1.00  0.00     0.000 C 
BRANCH  36  37
HETATM   37  C18 UNL     1      16.241  37.284  18.425  1.00  0.00     0.002 C 
BRANCH  37  38
HETATM   38  C19 UNL     1      15.662  36.142  17.631  1.00  0.00     0.020 C 
BRANCH  38  39
HETATM   39  C20 UNL     1      16.482  35.804  16.410  1.00  0.00     0.125 C 
BRANCH  39  40
HETATM   40  N5  UNL     1      16.337  34.356  16.198  1.00  0.00    -0.352 N 
HETATM   41  C21 UNL     1      15.514  33.514  17.001  1.00  0.00     0.126 C 
HETATM   42  C22 UNL     1      15.474  32.180  16.336  1.00  0.00     0.029 C 
HETATM   43  C23 UNL     1      16.763  32.133  15.527  1.00  0.00     0.104 C 
HETATM   44  C24 UNL     1      16.967  33.575  15.203  1.00  0.00     0.219 C 
HETATM   45  O5  UNL     1      17.593  34.021  14.210  1.00  0.00    -0.273 OA
ENDBRANCH  39  40
ENDBRANCH  38  39
ENDBRANCH  37  38
ENDBRANCH  36  37
ENDBRANCH  35  36
ENDBRANCH  34  35
ENDBRANCH  33  34
ENDBRANCH  30  33
ENDBRANCH   2  27
TORSDOF 16
ENDMDL
MODEL 3
REMARK VINA RESULT: -8.078866291      0.974      1.335
REMARK  16 active torsions:
REMARK  status: ('A' for Active; 'I' for Inactive)
REMARK    1  A    between atoms: O1_2  and  C2_3 
REMARK    2  A    between atoms: C5_6  and  C6_7 
REMARK    3  A    between atoms: C6_7  and  C7_8 
REMARK    4  A    between atoms: C7_8  and  O2_9 
REMARK    5  A    between atoms: N1_11  and  O3_13 
REMARK    6  A    between atoms: N2_17  and  C10_18 
REMARK    7  A    between atoms: C10_18  and  O4_19 
REMARK    8  A    between atoms: C11_21  and  N3_22 
REMARK    9  A    between atoms: N4_25  and  C14_26 
REMARK   10  A    between atoms: C14_26  and  C15_27 
REMARK   11  A    between atoms: C15_27  and  C16_28 
REMARK   12  A    between atoms: C16_28  and  C17_29 
REMARK   13  A    between atoms: C17_29  and  C18_30 
REMARK   14  A    between atoms: C18_30  and  C19_31 
REMARK   15  A    between atoms: C19_31  and  C20_32 
REMARK   16  A    between atoms: C20_32  and  N5_33 
ROOT
HETATM    1  C10 UNL     1      20.262  30.034  16.143  1.00  0.00     0.149 C 
HETATM    2  C11 UNL     1      20.437  31.401  16.582  1.00  0.00     0.115 C 
ENDROOT
BRANCH   1   3
HETATM    3  N2  UNL     1      20.471  29.446  14.899  1.00  0.00    -0.352 N 
HETATM    4  C9  UNL     1      19.287  29.430  13.979  1.00  0.00     0.129 C 
HETATM    5  C2  UNL     1      19.646  29.896  12.624  1.00  0.00     0.141 C 
HETATM    6  C8  UNL     1      18.567  28.136  14.103  1.00  0.00     0.033 C 
HETATM    7  C3  UNL     1      18.575  29.520  11.631  1.00  0.00     0.049 C 
HETATM    8  C30 UNL     1      20.927  29.302  12.132  1.00  0.00     0.168 C 
HETATM    9  C4  UNL     1      18.451  28.025  11.606  1.00  0.00     0.008 C 
HETATM   10  C5  UNL     1      17.840  27.625  12.928  1.00  0.00    -0.005 C 
HETATM   11  C28 UNL     1      22.020  28.931  13.008  1.00  0.00     0.072 C 
HETATM   12  O6  UNL     1      21.039  29.132  10.938  1.00  0.00    -0.294 OA
HETATM   13  C27 UNL     1      21.722  28.928  14.484  1.00  0.00     0.137 C 
HETATM   14  C29 UNL     1      22.668  27.606  12.580  1.00  0.00     0.020 C 
BRANCH   5  15
HETATM   15  O1  UNL     1      19.857  31.283  12.519  1.00  0.00    -0.375 OA
HETATM   16  C1  UNL     1      18.964  32.075  13.160  1.00  0.00     0.203 C 
ENDBRANCH   5  15
BRANCH  10  17
HETATM   17  C6  UNL     1      17.607  26.126  13.000  1.00  0.00     0.090 C 
BRANCH  17  18
HETATM   18  C7  UNL     1      18.276  25.428  11.879  1.00  0.00     0.135 C 
HETATM   19  N1  UNL     1      19.529  25.156  11.991  1.00  0.00    -0.251 N 
ATOM     20  H1  UNL     1      20.021  25.429  12.841  1.00  0.00     0.196 HD
BRANCH  18  21
HETATM   21  O2  UNL     1      17.634  25.047  10.711  1.00  0.00    -0.348 OA
ATOM     22  H2  UNL     1      17.919  24.328  10.159  1.00  0.00     0.219 HD
ENDBRANCH  18  21
BRANCH  19  23
HETATM   23  O3  UNL     1      20.228  24.505  10.992  1.00  0.00    -0.288 OA
ATOM     24  H3  UNL     1      21.132  24.715  10.793  1.00  0.00     0.244 HD
ENDBRANCH  19  23
ENDBRANCH  17  18
ENDBRANCH  10  17
ENDBRANCH   1   3
BRANCH   1  25
HETATM   25  O4  UNL     1      19.826  29.231  17.116  1.00  0.00    -0.345 OA
ATOM     26  H4  UNL     1      20.482  28.901  17.719  1.00  0.00     0.219 HD
ENDBRANCH   1  25
BRANCH   2  27
HETATM   27  N3  UNL     1      20.995  32.395  15.750  1.00  0.00    -0.286 NA
HETATM   28  C12 UNL     1      20.432  33.689  16.181  1.00  0.00     0.125 C 
HETATM   29  C13 UNL     1      21.399  34.799  15.859  1.00  0.00     0.287 C 
HETATM   30  N4  UNL     1      22.509  34.804  16.811  1.00  0.00     0.090 N 
HETATM   31  C25 UNL     1      22.686  33.397  17.201  1.00  0.00     0.287 C 
HETATM   32  C26 UNL     1      22.444  32.558  15.989  1.00  0.00     0.125 C 
BRANCH  30  33
HETATM   33  C14 UNL     1      22.067  35.471  18.044  1.00  0.00     0.272 C 
BRANCH  33  34
HETATM   34  C15 UNL     1      22.731  36.821  18.087  1.00  0.00     0.030 C 
BRANCH  34  35
HETATM   35  C16 UNL     1      21.870  37.910  17.511  1.00  0.00     0.002 C 
BRANCH  35  36
HETATM   36  C17 UNL     1      20.658  38.054  18.420  1.00  0.00     0.000 C 
BRANCH  36  37
HETATM   37  C18 UNL     1      19.356  37.876  17.636  1.00  0.00     0.002 C 
BRANCH  37  38
HETATM   38  C19 UNL     1      18.289  37.437  18.605  1.00  0.00     0.020 C 
BRANCH  38  39
HETATM   39  C20 UNL     1      18.211  35.937  18.749  1.00  0.00     0.125 C 
BRANCH  39  40
HETATM   40  N5  UNL     1      16.838  35.554  18.390  1.00  0.00    -0.352 N 
HETATM   41  C21 UNL     1      15.703  36.395  18.582  1.00  0.00     0.126 C 
HETATM   42  C22 UNL     1      14.552  35.735  17.900  1.00  0.00     0.029 C 
HETATM   43  C23 UNL     1      14.929  34.260  17.884  1.00  0.00     0.104 C 
HETATM   44  C24 UNL     1      16.418  34.332  17.817  1.00  0.00     0.219 C 
HETATM   45  O5  UNL     1      17.173  33.454  17.333  1.00  0.00    -0.273 OA
ENDBRANCH  39  40
ENDBRANCH  38  39
ENDBRANCH  37  38
ENDBRANCH  36  37
ENDBRANCH  35  36
ENDBRANCH  34  35
ENDBRANCH  33  34
ENDBRANCH  30  33
ENDBRANCH   2  27
TORSDOF 16
ENDMDL
MODEL 4
REMARK VINA RESULT: -7.980481552      1.387      2.161
REMARK  16 active torsions:
REMARK  status: ('A' for Active; 'I' for Inactive)
REMARK    1  A    between atoms: O1_2  and  C2_3 
REMARK    2  A    between atoms: C5_6  and  C6_7 
REMARK    3  A    between atoms: C6_7  and  C7_8 
REMARK    4  A    between atoms: C7_8  and  O2_9 
REMARK    5  A    between atoms: N1_11  and  O3_13 
REMARK    6  A    between atoms: N2_17  and  C10_18 
REMARK    7  A    between atoms: C10_18  and  O4_19 
REMARK    8  A    between atoms: C11_21  and  N3_22 
REMARK    9  A    between atoms: N4_25  and  C14_26 
REMARK   10  A    between atoms: C14_26  and  C15_27 
REMARK   11  A    between atoms: C15_27  and  C16_28 
REMARK   12  A    between atoms: C16_28  and  C17_29 
REMARK   13  A    between atoms: C17_29  and  C18_30 
REMARK   14  A    between atoms: C18_30  and  C19_31 
REMARK   15  A    between atoms: C19_31  and  C20_32 
REMARK   16  A    between atoms: C20_32  and  N5_33 
ROOT
HETATM    1  C10 UNL     1      20.342  29.823  16.047  1.00  0.00     0.149 C 
HETATM    2  C11 UNL     1      20.503  31.172  16.543  1.00  0.00     0.115 C 
ENDROOT
BRANCH   1   3
HETATM    3  N2  UNL     1      20.584  29.284  14.787  1.00  0.00    -0.352 N 
HETATM    4  C9  UNL     1      19.413  29.262  13.851  1.00  0.00     0.129 C 
HETATM    5  C2  UNL     1      19.773  29.785  12.518  1.00  0.00     0.141 C 
HETATM    6  C8  UNL     1      18.733  27.943  13.922  1.00  0.00     0.033 C 
HETATM    7  C3  UNL     1      18.726  29.409  11.499  1.00  0.00     0.049 C 
HETATM    8  C30 UNL     1      21.077  29.248  12.022  1.00  0.00     0.168 C 
HETATM    9  C4  UNL     1      18.649  27.913  11.422  1.00  0.00     0.008 C 
HETATM   10  C5  UNL     1      18.036  27.449  12.722  1.00  0.00    -0.005 C 
HETATM   11  C28 UNL     1      22.171  28.883  12.900  1.00  0.00     0.072 C 
HETATM   12  O6  UNL     1      21.209  29.123  10.824  1.00  0.00    -0.294 OA
HETATM   13  C27 UNL     1      21.857  28.820  14.370  1.00  0.00     0.137 C 
HETATM   14  C29 UNL     1      22.866  27.594  12.436  1.00  0.00     0.020 C 
BRANCH   5  15
HETATM   15  O1  UNL     1      19.941  31.180  12.462  1.00  0.00    -0.375 OA
HETATM   16  C1  UNL     1      18.998  31.923  13.091  1.00  0.00     0.203 C 
ENDBRANCH   5  15
BRANCH  10  17
HETATM   17  C6  UNL     1      17.851  25.942  12.741  1.00  0.00     0.090 C 
BRANCH  17  18
HETATM   18  C7  UNL     1      18.632  25.295  11.663  1.00  0.00     0.135 C 
HETATM   19  N1  UNL     1      19.875  25.038  11.881  1.00  0.00    -0.251 N 
ATOM     20  H1  UNL     1      20.281  25.288  12.782  1.00  0.00     0.196 HD
BRANCH  18  21
HETATM   21  O2  UNL     1      18.107  24.946  10.428  1.00  0.00    -0.348 OA
ATOM     22  H2  UNL     1      17.879  24.058  10.180  1.00  0.00     0.219 HD
ENDBRANCH  18  21
BRANCH  19  23
HETATM   23  O3  UNL     1      20.674  24.434  10.930  1.00  0.00    -0.288 OA
ATOM     24  H3  UNL     1      21.533  24.772  10.707  1.00  0.00     0.244 HD
ENDBRANCH  19  23
ENDBRANCH  17  18
ENDBRANCH  10  17
ENDBRANCH   1   3
BRANCH   1  25
HETATM   25  O4  UNL     1      19.884  28.982  16.977  1.00  0.00    -0.345 OA
ATOM     26  H4  UNL     1      19.554  29.373  17.777  1.00  0.00     0.219 HD
ENDBRANCH   1  25
BRANCH   2  27
HETATM   27  N3  UNL     1      21.078  32.198  15.765  1.00  0.00    -0.286 NA
HETATM   28  C12 UNL     1      20.416  33.460  16.149  1.00  0.00     0.125 C 
HETATM   29  C13 UNL     1      21.349  34.619  15.915  1.00  0.00     0.287 C 
HETATM   30  N4  UNL     1      22.372  34.674  16.958  1.00  0.00     0.090 N 
HETATM   31  C25 UNL     1      22.585  33.274  17.359  1.00  0.00     0.287 C 
HETATM   32  C26 UNL     1      22.491  32.433  16.129  1.00  0.00     0.125 C 
BRANCH  30  33
HETATM   33  C14 UNL     1      21.792  35.309  18.151  1.00  0.00     0.272 C 
BRANCH  33  34
HETATM   34  C15 UNL     1      21.185  36.614  17.714  1.00  0.00     0.030 C 
BRANCH  34  35
HETATM   35  C16 UNL     1      19.812  36.835  18.284  1.00  0.00     0.002 C 
BRANCH  35  36
HETATM   36  C17 UNL     1      19.417  35.561  19.015  1.00  0.00     0.000 C 
BRANCH  36  37
HETATM   37  C18 UNL     1      17.967  35.178  18.716  1.00  0.00     0.002 C 
BRANCH  37  38
HETATM   38  C19 UNL     1      17.658  35.603  17.304  1.00  0.00     0.020 C 
BRANCH  38  39
HETATM   39  C20 UNL     1      16.221  36.025  17.121  1.00  0.00     0.125 C 
BRANCH  39  40
HETATM   40  N5  UNL     1      16.055  37.278  17.872  1.00  0.00    -0.352 N 
HETATM   41  C21 UNL     1      15.368  37.372  19.117  1.00  0.00     0.126 C 
HETATM   42  C22 UNL     1      15.608  38.747  19.644  1.00  0.00     0.029 C 
HETATM   43  C23 UNL     1      15.897  39.574  18.399  1.00  0.00     0.104 C 
HETATM   44  C24 UNL     1      16.525  38.559  17.503  1.00  0.00     0.219 C 
HETATM   45  O5  UNL     1      17.338  38.801  16.577  1.00  0.00    -0.273 OA
ENDBRANCH  39  40
ENDBRANCH  38  39
ENDBRANCH  37  38
ENDBRANCH  36  37
ENDBRANCH  35  36
ENDBRANCH  34  35
ENDBRANCH  33  34
ENDBRANCH  30  33
ENDBRANCH   2  27
TORSDOF 16
ENDMDL
MODEL 5
REMARK VINA RESULT: -7.829247126      2.632      9.763
REMARK  16 active torsions:
REMARK  status: ('A' for Active; 'I' for Inactive)
REMARK    1  A    between atoms: O1_2  and  C2_3 
REMARK    2  A    between atoms: C5_6  and  C6_7 
REMARK    3  A    between atoms: C6_7  and  C7_8 
REMARK    4  A    between atoms: C7_8  and  O2_9 
REMARK    5  A    between atoms: N1_11  and  O3_13 
REMARK    6  A    between atoms: N2_17  and  C10_18 
REMARK    7  A    between atoms: C10_18  and  O4_19 
REMARK    8  A    between atoms: C11_21  and  N3_22 
REMARK    9  A    between atoms: N4_25  and  C14_26 
REMARK   10  A    between atoms: C14_26  and  C15_27 
REMARK   11  A    between atoms: C15_27  and  C16_28 
REMARK   12  A    between atoms: C16_28  and  C17_29 
REMARK   13  A    between atoms: C17_29  and  C18_30 
REMARK   14  A    between atoms: C18_30  and  C19_31 
REMARK   15  A    between atoms: C19_31  and  C20_32 
REMARK   16  A    between atoms: C20_32  and  N5_33 
ROOT
HETATM    1  C10 UNL     1      19.552  28.923  15.226  1.00  0.00     0.149 C 
HETATM    2  C11 UNL     1      18.979  27.982  14.288  1.00  0.00     0.115 C 
ENDROOT
BRANCH   1   3
HETATM    3  N2  UNL     1      19.260  30.263  15.461  1.00  0.00    -0.352 N 
HETATM    4  C9  UNL     1      20.355  31.235  15.136  1.00  0.00     0.129 C 
HETATM    5  C2  UNL     1      19.851  32.373  14.341  1.00  0.00     0.141 C 
HETATM    6  C8  UNL     1      21.145  31.534  16.358  1.00  0.00     0.033 C 
HETATM    7  C3  UNL     1      20.844  33.509  14.350  1.00  0.00     0.049 C 
HETATM    8  C30 UNL     1      18.562  32.918  14.868  1.00  0.00     0.168 C 
HETATM    9  C4  UNL     1      21.039  33.962  15.766  1.00  0.00     0.008 C 
HETATM   10  C5  UNL     1      21.787  32.855  16.471  1.00  0.00    -0.005 C 
HETATM   11  C28 UNL     1      17.573  32.103  15.545  1.00  0.00     0.072 C 
HETATM   12  O6  UNL     1      18.350  34.100  14.709  1.00  0.00    -0.294 OA
HETATM   13  C27 UNL     1      18.003  30.714  15.934  1.00  0.00     0.137 C 
HETATM   14  C29 UNL     1      16.954  32.837  16.744  1.00  0.00     0.020 C 
BRANCH   5  15
HETATM   15  O1  UNL     1      19.563  32.068  12.999  1.00  0.00    -0.375 OA
HETATM   16  C1  UNL     1      20.586  31.564  12.266  1.00  0.00     0.203 C 
ENDBRANCH   5  15
BRANCH  10  17
HETATM   17  C6  UNL     1      22.099  33.225  17.910  1.00  0.00     0.090 C 
BRANCH  17  18
HETATM   18  C7  UNL     1      21.570  34.567  18.243  1.00  0.00     0.135 C 
HETATM   19  N1  UNL     1      20.390  34.648  18.752  1.00  0.00    -0.251 N 
ATOM     20  H1  UNL     1      19.858  33.792  18.907  1.00  0.00     0.196 HD
BRANCH  18  21
HETATM   21  O2  UNL     1      22.268  35.747  18.040  1.00  0.00    -0.348 OA
ATOM     22  H2  UNL     1      23.215  35.819  18.091  1.00  0.00     0.219 HD
ENDBRANCH  18  21
BRANCH  19  23
HETATM   23  O3  UNL     1      19.823  35.860  19.092  1.00  0.00    -0.288 OA
ATOM     24  H3  UNL     1      18.884  36.000  19.072  1.00  0.00     0.244 HD
ENDBRANCH  19  23
ENDBRANCH  17  18
ENDBRANCH  10  17
ENDBRANCH   1   3
BRANCH   1  25
HETATM   25  O4  UNL     1      20.518  28.383  15.973  1.00  0.00    -0.345 OA
ATOM     26  H4  UNL     1      20.913  27.585  15.643  1.00  0.00     0.219 HD
ENDBRANCH   1  25
BRANCH   2  27
HETATM   27  N3  UNL     1      17.870  28.306  13.479  1.00  0.00    -0.286 NA
HETATM   28  C12 UNL     1      18.393  28.964  12.266  1.00  0.00     0.125 C 
HETATM   29  C13 UNL     1      17.447  28.742  11.115  1.00  0.00     0.287 C 
HETATM   30  N4  UNL     1      17.575  27.379  10.601  1.00  0.00     0.090 N 
HETATM   31  C25 UNL     1      17.952  26.564  11.767  1.00  0.00     0.287 C 
HETATM   32  C26 UNL     1      17.208  27.096  12.948  1.00  0.00     0.125 C 
BRANCH  30  33
HETATM   33  C14 UNL     1      18.750  27.318   9.720  1.00  0.00     0.272 C 
BRANCH  33  34
HETATM   34  C15 UNL     1      18.266  26.914   8.354  1.00  0.00     0.030 C 
BRANCH  34  35
HETATM   35  C16 UNL     1      19.012  25.733   7.800  1.00  0.00     0.002 C 
BRANCH  35  36
HETATM   36  C17 UNL     1      19.910  25.206   8.910  1.00  0.00     0.000 C 
BRANCH  36  37
HETATM   37  C18 UNL     1      21.199  24.611   8.342  1.00  0.00     0.002 C 
BRANCH  37  38
HETATM   38  C19 UNL     1      22.275  24.755   9.386  1.00  0.00     0.020 C 
BRANCH  38  39
HETATM   39  C20 UNL     1      21.723  24.824  10.789  1.00  0.00     0.125 C 
BRANCH  39  40
HETATM   40  N5  UNL     1      22.364  25.980  11.434  1.00  0.00    -0.352 N 
HETATM   41  C21 UNL     1      21.663  27.150  11.846  1.00  0.00     0.126 C 
HETATM   42  C22 UNL     1      22.620  27.976  12.638  1.00  0.00     0.029 C 
HETATM   43  C23 UNL     1      23.988  27.549  12.123  1.00  0.00     0.104 C 
HETATM   44  C24 UNL     1      23.736  26.128  11.742  1.00  0.00     0.219 C 
HETATM   45  O5  UNL     1      24.597  25.216  11.703  1.00  0.00    -0.273 OA
ENDBRANCH  39  40
ENDBRANCH  38  39
ENDBRANCH  37  38
ENDBRANCH  36  37
ENDBRANCH  35  36
ENDBRANCH  34  35
ENDBRANCH  33  34
ENDBRANCH  30  33
ENDBRANCH   2  27
TORSDOF 16
ENDMDL
