MODEL 1
REMARK VINA RESULT: -9.779099579      0.000      0.000
REMARK  14 active torsions:
REMARK  status: ('A' for Active; 'I' for Inactive)
REMARK    1  A    between atoms: C2_2  and  N1_3 
REMARK    2  A    between atoms: C4_5  and  C5_6 
REMARK    3  A    between atoms: C5_6  and  C6_7 
REMARK    4  A    between atoms: C6_7  and  C7_8 
REMARK    5  A    between atoms: C7_8  and  C8_9 
REMARK    6  A    between atoms: C8_9  and  C9_10 
REMARK    7  A    between atoms: C9_10  and  N2_11 
REMARK       I    between atoms: C10_13  and  N4_15 
REMARK    8  A    between atoms: N4_15  and  C11_17 
REMARK    9  A    between atoms: C13_19  and  O1_20 
REMARK   10  A    between atoms: O1_20  and  C14_21 
REMARK   11  A    between atoms: C14_21  and  C15_22 
REMARK   12  A    between atoms: C15_22  and  O2_23 
REMARK   13  A    between atoms: O2_23  and  C16_24 
REMARK   14  A    between atoms: C24_35  and  N7_36 
ROOT
HETATM    1  C11 UNL     1      20.265  28.716  15.231  1.00  0.00     0.127 A 
HETATM    2  C12 UNL     1      21.538  28.508  14.703  1.00  0.00     0.105 A 
HETATM    3  C13 UNL     1      21.714  28.053  13.418  1.00  0.00     0.161 A 
HETATM    4  N6  UNL     1      20.569  27.822  12.704  1.00  0.00    -0.170 N 
ATOM      5  H6  UNL     1      20.661  27.483  11.747  1.00  0.00     0.186 HD
HETATM    6  C24 UNL     1      19.343  28.013  13.182  1.00  0.00     0.683 A 
HETATM    7  N8  UNL     1      19.220  28.457  14.439  1.00  0.00    -0.176 N 
ATOM      8  H8  UNL     1      18.282  28.606  14.811  1.00  0.00     0.186 HD
ENDROOT
BRANCH   1   9
HETATM    9  N4  UNL     1      20.127  29.149  16.457  1.00  0.00    -0.316 N 
HETATM   10  C10 UNL     1      19.874  30.553  16.599  1.00  0.00     0.189 C 
HETATM   11  N2  UNL     1      20.866  31.359  16.596  1.00  0.00    -0.364 N 
HETATM   12  N3  UNL     1      18.530  30.975  16.733  1.00  0.00    -0.063 NA
ATOM     13  H2  UNL     1      21.787  30.934  16.493  1.00  0.00     0.162 HD
ATOM     14  H4  UNL     1      20.196  28.527  17.263  1.00  0.00     0.170 HD
BRANCH  11  15
HETATM   15  C9  UNL     1      20.844  32.778  16.719  1.00  0.00     0.122 C 
BRANCH  15  16
HETATM   16  C8  UNL     1      22.023  33.379  17.415  1.00  0.00     0.020 C 
BRANCH  16  17
HETATM   17  C7  UNL     1      21.708  34.675  18.117  1.00  0.00     0.002 C 
BRANCH  17  18
HETATM   18  C6  UNL     1      20.314  35.096  17.640  1.00  0.00     0.003 C 
BRANCH  18  19
HETATM   19  C5  UNL     1      19.533  35.497  18.845  1.00  0.00     0.034 C 
BRANCH  19  20
HETATM   20  C4  UNL     1      18.089  35.856  18.516  1.00  0.00     0.151 C 
HETATM   21  C3  UNL     1      17.779  35.652  17.071  1.00  0.00     0.160 C 
HETATM   22  N1  UNL     1      16.776  34.622  17.034  1.00  0.00    -0.326 N 
HETATM   23  C30 UNL     1      16.237  34.590  18.349  1.00  0.00     0.363 C 
HETATM   24  O3  UNL     1      17.183  35.072  19.232  1.00  0.00    -0.297 OA
HETATM   25  O4  UNL     1      15.062  34.171  18.598  1.00  0.00    -0.238 OA
BRANCH  22  26
HETATM   26  C2  UNL     1      16.433  33.824  15.875  1.00  0.00     0.123 C 
HETATM   27  C1  UNL     1      17.519  33.879  14.807  1.00  0.00     0.026 C 
ENDBRANCH  22  26
ENDBRANCH  19  20
ENDBRANCH  18  19
ENDBRANCH  17  18
ENDBRANCH  16  17
ENDBRANCH  15  16
ENDBRANCH  11  15
ENDBRANCH   1   9
BRANCH   3  28
HETATM   28  O1  UNL     1      22.930  27.851  12.896  1.00  0.00    -0.333 OA
BRANCH  28  29
HETATM   29  C14 UNL     1      23.479  27.430  11.735  1.00  0.00     0.203 C 
BRANCH  29  30
HETATM   30  C15 UNL     1      24.539  26.362  11.879  1.00  0.00     0.197 C 
BRANCH  30  31
HETATM   31  O2  UNL     1      24.055  25.222  11.251  1.00  0.00    -0.355 OA
BRANCH  31  32
HETATM   32  C16 UNL     1      23.257  25.471  10.161  1.00  0.00     0.358 C 
HETATM   33  C17 UNL     1      23.997  25.627   8.870  1.00  0.00     0.065 C 
HETATM   34  C18 UNL     1      23.837  24.366   8.028  1.00  0.00     0.015 C 
HETATM   35  C19 UNL     1      22.377  24.212   7.655  1.00  0.00    -0.021 C 
HETATM   36  C20 UNL     1      22.007  22.770   7.531  1.00  0.00     0.016 C 
HETATM   37  C21 UNL     1      22.154  24.900   6.340  1.00  0.00     0.016 C 
HETATM   38  C22 UNL     1      21.508  24.800   8.768  1.00  0.00     0.283 C 
HETATM   39  N5  UNL     1      22.208  24.493  10.026  1.00  0.00     0.113 N 
HETATM   40  C23 UNL     1      21.251  24.523  11.112  1.00  0.00     0.313 C 
ENDBRANCH  31  32
ENDBRANCH  30  31
ENDBRANCH  29  30
ENDBRANCH  28  29
ENDBRANCH   3  28
BRANCH   6  41
HETATM   41  N7  UNL     1      18.202  27.756  12.411  1.00  0.00    -0.217 N 
HETATM   42  C25 UNL     1      17.843  26.359  12.117  1.00  0.00     0.141 C 
HETATM   43  C26 UNL     1      18.154  26.142  10.648  1.00  0.00     0.020 C 
HETATM   44  C27 UNL     1      18.187  27.463   9.905  1.00  0.00     0.003 C 
HETATM   45  C28 UNL     1      17.101  28.400  10.391  1.00  0.00     0.020 C 
HETATM   46  C29 UNL     1      17.308  28.743  11.851  1.00  0.00     0.141 C 
ENDBRANCH   6  41
TORSDOF 14
ENDMDL
MODEL 2
REMARK VINA RESULT: -9.448874205      2.283     11.433
REMARK  14 active torsions:
REMARK  status: ('A' for Active; 'I' for Inactive)
REMARK    1  A    between atoms: C2_2  and  N1_3 
REMARK    2  A    between atoms: C4_5  and  C5_6 
REMARK    3  A    between atoms: C5_6  and  C6_7 
REMARK    4  A    between atoms: C6_7  and  C7_8 
REMARK    5  A    between atoms: C7_8  and  C8_9 
REMARK    6  A    between atoms: C8_9  and  C9_10 
REMARK    7  A    between atoms: C9_10  and  N2_11 
REMARK       I    between atoms: C10_13  and  N4_15 
REMARK    8  A    between atoms: N4_15  and  C11_17 
REMARK    9  A    between atoms: C13_19  and  O1_20 
REMARK   10  A    between atoms: O1_20  and  C14_21 
REMARK   11  A    between atoms: C14_21  and  C15_22 
REMARK   12  A    between atoms: C15_22  and  O2_23 
REMARK   13  A    between atoms: O2_23  and  C16_24 
REMARK   14  A    between atoms: C24_35  and  N7_36 
ROOT
HETATM    1  C11 UNL     1      19.816  30.681  16.553  1.00  0.00     0.127 A 
HETATM    2  C12 UNL     1      20.930  31.505  16.404  1.00  0.00     0.105 A 
HETATM    3  C13 UNL     1      20.813  32.874  16.406  1.00  0.00     0.161 A 
HETATM    4  N6  UNL     1      19.545  33.365  16.559  1.00  0.00    -0.170 N 
ATOM      5  H6  UNL     1      19.421  34.377  16.564  1.00  0.00     0.186 HD
HETATM    6  C24 UNL     1      18.465  32.603  16.703  1.00  0.00     0.683 A 
HETATM    7  N8  UNL     1      18.627  31.274  16.697  1.00  0.00    -0.176 N 
ATOM      8  H8  UNL     1      17.801  30.685  16.808  1.00  0.00     0.186 HD
ENDROOT
BRANCH   1   9
HETATM    9  N4  UNL     1      19.956  29.381  16.548  1.00  0.00    -0.316 N 
HETATM   10  C10 UNL     1      19.771  28.738  15.280  1.00  0.00     0.189 C 
HETATM   11  N2  UNL     1      18.584  28.451  14.905  1.00  0.00    -0.364 N 
HETATM   12  N3  UNL     1      20.921  28.456  14.504  1.00  0.00    -0.063 NA
ATOM     13  H2  UNL     1      17.837  28.704  15.552  1.00  0.00     0.162 HD
ATOM     14  H4  UNL     1      20.183  28.857  17.393  1.00  0.00     0.170 HD
BRANCH  11  15
HETATM   15  C9  UNL     1      18.174  27.820  13.695  1.00  0.00     0.122 C 
BRANCH  15  16
HETATM   16  C8  UNL     1      17.692  28.743  12.623  1.00  0.00     0.020 C 
BRANCH  16  17
HETATM   17  C7  UNL     1      18.337  28.495  11.283  1.00  0.00     0.002 C 
BRANCH  17  18
HETATM   18  C6  UNL     1      18.954  27.093  11.356  1.00  0.00     0.003 C 
BRANCH  18  19
HETATM   19  C5  UNL     1      20.401  27.226  11.019  1.00  0.00     0.034 C 
BRANCH  19  20
HETATM   20  C4  UNL     1      21.243  26.091  11.589  1.00  0.00     0.151 C 
HETATM   21  C3  UNL     1      21.383  24.962  10.623  1.00  0.00     0.160 C 
HETATM   22  N1  UNL     1      22.786  24.889  10.316  1.00  0.00    -0.326 N 
HETATM   23  C30 UNL     1      23.427  25.597  11.369  1.00  0.00     0.363 C 
HETATM   24  O3  UNL     1      22.538  26.511  11.900  1.00  0.00    -0.297 OA
HETATM   25  O4  UNL     1      24.631  25.373  11.712  1.00  0.00    -0.238 OA
BRANCH  22  26
HETATM   26  C2  UNL     1      23.362  24.220   9.168  1.00  0.00     0.123 C 
HETATM   27  C1  UNL     1      23.731  25.205   8.064  1.00  0.00     0.026 C 
ENDBRANCH  22  26
ENDBRANCH  19  20
ENDBRANCH  18  19
ENDBRANCH  17  18
ENDBRANCH  16  17
ENDBRANCH  15  16
ENDBRANCH  11  15
ENDBRANCH   1   9
BRANCH   3  28
HETATM   28  O1  UNL     1      21.875  33.677  16.267  1.00  0.00    -0.333 OA
BRANCH  28  29
HETATM   29  C14 UNL     1      22.477  34.689  16.931  1.00  0.00     0.203 C 
BRANCH  29  30
HETATM   30  C15 UNL     1      22.049  34.852  18.371  1.00  0.00     0.197 C 
BRANCH  30  31
HETATM   31  O2  UNL     1      21.940  36.215  18.612  1.00  0.00    -0.355 OA
BRANCH  31  32
HETATM   32  C16 UNL     1      21.029  36.860  17.810  1.00  0.00     0.358 C 
HETATM   33  C17 UNL     1      19.612  36.422  18.000  1.00  0.00     0.065 C 
HETATM   34  C18 UNL     1      18.849  37.473  18.800  1.00  0.00     0.015 C 
HETATM   35  C19 UNL     1      18.784  38.750  17.988  1.00  0.00    -0.021 C 
HETATM   36  C20 UNL     1      18.772  39.948  18.879  1.00  0.00     0.016 C 
HETATM   37  C21 UNL     1      17.527  38.722  17.170  1.00  0.00     0.016 C 
HETATM   38  C22 UNL     1      20.038  38.857  17.116  1.00  0.00     0.283 C 
HETATM   39  N5  UNL     1      21.133  38.293  17.921  1.00  0.00     0.113 N 
HETATM   40  C23 UNL     1      22.391  38.817  17.431  1.00  0.00     0.313 C 
ENDBRANCH  31  32
ENDBRANCH  30  31
ENDBRANCH  29  30
ENDBRANCH  28  29
ENDBRANCH   3  28
BRANCH   6  41
HETATM   41  N7  UNL     1      17.186  33.156  16.852  1.00  0.00    -0.217 N 
HETATM   42  C25 UNL     1      16.164  32.867  15.832  1.00  0.00     0.141 C 
HETATM   43  C26 UNL     1      15.975  34.151  15.046  1.00  0.00     0.020 C 
HETATM   44  C27 UNL     1      16.435  35.348  15.854  1.00  0.00     0.003 C 
HETATM   45  C28 UNL     1      16.057  35.210  17.314  1.00  0.00     0.020 C 
HETATM   46  C29 UNL     1      16.743  34.010  17.930  1.00  0.00     0.141 C 
ENDBRANCH   6  41
TORSDOF 14
ENDMDL
MODEL 3
REMARK VINA RESULT: -9.392836444      2.649     11.235
REMARK  14 active torsions:
REMARK  status: ('A' for Active; 'I' for Inactive)
REMARK    1  A    between atoms: C2_2  and  N1_3 
REMARK    2  A    between atoms: C4_5  and  C5_6 
REMARK    3  A    between atoms: C5_6  and  C6_7 
REMARK    4  A    between atoms: C6_7  and  C7_8 
REMARK    5  A    between atoms: C7_8  and  C8_9 
REMARK    6  A    between atoms: C8_9  and  C9_10 
REMARK    7  A    between atoms: C9_10  and  N2_11 
REMARK       I    between atoms: C10_13  and  N4_15 
REMARK    8  A    between atoms: N4_15  and  C11_17 
REMARK    9  A    between atoms: C13_19  and  O1_20 
REMARK   10  A    between atoms: O1_20  and  C14_21 
REMARK   11  A    between atoms: C14_21  and  C15_22 
REMARK   12  A    between atoms: C15_22  and  O2_23 
REMARK   13  A    between atoms: O2_23  and  C16_24 
REMARK   14  A    between atoms: C24_35  and  N7_36 
ROOT
HETATM    1  C11 UNL     1      19.763  30.815  16.686  1.00  0.00     0.127 A 
HETATM    2  C12 UNL     1      20.888  31.626  16.549  1.00  0.00     0.105 A 
HETATM    3  C13 UNL     1      20.782  32.996  16.520  1.00  0.00     0.161 A 
HETATM    4  N6  UNL     1      19.514  33.500  16.632  1.00  0.00    -0.170 N 
ATOM      5  H6  UNL     1      19.397  34.512  16.613  1.00  0.00     0.186 HD
HETATM    6  C24 UNL     1      18.425  32.749  16.764  1.00  0.00     0.683 A 
HETATM    7  N8  UNL     1      18.576  31.419  16.788  1.00  0.00    -0.176 N 
ATOM      8  H8  UNL     1      17.743  30.838  16.890  1.00  0.00     0.186 HD
ENDROOT
BRANCH   1   9
HETATM    9  N4  UNL     1      19.893  29.513  16.711  1.00  0.00    -0.316 N 
HETATM   10  C10 UNL     1      19.879  28.861  15.434  1.00  0.00     0.189 C 
HETATM   11  N2  UNL     1      18.752  28.577  14.903  1.00  0.00    -0.364 N 
HETATM   12  N3  UNL     1      21.122  28.564  14.826  1.00  0.00    -0.063 NA
ATOM     13  H2  UNL     1      17.926  28.841  15.439  1.00  0.00     0.162 HD
ATOM     14  H4  UNL     1      19.999  28.995  17.583  1.00  0.00     0.170 HD
BRANCH  11  15
HETATM   15  C9  UNL     1      18.507  27.938  13.654  1.00  0.00     0.122 C 
BRANCH  15  16
HETATM   16  C8  UNL     1      18.368  28.856  12.481  1.00  0.00     0.020 C 
BRANCH  16  17
HETATM   17  C7  UNL     1      17.128  28.599  11.662  1.00  0.00     0.002 C 
BRANCH  17  18
HETATM   18  C6  UNL     1      17.612  28.145  10.280  1.00  0.00     0.003 C 
BRANCH  18  19
HETATM   19  C5  UNL     1      17.384  26.674  10.190  1.00  0.00     0.034 C 
BRANCH  19  20
HETATM   20  C4  UNL     1      18.663  25.899   9.897  1.00  0.00     0.151 C 
HETATM   21  C3  UNL     1      19.872  26.771   9.967  1.00  0.00     0.160 C 
HETATM   22  N1  UNL     1      20.659  26.252  11.053  1.00  0.00    -0.326 N 
HETATM   23  C30 UNL     1      20.169  24.933  11.260  1.00  0.00     0.363 C 
HETATM   24  O3  UNL     1      18.864  24.864  10.812  1.00  0.00    -0.297 OA
HETATM   25  O4  UNL     1      20.876  24.014  11.782  1.00  0.00    -0.238 OA
BRANCH  22  26
HETATM   26  C2  UNL     1      21.712  26.966  11.745  1.00  0.00     0.123 C 
HETATM   27  C1  UNL     1      21.815  28.413  11.280  1.00  0.00     0.026 C 
ENDBRANCH  22  26
ENDBRANCH  19  20
ENDBRANCH  18  19
ENDBRANCH  17  18
ENDBRANCH  16  17
ENDBRANCH  15  16
ENDBRANCH  11  15
ENDBRANCH   1   9
BRANCH   3  28
HETATM   28  O1  UNL     1      21.853  33.789  16.392  1.00  0.00    -0.333 OA
BRANCH  28  29
HETATM   29  C14 UNL     1      22.489  34.757  17.089  1.00  0.00     0.203 C 
BRANCH  29  30
HETATM   30  C15 UNL     1      21.995  34.957  18.502  1.00  0.00     0.197 C 
BRANCH  30  31
HETATM   31  O2  UNL     1      21.901  36.326  18.711  1.00  0.00    -0.355 OA
BRANCH  31  32
HETATM   32  C16 UNL     1      21.013  36.966  17.880  1.00  0.00     0.358 C 
HETATM   33  C17 UNL     1      19.579  36.609  18.109  1.00  0.00     0.065 C 
HETATM   34  C18 UNL     1      18.877  37.742  18.851  1.00  0.00     0.015 C 
HETATM   35  C19 UNL     1      18.864  38.970  17.964  1.00  0.00    -0.021 C 
HETATM   36  C20 UNL     1      18.920  40.219  18.781  1.00  0.00     0.016 C 
HETATM   37  C21 UNL     1      17.597  38.954  17.161  1.00  0.00     0.016 C 
HETATM   38  C22 UNL     1      20.110  38.963  17.075  1.00  0.00     0.283 C 
HETATM   39  N5  UNL     1      21.187  38.396  17.903  1.00  0.00     0.113 N 
HETATM   40  C23 UNL     1      22.462  38.828  17.370  1.00  0.00     0.313 C 
ENDBRANCH  31  32
ENDBRANCH  30  31
ENDBRANCH  29  30
ENDBRANCH  28  29
ENDBRANCH   3  28
BRANCH   6  41
HETATM   41  N7  UNL     1      17.147  33.315  16.870  1.00  0.00    -0.217 N 
HETATM   42  C25 UNL     1      16.192  33.124  15.765  1.00  0.00     0.141 C 
HETATM   43  C26 UNL     1      16.076  34.467  15.069  1.00  0.00     0.020 C 
HETATM   44  C27 UNL     1      16.497  35.590  15.996  1.00  0.00     0.003 C 
HETATM   45  C28 UNL     1      16.019  35.349  17.412  1.00  0.00     0.020 C 
HETATM   46  C29 UNL     1      16.644  34.093  17.979  1.00  0.00     0.141 C 
ENDBRANCH   6  41
TORSDOF 14
ENDMDL
MODEL 4
REMARK VINA RESULT: -9.354335877      1.212      1.525
REMARK  14 active torsions:
REMARK  status: ('A' for Active; 'I' for Inactive)
REMARK    1  A    between atoms: C2_2  and  N1_3 
REMARK    2  A    between atoms: C4_5  and  C5_6 
REMARK    3  A    between atoms: C5_6  and  C6_7 
REMARK    4  A    between atoms: C6_7  and  C7_8 
REMARK    5  A    between atoms: C7_8  and  C8_9 
REMARK    6  A    between atoms: C8_9  and  C9_10 
REMARK    7  A    between atoms: C9_10  and  N2_11 
REMARK       I    between atoms: C10_13  and  N4_15 
REMARK    8  A    between atoms: N4_15  and  C11_17 
REMARK    9  A    between atoms: C13_19  and  O1_20 
REMARK   10  A    between atoms: O1_20  and  C14_21 
REMARK   11  A    between atoms: C14_21  and  C15_22 
REMARK   12  A    between atoms: C15_22  and  O2_23 
REMARK   13  A    between atoms: O2_23  and  C16_24 
REMARK   14  A    between atoms: C24_35  and  N7_36 
ROOT
HETATM    1  C11 UNL     1      20.303  28.574  15.075  1.00  0.00     0.127 A 
HETATM    2  C12 UNL     1      21.579  28.493  14.520  1.00  0.00     0.105 A 
HETATM    3  C13 UNL     1      21.766  28.150  13.203  1.00  0.00     0.161 A 
HETATM    4  N6  UNL     1      20.629  27.895  12.485  1.00  0.00    -0.170 N 
ATOM      5  H6  UNL     1      20.730  27.636  11.504  1.00  0.00     0.186 HD
HETATM    6  C24 UNL     1      19.401  27.965  12.988  1.00  0.00     0.683 A 
HETATM    7  N8  UNL     1      19.266  28.305  14.276  1.00  0.00    -0.176 N 
ATOM      8  H8  UNL     1      18.326  28.361  14.667  1.00  0.00     0.186 HD
ENDROOT
BRANCH   1   9
HETATM    9  N4  UNL     1      20.154  28.903  16.332  1.00  0.00    -0.316 N 
HETATM   10  C10 UNL     1      19.993  30.303  16.595  1.00  0.00     0.189 C 
HETATM   11  N2  UNL     1      21.038  31.033  16.694  1.00  0.00    -0.364 N 
HETATM   12  N3  UNL     1      18.678  30.806  16.731  1.00  0.00    -0.063 NA
ATOM     13  H2  UNL     1      21.931  30.554  16.577  1.00  0.00     0.162 HD
ATOM     14  H4  UNL     1      20.153  28.208  17.078  1.00  0.00     0.170 HD
BRANCH  11  15
HETATM   15  C9  UNL     1      21.110  32.433  16.947  1.00  0.00     0.122 C 
BRANCH  15  16
HETATM   16  C8  UNL     1      22.470  32.954  17.286  1.00  0.00     0.020 C 
BRANCH  16  17
HETATM   17  C7  UNL     1      22.702  34.370  16.823  1.00  0.00     0.002 C 
BRANCH  17  18
HETATM   18  C6  UNL     1      21.323  34.936  16.464  1.00  0.00     0.003 C 
BRANCH  18  19
HETATM   19  C5  UNL     1      21.265  36.331  16.989  1.00  0.00     0.034 C 
BRANCH  19  20
HETATM   20  C4  UNL     1      20.320  36.472  18.176  1.00  0.00     0.151 C 
HETATM   21  C3  UNL     1      19.299  37.537  17.952  1.00  0.00     0.160 C 
HETATM   22  N1  UNL     1      18.031  36.861  17.942  1.00  0.00    -0.326 N 
HETATM   23  C30 UNL     1      18.280  35.610  18.572  1.00  0.00     0.363 C 
HETATM   24  O3  UNL     1      19.616  35.293  18.423  1.00  0.00    -0.297 OA
HETATM   25  O4  UNL     1      17.369  34.945  19.159  1.00  0.00    -0.238 OA
BRANCH  22  26
HETATM   26  C2  UNL     1      16.799  37.391  17.396  1.00  0.00     0.123 C 
HETATM   27  C1  UNL     1      16.905  38.882  17.101  1.00  0.00     0.026 C 
ENDBRANCH  22  26
ENDBRANCH  19  20
ENDBRANCH  18  19
ENDBRANCH  17  18
ENDBRANCH  16  17
ENDBRANCH  15  16
ENDBRANCH  11  15
ENDBRANCH   1   9
BRANCH   3  28
HETATM   28  O1  UNL     1      22.985  28.070  12.656  1.00  0.00    -0.333 OA
BRANCH  28  29
HETATM   29  C14 UNL     1      23.596  27.448  11.622  1.00  0.00     0.203 C 
BRANCH  29  30
HETATM   30  C15 UNL     1      24.538  26.333  12.014  1.00  0.00     0.197 C 
BRANCH  30  31
HETATM   31  O2  UNL     1      24.181  25.219  11.267  1.00  0.00    -0.355 OA
BRANCH  31  32
HETATM   32  C16 UNL     1      23.364  25.493  10.196  1.00  0.00     0.358 C 
HETATM   33  C17 UNL     1      24.078  25.647   8.891  1.00  0.00     0.065 C 
HETATM   34  C18 UNL     1      23.876  24.396   8.042  1.00  0.00     0.015 C 
HETATM   35  C19 UNL     1      22.405  24.272   7.699  1.00  0.00    -0.021 C 
HETATM   36  C20 UNL     1      22.007  22.838   7.572  1.00  0.00     0.016 C 
HETATM   37  C21 UNL     1      22.166  24.975   6.396  1.00  0.00     0.016 C 
HETATM   38  C22 UNL     1      21.572  24.866   8.837  1.00  0.00     0.283 C 
HETATM   39  N5  UNL     1      22.294  24.535  10.076  1.00  0.00     0.113 N 
HETATM   40  C23 UNL     1      21.362  24.573  11.184  1.00  0.00     0.313 C 
ENDBRANCH  31  32
ENDBRANCH  30  31
ENDBRANCH  29  30
ENDBRANCH  28  29
ENDBRANCH   3  28
BRANCH   6  41
HETATM   41  N7  UNL     1      18.268  27.690  12.210  1.00  0.00    -0.217 N 
HETATM   42  C25 UNL     1      17.915  26.285  11.942  1.00  0.00     0.141 C 
HETATM   43  C26 UNL     1      18.241  26.038  10.481  1.00  0.00     0.020 C 
HETATM   44  C27 UNL     1      18.280  27.343   9.711  1.00  0.00     0.003 C 
HETATM   45  C28 UNL     1      17.187  28.288  10.166  1.00  0.00     0.020 C 
HETATM   46  C29 UNL     1      17.377  28.662  11.620  1.00  0.00     0.141 C 
ENDBRANCH   6  41
TORSDOF 14
ENDMDL
MODEL 5
REMARK VINA RESULT: -9.206230386      2.046     11.613
REMARK  14 active torsions:
REMARK  status: ('A' for Active; 'I' for Inactive)
REMARK    1  A    between atoms: C2_2  and  N1_3 
REMARK    2  A    between atoms: C4_5  and  C5_6 
REMARK    3  A    between atoms: C5_6  and  C6_7 
REMARK    4  A    between atoms: C6_7  and  C7_8 
REMARK    5  A    between atoms: C7_8  and  C8_9 
REMARK    6  A    between atoms: C8_9  and  C9_10 
REMARK    7  A    between atoms: C9_10  and  N2_11 
REMARK       I    between atoms: C10_13  and  N4_15 
REMARK    8  A    between atoms: N4_15  and  C11_17 
REMARK    9  A    between atoms: C13_19  and  O1_20 
REMARK   10  A    between atoms: O1_20  and  C14_21 
REMARK   11  A    between atoms: C14_21  and  C15_22 
REMARK   12  A    between atoms: C15_22  and  O2_23 
REMARK   13  A    between atoms: O2_23  and  C16_24 
REMARK   14  A    between atoms: C24_35  and  N7_36 
ROOT
HETATM    1  C11 UNL     1      17.811  30.884  15.540  1.00  0.00     0.127 A 
HETATM    2  C12 UNL     1      16.772  31.678  16.021  1.00  0.00     0.105 A 
HETATM    3  C13 UNL     1      16.965  33.006  16.316  1.00  0.00     0.161 A 
HETATM    4  N6  UNL     1      18.230  33.486  16.110  1.00  0.00    -0.170 N 
ATOM      5  H6  UNL     1      18.410  34.468  16.320  1.00  0.00     0.186 HD
HETATM    6  C24 UNL     1      19.239  32.752  15.653  1.00  0.00     0.683 A 
HETATM    7  N8  UNL     1      19.004  31.462  15.377  1.00  0.00    -0.176 N 
ATOM      8  H8  UNL     1      19.775  30.894  15.025  1.00  0.00     0.186 HD
ENDROOT
BRANCH   1   9
HETATM    9  N4  UNL     1      17.599  29.622  15.267  1.00  0.00    -0.316 N 
HETATM   10  C10 UNL     1      18.365  29.081  14.183  1.00  0.00     0.189 C 
HETATM   11  N2  UNL     1      17.938  29.245  12.989  1.00  0.00    -0.364 N 
HETATM   12  N3  UNL     1      19.560  28.391  14.493  1.00  0.00    -0.063 NA
ATOM     13  H2  UNL     1      17.063  29.760  12.894  1.00  0.00     0.162 HD
ATOM     14  H4  UNL     1      16.931  29.058  15.793  1.00  0.00     0.170 HD
BRANCH  11  15
HETATM   15  C9  UNL     1      18.535  28.799  11.775  1.00  0.00     0.122 C 
BRANCH  15  16
HETATM   16  C8  UNL     1      17.627  28.050  10.853  1.00  0.00     0.020 C 
BRANCH  16  17
HETATM   17  C7  UNL     1      17.904  26.569  10.810  1.00  0.00     0.002 C 
BRANCH  17  18
HETATM   18  C6  UNL     1      19.166  26.343  11.650  1.00  0.00     0.003 C 
BRANCH  18  19
HETATM   19  C5  UNL     1      19.899  25.191  11.050  1.00  0.00     0.034 C 
BRANCH  19  20
HETATM   20  C4  UNL     1      21.292  25.571  10.563  1.00  0.00     0.151 C 
HETATM   21  C3  UNL     1      21.612  27.000  10.849  1.00  0.00     0.160 C 
HETATM   22  N1  UNL     1      22.722  26.971  11.762  1.00  0.00    -0.326 N 
HETATM   23  C30 UNL     1      23.271  25.667  11.627  1.00  0.00     0.363 C 
HETATM   24  O3  UNL     1      22.284  24.809  11.181  1.00  0.00    -0.297 OA
HETATM   25  O4  UNL     1      24.487  25.404  11.892  1.00  0.00    -0.238 OA
BRANCH  22  26
HETATM   26  C2  UNL     1      23.143  28.068  12.609  1.00  0.00     0.123 C 
HETATM   27  C1  UNL     1      22.200  29.260  12.503  1.00  0.00     0.026 C 
ENDBRANCH  22  26
ENDBRANCH  19  20
ENDBRANCH  18  19
ENDBRANCH  17  18
ENDBRANCH  16  17
ENDBRANCH  15  16
ENDBRANCH  11  15
ENDBRANCH   1   9
BRANCH   3  28
HETATM   28  O1  UNL     1      15.976  33.783  16.776  1.00  0.00    -0.333 OA
BRANCH  28  29
HETATM   29  C14 UNL     1      15.281  33.971  17.920  1.00  0.00     0.203 C 
BRANCH  29  30
HETATM   30  C15 UNL     1      15.281  35.388  18.443  1.00  0.00     0.197 C 
BRANCH  30  31
HETATM   31  O2  UNL     1      16.547  35.631  18.959  1.00  0.00    -0.355 OA
BRANCH  31  32
HETATM   32  C16 UNL     1      17.384  36.312  18.109  1.00  0.00     0.358 C 
HETATM   33  C17 UNL     1      16.757  37.486  17.426  1.00  0.00     0.065 C 
HETATM   34  C18 UNL     1      17.238  38.779  18.076  1.00  0.00     0.015 C 
HETATM   35  C19 UNL     1      18.730  38.913  17.847  1.00  0.00    -0.021 C 
HETATM   36  C20 UNL     1      19.381  39.633  18.983  1.00  0.00     0.016 C 
HETATM   37  C21 UNL     1      18.942  39.684  16.579  1.00  0.00     0.016 C 
HETATM   38  C22 UNL     1      19.357  37.518  17.786  1.00  0.00     0.283 C 
HETATM   39  N5  UNL     1      18.610  36.702  18.757  1.00  0.00     0.113 N 
HETATM   40  C23 UNL     1      19.433  35.578  19.153  1.00  0.00     0.313 C 
ENDBRANCH  31  32
ENDBRANCH  30  31
ENDBRANCH  29  30
ENDBRANCH  28  29
ENDBRANCH   3  28
BRANCH   6  41
HETATM   41  N7  UNL     1      20.518  33.291  15.463  1.00  0.00    -0.217 N 
HETATM   42  C25 UNL     1      21.463  32.584  14.582  1.00  0.00     0.141 C 
HETATM   43  C26 UNL     1      22.509  31.967  15.490  1.00  0.00     0.020 C 
HETATM   44  C27 UNL     1      22.556  32.687  16.823  1.00  0.00     0.003 C 
HETATM   45  C28 UNL     1      22.388  34.182  16.651  1.00  0.00     0.020 C 
HETATM   46  C29 UNL     1      21.034  34.502  16.058  1.00  0.00     0.141 C 
ENDBRANCH   6  41
TORSDOF 14
ENDMDL
